data_str_m3_o1_o16_pcu_sym.57
_audit_creation_date              2020-01-03
_audit_creation_method            'Materials Studio'
_symmetry_space_group_name_H-M    'P1'
_symmetry_Int_Tables_number       1
_symmetry_cell_setting            triclinic
loop_
_symmetry_equiv_pos_as_xyz
  x,y,z
_cell_length_a                    29.8519
_cell_length_b                    31.8906
_cell_length_c                    26.5626
_cell_angle_alpha                 91.9314
_cell_angle_beta                  71.1635
_cell_angle_gamma                 89.2166
loop_
_atom_site_label
_atom_site_type_symbol
_atom_site_fract_x
_atom_site_fract_y
_atom_site_fract_z
_atom_site_U_iso_or_equiv
_atom_site_adp_type
_atom_site_occupancy
C1     C     0.16678   0.24635   0.24872   0.00000  Uiso   1.00
C2     C     0.12792   0.15148   0.40795   0.00000  Uiso   1.00
C3     C     0.17353   0.31174   0.29067   0.00000  Uiso   1.00
C4     C     0.14129   0.16136   0.35089   0.00000  Uiso   1.00
C5     C     0.17441   0.02157   0.29238   0.00000  Uiso   1.00
C6     C     0.16746   0.04254   0.24966   0.00000  Uiso   1.00
C7     C     0.15987   0.02144   0.20597   0.00000  Uiso   1.00
C8     C     0.16133   0.31087   0.20349   0.00000  Uiso   1.00
C9     C     0.16663   0.29044   0.24738   0.00000  Uiso   1.00
C10    C     0.32152   0.14375   0.21191   0.00000  Uiso   1.00
C11    C     0.03556   0.14419   0.21234   0.00000  Uiso   1.00
C12    C     0.14733   0.16429   0.48953   0.00000  Uiso   1.00
C13    C     0.01295   0.19042   0.28726   0.00000  Uiso   1.00
C14    C     0.29856   0.19144   0.28664   0.00000  Uiso   1.00
C15    C     0.16681   0.08687   0.25035   0.00000  Uiso   1.00
C16    C     0.19261   0.16743   0.14870   0.00000  Uiso   1.00
C17    C     0.26327   0.19037   0.00766   0.00000  Uiso   1.00
C18    C     0.20733   0.17115   0.09170   0.00000  Uiso   1.00
C19    C     0.08088   0.14265   0.43824   0.00000  Uiso   1.00
C20    C     0.06619   0.15125   0.49327   0.00000  Uiso   1.00
C21    C     0.09768   0.16736   0.01773   0.00000  Uiso   1.00
C22    C     0.18038   0.04407   0.33974   0.00000  Uiso   1.00
C23    C     0.16235   0.15453   0.43443   0.00000  Uiso   1.00
C24    C     0.16085   0.28642   0.15475   0.00000  Uiso   1.00
C25    C     0.31425   0.11950   0.16686   0.00000  Uiso   1.00
C26    C     0.26374   0.22172   0.32392   0.00000  Uiso   1.00
C27    C     0.30806   0.21048   0.47747   0.00000  Uiso   1.00
C28    C     0.04771   0.12279   0.41378   0.00000  Uiso   1.00
C29    C     0.07628   0.19078   0.06949   0.00000  Uiso   1.00
C30    C     0.18293   0.16961   0.01373   0.00000  Uiso   1.00
C31    C     0.23049   0.17646   0.48270   0.00000  Uiso   1.00
C32    C     0.24473   0.16347   0.42928   0.00000  Uiso   1.00
C33    C     0.21156   0.14807   0.40764   0.00000  Uiso   1.00
C34    C     0.17387   0.16242   0.06693   0.00000  Uiso   1.00
C35    C     0.25115   0.18721   0.06294   0.00000  Uiso   1.00
H36    H     0.27556   0.19693   0.08344   0.00000  Uiso   1.00
H37    H     0.14762   0.25484   0.15745   0.00000  Uiso   1.00
H38    H     0.00956   0.11654   0.12924   0.00000  Uiso   1.00
H39    H     0.05782   0.21718   0.31544   0.00000  Uiso   1.00
H40    H     0.22861   0.22600   0.32287   0.00000  Uiso   1.00
H41    H     0.31847   0.21248   0.43465   0.00000  Uiso   1.00
H42    H     0.05966   0.11205   0.37235   0.00000  Uiso   1.00
H43    H     0.04071   0.18397   0.09449   0.00000  Uiso   1.00
H44    H     0.06307   0.12620   0.18228   0.00000  Uiso   1.00
H45    H     0.28170   0.16124   0.40535   0.00000  Uiso   1.00
H46    H     0.14085   0.14847   0.08909   0.00000  Uiso   1.00
H47    H     0.02925   0.14828   0.01666   0.00000  Uiso   1.00
H48    H     0.22547   0.13110   0.36975   0.00000  Uiso   1.00
H49    H     0.17775   0.29434   0.32334   0.00000  Uiso   1.00
H50    H     0.17626   0.07782   0.34457   0.00000  Uiso   1.00
H51    H     0.12998   0.02909   0.15181   0.00000  Uiso   1.00
N52    N     0.04760   0.16668   0.25001   0.00000  Uiso   1.00
N53    N     0.28573   0.16665   0.25000   0.00000  Uiso   1.00
O54    O     0.12846   0.22775   0.25000   0.00000  Uiso   1.00
O55    O     0.15150   0.04476   0.16677   0.00000  Uiso   1.00
O56    O     0.17713   0.30065   0.11061   0.00000  Uiso   1.00
O57    O     0.27856   0.10008   0.17133   0.00000  Uiso   1.00
O58    O     0.02351   0.21419   0.32594   0.00000  Uiso   1.00
O59    O     0.27394   0.24356   0.35707   0.00000  Uiso   1.00
O60    O     0.33325   0.22666   0.00048   0.00000  Uiso   1.00
O61    O     0.00691   0.11612   0.44043   0.00000  Uiso   1.00
O62    O     0.09670   0.21976   0.08309   0.00000  Uiso   1.00
O63    O     0.20490   0.22774   0.25000   0.00000  Uiso   1.00
O64    O     0.10947   0.16666   0.32681   0.00000  Uiso   1.00
O65    O     0.18591   0.16665   0.32681   0.00000  Uiso   1.00
O66    O     0.12843   0.10559   0.24999   0.00000  Uiso   1.00
O67    O     0.20488   0.10558   0.24999   0.00000  Uiso   1.00
O68    O     0.14742   0.16668   0.17319   0.00000  Uiso   1.00
O69    O     0.22387   0.16667   0.17319   0.00000  Uiso   1.00
O70    O     0.18979   0.02500   0.37432   0.00000  Uiso   1.00
Zn71   Zn    0.11562   0.16667   0.25000   0.00000  Uiso   1.00
Zn72   Zn    0.21771   0.16666   0.25000   0.00000  Uiso   1.00
C73    C     0.50011   0.24635   0.24872   0.00000  Uiso   1.00
C74    C     0.46125   0.15148   0.40795   0.00000  Uiso   1.00
C75    C     0.50686   0.31174   0.29067   0.00000  Uiso   1.00
C76    C     0.47462   0.16136   0.35089   0.00000  Uiso   1.00
C77    C     0.50775   0.02157   0.29238   0.00000  Uiso   1.00
C78    C     0.50080   0.04254   0.24966   0.00000  Uiso   1.00
C79    C     0.49321   0.02144   0.20597   0.00000  Uiso   1.00
C80    C     0.49466   0.31087   0.20349   0.00000  Uiso   1.00
C81    C     0.49997   0.29044   0.24738   0.00000  Uiso   1.00
C82    C     0.65485   0.14375   0.21191   0.00000  Uiso   1.00
C83    C     0.36890   0.14419   0.21234   0.00000  Uiso   1.00
C84    C     0.48066   0.16429   0.48953   0.00000  Uiso   1.00
C85    C     0.34628   0.19042   0.28726   0.00000  Uiso   1.00
C86    C     0.63189   0.19144   0.28664   0.00000  Uiso   1.00
C87    C     0.50014   0.08687   0.25035   0.00000  Uiso   1.00
C88    C     0.52595   0.16743   0.14870   0.00000  Uiso   1.00
C89    C     0.59661   0.19037   0.00766   0.00000  Uiso   1.00
C90    C     0.54066   0.17115   0.09170   0.00000  Uiso   1.00
C91    C     0.41421   0.14265   0.43824   0.00000  Uiso   1.00
C92    C     0.39953   0.15125   0.49327   0.00000  Uiso   1.00
C93    C     0.43101   0.16736   0.01773   0.00000  Uiso   1.00
C94    C     0.51371   0.04407   0.33974   0.00000  Uiso   1.00
C95    C     0.49568   0.15453   0.43443   0.00000  Uiso   1.00
C96    C     0.49419   0.28642   0.15475   0.00000  Uiso   1.00
C97    C     0.64759   0.11950   0.16686   0.00000  Uiso   1.00
C98    C     0.59707   0.22172   0.32392   0.00000  Uiso   1.00
C99    C     0.64140   0.21048   0.47747   0.00000  Uiso   1.00
C100   C     0.38104   0.12279   0.41378   0.00000  Uiso   1.00
C101   C     0.40962   0.19078   0.06949   0.00000  Uiso   1.00
C102   C     0.51627   0.16961   0.01373   0.00000  Uiso   1.00
C103   C     0.56383   0.17646   0.48270   0.00000  Uiso   1.00
C104   C     0.57807   0.16347   0.42928   0.00000  Uiso   1.00
C105   C     0.54490   0.14807   0.40764   0.00000  Uiso   1.00
C106   C     0.50720   0.16242   0.06693   0.00000  Uiso   1.00
C107   C     0.58448   0.18721   0.06294   0.00000  Uiso   1.00
H108   H     0.60889   0.19693   0.08344   0.00000  Uiso   1.00
H109   H     0.48096   0.25484   0.15745   0.00000  Uiso   1.00
H110   H     0.34290   0.11654   0.12924   0.00000  Uiso   1.00
H111   H     0.39115   0.21718   0.31544   0.00000  Uiso   1.00
H112   H     0.56194   0.22600   0.32287   0.00000  Uiso   1.00
H113   H     0.65180   0.21248   0.43465   0.00000  Uiso   1.00
H114   H     0.39299   0.11205   0.37235   0.00000  Uiso   1.00
H115   H     0.37404   0.18397   0.09449   0.00000  Uiso   1.00
H116   H     0.39641   0.12620   0.18228   0.00000  Uiso   1.00
H117   H     0.61503   0.16124   0.40535   0.00000  Uiso   1.00
H118   H     0.47418   0.14847   0.08909   0.00000  Uiso   1.00
H119   H     0.36259   0.14828   0.01666   0.00000  Uiso   1.00
H120   H     0.55880   0.13110   0.36975   0.00000  Uiso   1.00
H121   H     0.51108   0.29434   0.32334   0.00000  Uiso   1.00
H122   H     0.50959   0.07782   0.34457   0.00000  Uiso   1.00
H123   H     0.46331   0.02909   0.15181   0.00000  Uiso   1.00
N124   N     0.38093   0.16668   0.25001   0.00000  Uiso   1.00
N125   N     0.61906   0.16665   0.25000   0.00000  Uiso   1.00
O126   O     0.46179   0.22775   0.25000   0.00000  Uiso   1.00
O127   O     0.48483   0.04476   0.16677   0.00000  Uiso   1.00
O128   O     0.51047   0.30065   0.11061   0.00000  Uiso   1.00
O129   O     0.61189   0.10008   0.17133   0.00000  Uiso   1.00
O130   O     0.35684   0.21419   0.32594   0.00000  Uiso   1.00
O131   O     0.60728   0.24356   0.35707   0.00000  Uiso   1.00
O132   O     0.66658   0.22666   0.00048   0.00000  Uiso   1.00
O133   O     0.34024   0.11612   0.44043   0.00000  Uiso   1.00
O134   O     0.43003   0.21976   0.08309   0.00000  Uiso   1.00
O135   O     0.53823   0.22774   0.25000   0.00000  Uiso   1.00
O136   O     0.44280   0.16666   0.32681   0.00000  Uiso   1.00
O137   O     0.51924   0.16665   0.32681   0.00000  Uiso   1.00
O138   O     0.46177   0.10559   0.24999   0.00000  Uiso   1.00
O139   O     0.53821   0.10558   0.24999   0.00000  Uiso   1.00
O140   O     0.48076   0.16668   0.17319   0.00000  Uiso   1.00
O141   O     0.55720   0.16667   0.17319   0.00000  Uiso   1.00
O142   O     0.52312   0.02500   0.37432   0.00000  Uiso   1.00
Zn143  Zn    0.44896   0.16667   0.25000   0.00000  Uiso   1.00
Zn144  Zn    0.55104   0.16666   0.25000   0.00000  Uiso   1.00
C145   C     0.83345   0.24635   0.24872   0.00000  Uiso   1.00
C146   C     0.79458   0.15148   0.40795   0.00000  Uiso   1.00
C147   C     0.84019   0.31174   0.29067   0.00000  Uiso   1.00
C148   C     0.80796   0.16136   0.35089   0.00000  Uiso   1.00
C149   C     0.84108   0.02157   0.29238   0.00000  Uiso   1.00
C150   C     0.83413   0.04254   0.24966   0.00000  Uiso   1.00
C151   C     0.82654   0.02144   0.20597   0.00000  Uiso   1.00
C152   C     0.82800   0.31087   0.20349   0.00000  Uiso   1.00
C153   C     0.83330   0.29044   0.24738   0.00000  Uiso   1.00
C154   C     0.98819   0.14375   0.21191   0.00000  Uiso   1.00
C155   C     0.70223   0.14419   0.21234   0.00000  Uiso   1.00
C156   C     0.81400   0.16429   0.48953   0.00000  Uiso   1.00
C157   C     0.67961   0.19042   0.28726   0.00000  Uiso   1.00
C158   C     0.96523   0.19144   0.28664   0.00000  Uiso   1.00
C159   C     0.83347   0.08687   0.25035   0.00000  Uiso   1.00
C160   C     0.85928   0.16743   0.14870   0.00000  Uiso   1.00
C161   C     0.92994   0.19037   0.00766   0.00000  Uiso   1.00
C162   C     0.87399   0.17115   0.09170   0.00000  Uiso   1.00
C163   C     0.74754   0.14265   0.43824   0.00000  Uiso   1.00
C164   C     0.73286   0.15125   0.49327   0.00000  Uiso   1.00
C165   C     0.76435   0.16736   0.01773   0.00000  Uiso   1.00
C166   C     0.84705   0.04407   0.33974   0.00000  Uiso   1.00
C167   C     0.82901   0.15453   0.43443   0.00000  Uiso   1.00
C168   C     0.82752   0.28642   0.15475   0.00000  Uiso   1.00
C169   C     0.98092   0.11950   0.16686   0.00000  Uiso   1.00
C170   C     0.93041   0.22172   0.32392   0.00000  Uiso   1.00
C171   C     0.97473   0.21048   0.47747   0.00000  Uiso   1.00
C172   C     0.71438   0.12279   0.41378   0.00000  Uiso   1.00
C173   C     0.74295   0.19078   0.06949   0.00000  Uiso   1.00
C174   C     0.84960   0.16961   0.01373   0.00000  Uiso   1.00
C175   C     0.89716   0.17646   0.48270   0.00000  Uiso   1.00
C176   C     0.91140   0.16347   0.42928   0.00000  Uiso   1.00
C177   C     0.87823   0.14807   0.40764   0.00000  Uiso   1.00
C178   C     0.84053   0.16242   0.06693   0.00000  Uiso   1.00
C179   C     0.91781   0.18721   0.06294   0.00000  Uiso   1.00
H180   H     0.94223   0.19693   0.08344   0.00000  Uiso   1.00
H181   H     0.81429   0.25484   0.15745   0.00000  Uiso   1.00
H182   H     0.67623   0.11654   0.12924   0.00000  Uiso   1.00
H183   H     0.72448   0.21718   0.31544   0.00000  Uiso   1.00
H184   H     0.89527   0.22600   0.32287   0.00000  Uiso   1.00
H185   H     0.98513   0.21248   0.43465   0.00000  Uiso   1.00
H186   H     0.72632   0.11205   0.37235   0.00000  Uiso   1.00
H187   H     0.70737   0.18397   0.09449   0.00000  Uiso   1.00
H188   H     0.72974   0.12620   0.18228   0.00000  Uiso   1.00
H189   H     0.94837   0.16124   0.40535   0.00000  Uiso   1.00
H190   H     0.80751   0.14847   0.08909   0.00000  Uiso   1.00
H191   H     0.69592   0.14828   0.01666   0.00000  Uiso   1.00
H192   H     0.89213   0.13110   0.36975   0.00000  Uiso   1.00
H193   H     0.84442   0.29434   0.32334   0.00000  Uiso   1.00
H194   H     0.84293   0.07782   0.34457   0.00000  Uiso   1.00
H195   H     0.79665   0.02909   0.15181   0.00000  Uiso   1.00
N196   N     0.71426   0.16668   0.25001   0.00000  Uiso   1.00
N197   N     0.95239   0.16665   0.25000   0.00000  Uiso   1.00
O198   O     0.79512   0.22775   0.25000   0.00000  Uiso   1.00
O199   O     0.81817   0.04476   0.16677   0.00000  Uiso   1.00
O200   O     0.84380   0.30065   0.11061   0.00000  Uiso   1.00
O201   O     0.94522   0.10008   0.17133   0.00000  Uiso   1.00
O202   O     0.69018   0.21419   0.32594   0.00000  Uiso   1.00
O203   O     0.94061   0.24356   0.35707   0.00000  Uiso   1.00
O204   O     0.99992   0.22666   0.00048   0.00000  Uiso   1.00
O205   O     0.67358   0.11612   0.44043   0.00000  Uiso   1.00
O206   O     0.76336   0.21976   0.08309   0.00000  Uiso   1.00
O207   O     0.87157   0.22774   0.25000   0.00000  Uiso   1.00
O208   O     0.77613   0.16666   0.32681   0.00000  Uiso   1.00
O209   O     0.85258   0.16665   0.32681   0.00000  Uiso   1.00
O210   O     0.79510   0.10559   0.24999   0.00000  Uiso   1.00
O211   O     0.87154   0.10558   0.24999   0.00000  Uiso   1.00
O212   O     0.81409   0.16668   0.17319   0.00000  Uiso   1.00
O213   O     0.89053   0.16667   0.17319   0.00000  Uiso   1.00
O214   O     0.85646   0.02500   0.37432   0.00000  Uiso   1.00
Zn215  Zn    0.78229   0.16667   0.25000   0.00000  Uiso   1.00
Zn216  Zn    0.88438   0.16666   0.25000   0.00000  Uiso   1.00
C217   C     0.16678   0.57969   0.24872   0.00000  Uiso   1.00
C218   C     0.12792   0.48481   0.40795   0.00000  Uiso   1.00
C219   C     0.17353   0.64507   0.29067   0.00000  Uiso   1.00
C220   C     0.14129   0.49469   0.35089   0.00000  Uiso   1.00
C221   C     0.17441   0.35490   0.29238   0.00000  Uiso   1.00
C222   C     0.16746   0.37587   0.24966   0.00000  Uiso   1.00
C223   C     0.15987   0.35477   0.20597   0.00000  Uiso   1.00
C224   C     0.16133   0.64420   0.20349   0.00000  Uiso   1.00
C225   C     0.16663   0.62377   0.24738   0.00000  Uiso   1.00
C226   C     0.32152   0.47709   0.21191   0.00000  Uiso   1.00
C227   C     0.03556   0.47752   0.21234   0.00000  Uiso   1.00
C228   C     0.14733   0.49763   0.48953   0.00000  Uiso   1.00
C229   C     0.01295   0.52376   0.28726   0.00000  Uiso   1.00
C230   C     0.29856   0.52477   0.28664   0.00000  Uiso   1.00
C231   C     0.16681   0.42020   0.25035   0.00000  Uiso   1.00
C232   C     0.19261   0.50077   0.14870   0.00000  Uiso   1.00
C233   C     0.26327   0.52370   0.00766   0.00000  Uiso   1.00
C234   C     0.20733   0.50449   0.09170   0.00000  Uiso   1.00
C235   C     0.08088   0.47599   0.43824   0.00000  Uiso   1.00
C236   C     0.06619   0.48458   0.49327   0.00000  Uiso   1.00
C237   C     0.09768   0.50070   0.01773   0.00000  Uiso   1.00
C238   C     0.18038   0.37741   0.33974   0.00000  Uiso   1.00
C239   C     0.16235   0.48786   0.43443   0.00000  Uiso   1.00
C240   C     0.16085   0.61975   0.15475   0.00000  Uiso   1.00
C241   C     0.31425   0.45284   0.16686   0.00000  Uiso   1.00
C242   C     0.26374   0.55505   0.32392   0.00000  Uiso   1.00
C243   C     0.30806   0.54382   0.47747   0.00000  Uiso   1.00
C244   C     0.04771   0.45612   0.41378   0.00000  Uiso   1.00
C245   C     0.07628   0.52411   0.06949   0.00000  Uiso   1.00
C246   C     0.18293   0.50295   0.01373   0.00000  Uiso   1.00
C247   C     0.23049   0.50979   0.48270   0.00000  Uiso   1.00
C248   C     0.24473   0.49680   0.42928   0.00000  Uiso   1.00
C249   C     0.21156   0.48140   0.40764   0.00000  Uiso   1.00
C250   C     0.17387   0.49575   0.06693   0.00000  Uiso   1.00
C251   C     0.25115   0.52055   0.06294   0.00000  Uiso   1.00
H252   H     0.27556   0.53027   0.08344   0.00000  Uiso   1.00
H253   H     0.14762   0.58817   0.15745   0.00000  Uiso   1.00
H254   H     0.00956   0.44987   0.12924   0.00000  Uiso   1.00
H255   H     0.05782   0.55051   0.31544   0.00000  Uiso   1.00
H256   H     0.22861   0.55934   0.32287   0.00000  Uiso   1.00
H257   H     0.31847   0.54581   0.43465   0.00000  Uiso   1.00
H258   H     0.05966   0.44538   0.37235   0.00000  Uiso   1.00
H259   H     0.04071   0.51730   0.09449   0.00000  Uiso   1.00
H260   H     0.06307   0.45953   0.18228   0.00000  Uiso   1.00
H261   H     0.28170   0.49458   0.40535   0.00000  Uiso   1.00
H262   H     0.14085   0.48180   0.08909   0.00000  Uiso   1.00
H263   H     0.02925   0.48162   0.01666   0.00000  Uiso   1.00
H264   H     0.22547   0.46443   0.36975   0.00000  Uiso   1.00
H265   H     0.17775   0.62767   0.32334   0.00000  Uiso   1.00
H266   H     0.17626   0.41116   0.34457   0.00000  Uiso   1.00
H267   H     0.12998   0.36242   0.15181   0.00000  Uiso   1.00
N268   N     0.04760   0.50001   0.25001   0.00000  Uiso   1.00
N269   N     0.28573   0.49998   0.25000   0.00000  Uiso   1.00
O270   O     0.12846   0.56108   0.25000   0.00000  Uiso   1.00
O271   O     0.15150   0.37809   0.16677   0.00000  Uiso   1.00
O272   O     0.17713   0.63398   0.11061   0.00000  Uiso   1.00
O273   O     0.27856   0.43341   0.17133   0.00000  Uiso   1.00
O274   O     0.02351   0.54752   0.32594   0.00000  Uiso   1.00
O275   O     0.27394   0.57689   0.35707   0.00000  Uiso   1.00
O276   O     0.33325   0.56000   0.00048   0.00000  Uiso   1.00
O277   O     0.00691   0.44946   0.44043   0.00000  Uiso   1.00
O278   O     0.09670   0.55309   0.08309   0.00000  Uiso   1.00
O279   O     0.20490   0.56107   0.25000   0.00000  Uiso   1.00
O280   O     0.10947   0.50000   0.32681   0.00000  Uiso   1.00
O281   O     0.18591   0.49999   0.32681   0.00000  Uiso   1.00
O282   O     0.12843   0.43893   0.24999   0.00000  Uiso   1.00
O283   O     0.20488   0.43892   0.24999   0.00000  Uiso   1.00
O284   O     0.14742   0.50001   0.17319   0.00000  Uiso   1.00
O285   O     0.22387   0.50000   0.17319   0.00000  Uiso   1.00
O286   O     0.18979   0.35834   0.37432   0.00000  Uiso   1.00
Zn287  Zn    0.11562   0.50001   0.25000   0.00000  Uiso   1.00
Zn288  Zn    0.21771   0.49999   0.25000   0.00000  Uiso   1.00
C289   C     0.50011   0.57969   0.24872   0.00000  Uiso   1.00
C290   C     0.46125   0.48481   0.40795   0.00000  Uiso   1.00
C291   C     0.50686   0.64507   0.29067   0.00000  Uiso   1.00
C292   C     0.47462   0.49469   0.35089   0.00000  Uiso   1.00
C293   C     0.50775   0.35490   0.29238   0.00000  Uiso   1.00
C294   C     0.50080   0.37587   0.24966   0.00000  Uiso   1.00
C295   C     0.49321   0.35477   0.20597   0.00000  Uiso   1.00
C296   C     0.49466   0.64420   0.20349   0.00000  Uiso   1.00
C297   C     0.49997   0.62377   0.24738   0.00000  Uiso   1.00
C298   C     0.65485   0.47709   0.21191   0.00000  Uiso   1.00
C299   C     0.36890   0.47752   0.21234   0.00000  Uiso   1.00
C300   C     0.48066   0.49763   0.48953   0.00000  Uiso   1.00
C301   C     0.34628   0.52376   0.28726   0.00000  Uiso   1.00
C302   C     0.63189   0.52477   0.28664   0.00000  Uiso   1.00
C303   C     0.50014   0.42020   0.25035   0.00000  Uiso   1.00
C304   C     0.52595   0.50077   0.14870   0.00000  Uiso   1.00
C305   C     0.59661   0.52370   0.00766   0.00000  Uiso   1.00
C306   C     0.54066   0.50449   0.09170   0.00000  Uiso   1.00
C307   C     0.41421   0.47599   0.43824   0.00000  Uiso   1.00
C308   C     0.39953   0.48458   0.49327   0.00000  Uiso   1.00
C309   C     0.43101   0.50070   0.01773   0.00000  Uiso   1.00
C310   C     0.51371   0.37741   0.33974   0.00000  Uiso   1.00
C311   C     0.49568   0.48786   0.43443   0.00000  Uiso   1.00
C312   C     0.49419   0.61975   0.15475   0.00000  Uiso   1.00
C313   C     0.64759   0.45284   0.16686   0.00000  Uiso   1.00
C314   C     0.59707   0.55505   0.32392   0.00000  Uiso   1.00
C315   C     0.64140   0.54382   0.47747   0.00000  Uiso   1.00
C316   C     0.38104   0.45612   0.41378   0.00000  Uiso   1.00
C317   C     0.40962   0.52411   0.06949   0.00000  Uiso   1.00
C318   C     0.51627   0.50295   0.01373   0.00000  Uiso   1.00
C319   C     0.56383   0.50979   0.48270   0.00000  Uiso   1.00
C320   C     0.57807   0.49680   0.42928   0.00000  Uiso   1.00
C321   C     0.54490   0.48140   0.40764   0.00000  Uiso   1.00
C322   C     0.50720   0.49575   0.06693   0.00000  Uiso   1.00
C323   C     0.58448   0.52055   0.06294   0.00000  Uiso   1.00
H324   H     0.60889   0.53027   0.08344   0.00000  Uiso   1.00
H325   H     0.48096   0.58817   0.15745   0.00000  Uiso   1.00
H326   H     0.34290   0.44987   0.12924   0.00000  Uiso   1.00
H327   H     0.39115   0.55051   0.31544   0.00000  Uiso   1.00
H328   H     0.56194   0.55934   0.32287   0.00000  Uiso   1.00
H329   H     0.65180   0.54581   0.43465   0.00000  Uiso   1.00
H330   H     0.39299   0.44538   0.37235   0.00000  Uiso   1.00
H331   H     0.37404   0.51730   0.09449   0.00000  Uiso   1.00
H332   H     0.39641   0.45953   0.18228   0.00000  Uiso   1.00
H333   H     0.61503   0.49458   0.40535   0.00000  Uiso   1.00
H334   H     0.47418   0.48180   0.08909   0.00000  Uiso   1.00
H335   H     0.36259   0.48162   0.01666   0.00000  Uiso   1.00
H336   H     0.55880   0.46443   0.36975   0.00000  Uiso   1.00
H337   H     0.51108   0.62767   0.32334   0.00000  Uiso   1.00
H338   H     0.50959   0.41116   0.34457   0.00000  Uiso   1.00
H339   H     0.46331   0.36242   0.15181   0.00000  Uiso   1.00
N340   N     0.38093   0.50001   0.25001   0.00000  Uiso   1.00
N341   N     0.61906   0.49998   0.25000   0.00000  Uiso   1.00
O342   O     0.46179   0.56108   0.25000   0.00000  Uiso   1.00
O343   O     0.48483   0.37809   0.16677   0.00000  Uiso   1.00
O344   O     0.51047   0.63398   0.11061   0.00000  Uiso   1.00
O345   O     0.61189   0.43341   0.17133   0.00000  Uiso   1.00
O346   O     0.35684   0.54752   0.32594   0.00000  Uiso   1.00
O347   O     0.60728   0.57689   0.35707   0.00000  Uiso   1.00
O348   O     0.66658   0.56000   0.00048   0.00000  Uiso   1.00
O349   O     0.34024   0.44946   0.44043   0.00000  Uiso   1.00
O350   O     0.43003   0.55309   0.08309   0.00000  Uiso   1.00
O351   O     0.53823   0.56107   0.25000   0.00000  Uiso   1.00
O352   O     0.44280   0.50000   0.32681   0.00000  Uiso   1.00
O353   O     0.51924   0.49999   0.32681   0.00000  Uiso   1.00
O354   O     0.46177   0.43893   0.24999   0.00000  Uiso   1.00
O355   O     0.53821   0.43892   0.24999   0.00000  Uiso   1.00
O356   O     0.48076   0.50001   0.17319   0.00000  Uiso   1.00
O357   O     0.55720   0.50000   0.17319   0.00000  Uiso   1.00
O358   O     0.52312   0.35834   0.37432   0.00000  Uiso   1.00
Zn359  Zn    0.44896   0.50001   0.25000   0.00000  Uiso   1.00
Zn360  Zn    0.55104   0.49999   0.25000   0.00000  Uiso   1.00
C361   C     0.83345   0.57969   0.24872   0.00000  Uiso   1.00
C362   C     0.79458   0.48481   0.40795   0.00000  Uiso   1.00
C363   C     0.84019   0.64507   0.29067   0.00000  Uiso   1.00
C364   C     0.80796   0.49469   0.35089   0.00000  Uiso   1.00
C365   C     0.84108   0.35490   0.29238   0.00000  Uiso   1.00
C366   C     0.83413   0.37587   0.24966   0.00000  Uiso   1.00
C367   C     0.82654   0.35477   0.20597   0.00000  Uiso   1.00
C368   C     0.82800   0.64420   0.20349   0.00000  Uiso   1.00
C369   C     0.83330   0.62377   0.24738   0.00000  Uiso   1.00
C370   C     0.98819   0.47709   0.21191   0.00000  Uiso   1.00
C371   C     0.70223   0.47752   0.21234   0.00000  Uiso   1.00
C372   C     0.81400   0.49763   0.48953   0.00000  Uiso   1.00
C373   C     0.67961   0.52376   0.28726   0.00000  Uiso   1.00
C374   C     0.96523   0.52477   0.28664   0.00000  Uiso   1.00
C375   C     0.83347   0.42020   0.25035   0.00000  Uiso   1.00
C376   C     0.85928   0.50077   0.14870   0.00000  Uiso   1.00
C377   C     0.92994   0.52370   0.00766   0.00000  Uiso   1.00
C378   C     0.87399   0.50449   0.09170   0.00000  Uiso   1.00
C379   C     0.74754   0.47599   0.43824   0.00000  Uiso   1.00
C380   C     0.73286   0.48458   0.49327   0.00000  Uiso   1.00
C381   C     0.76435   0.50070   0.01773   0.00000  Uiso   1.00
C382   C     0.84705   0.37741   0.33974   0.00000  Uiso   1.00
C383   C     0.82901   0.48786   0.43443   0.00000  Uiso   1.00
C384   C     0.82752   0.61975   0.15475   0.00000  Uiso   1.00
C385   C     0.98092   0.45284   0.16686   0.00000  Uiso   1.00
C386   C     0.93041   0.55505   0.32392   0.00000  Uiso   1.00
C387   C     0.97473   0.54382   0.47747   0.00000  Uiso   1.00
C388   C     0.71438   0.45612   0.41378   0.00000  Uiso   1.00
C389   C     0.74295   0.52411   0.06949   0.00000  Uiso   1.00
C390   C     0.84960   0.50295   0.01373   0.00000  Uiso   1.00
C391   C     0.89716   0.50979   0.48270   0.00000  Uiso   1.00
C392   C     0.91140   0.49680   0.42928   0.00000  Uiso   1.00
C393   C     0.87823   0.48140   0.40764   0.00000  Uiso   1.00
C394   C     0.84053   0.49575   0.06693   0.00000  Uiso   1.00
C395   C     0.91781   0.52055   0.06294   0.00000  Uiso   1.00
H396   H     0.94223   0.53027   0.08344   0.00000  Uiso   1.00
H397   H     0.81429   0.58817   0.15745   0.00000  Uiso   1.00
H398   H     0.67623   0.44987   0.12924   0.00000  Uiso   1.00
H399   H     0.72448   0.55051   0.31544   0.00000  Uiso   1.00
H400   H     0.89527   0.55934   0.32287   0.00000  Uiso   1.00
H401   H     0.98513   0.54581   0.43465   0.00000  Uiso   1.00
H402   H     0.72632   0.44538   0.37235   0.00000  Uiso   1.00
H403   H     0.70737   0.51730   0.09449   0.00000  Uiso   1.00
H404   H     0.72974   0.45953   0.18228   0.00000  Uiso   1.00
H405   H     0.94837   0.49458   0.40535   0.00000  Uiso   1.00
H406   H     0.80751   0.48180   0.08909   0.00000  Uiso   1.00
H407   H     0.69592   0.48162   0.01666   0.00000  Uiso   1.00
H408   H     0.89213   0.46443   0.36975   0.00000  Uiso   1.00
H409   H     0.84442   0.62767   0.32334   0.00000  Uiso   1.00
H410   H     0.84293   0.41116   0.34457   0.00000  Uiso   1.00
H411   H     0.79665   0.36242   0.15181   0.00000  Uiso   1.00
N412   N     0.71426   0.50001   0.25001   0.00000  Uiso   1.00
N413   N     0.95239   0.49998   0.25000   0.00000  Uiso   1.00
O414   O     0.79512   0.56108   0.25000   0.00000  Uiso   1.00
O415   O     0.81817   0.37809   0.16677   0.00000  Uiso   1.00
O416   O     0.84380   0.63398   0.11061   0.00000  Uiso   1.00
O417   O     0.94522   0.43341   0.17133   0.00000  Uiso   1.00
O418   O     0.69018   0.54752   0.32594   0.00000  Uiso   1.00
O419   O     0.94061   0.57689   0.35707   0.00000  Uiso   1.00
O420   O     0.99992   0.56000   0.00048   0.00000  Uiso   1.00
O421   O     0.67358   0.44946   0.44043   0.00000  Uiso   1.00
O422   O     0.76336   0.55309   0.08309   0.00000  Uiso   1.00
O423   O     0.87157   0.56107   0.25000   0.00000  Uiso   1.00
O424   O     0.77613   0.50000   0.32681   0.00000  Uiso   1.00
O425   O     0.85258   0.49999   0.32681   0.00000  Uiso   1.00
O426   O     0.79510   0.43893   0.24999   0.00000  Uiso   1.00
O427   O     0.87154   0.43892   0.24999   0.00000  Uiso   1.00
O428   O     0.81409   0.50001   0.17319   0.00000  Uiso   1.00
O429   O     0.89053   0.50000   0.17319   0.00000  Uiso   1.00
O430   O     0.85646   0.35834   0.37432   0.00000  Uiso   1.00
Zn431  Zn    0.78229   0.50001   0.25000   0.00000  Uiso   1.00
Zn432  Zn    0.88438   0.49999   0.25000   0.00000  Uiso   1.00
C433   C     0.16678   0.91302   0.24872   0.00000  Uiso   1.00
C434   C     0.12792   0.81814   0.40795   0.00000  Uiso   1.00
C435   C     0.17353   0.97840   0.29067   0.00000  Uiso   1.00
C436   C     0.14129   0.82802   0.35089   0.00000  Uiso   1.00
C437   C     0.17441   0.68823   0.29238   0.00000  Uiso   1.00
C438   C     0.16746   0.70921   0.24966   0.00000  Uiso   1.00
C439   C     0.15987   0.68810   0.20597   0.00000  Uiso   1.00
C440   C     0.16133   0.97754   0.20349   0.00000  Uiso   1.00
C441   C     0.16663   0.95711   0.24738   0.00000  Uiso   1.00
C442   C     0.32152   0.81042   0.21191   0.00000  Uiso   1.00
C443   C     0.03556   0.81085   0.21234   0.00000  Uiso   1.00
C444   C     0.14733   0.83096   0.48953   0.00000  Uiso   1.00
C445   C     0.01295   0.85709   0.28726   0.00000  Uiso   1.00
C446   C     0.29856   0.85811   0.28664   0.00000  Uiso   1.00
C447   C     0.16681   0.75353   0.25035   0.00000  Uiso   1.00
C448   C     0.19261   0.83410   0.14870   0.00000  Uiso   1.00
C449   C     0.26327   0.85703   0.00766   0.00000  Uiso   1.00
C450   C     0.20733   0.83782   0.09170   0.00000  Uiso   1.00
C451   C     0.08088   0.80932   0.43824   0.00000  Uiso   1.00
C452   C     0.06619   0.81791   0.49327   0.00000  Uiso   1.00
C453   C     0.09768   0.83403   0.01773   0.00000  Uiso   1.00
C454   C     0.18038   0.71074   0.33974   0.00000  Uiso   1.00
C455   C     0.16235   0.82120   0.43443   0.00000  Uiso   1.00
C456   C     0.16085   0.95309   0.15475   0.00000  Uiso   1.00
C457   C     0.31425   0.78617   0.16686   0.00000  Uiso   1.00
C458   C     0.26374   0.88839   0.32392   0.00000  Uiso   1.00
C459   C     0.30806   0.87715   0.47747   0.00000  Uiso   1.00
C460   C     0.04771   0.78946   0.41378   0.00000  Uiso   1.00
C461   C     0.07628   0.85744   0.06949   0.00000  Uiso   1.00
C462   C     0.18293   0.83628   0.01373   0.00000  Uiso   1.00
C463   C     0.23049   0.84312   0.48270   0.00000  Uiso   1.00
C464   C     0.24473   0.83014   0.42928   0.00000  Uiso   1.00
C465   C     0.21156   0.81474   0.40764   0.00000  Uiso   1.00
C466   C     0.17387   0.82909   0.06693   0.00000  Uiso   1.00
C467   C     0.25115   0.85388   0.06294   0.00000  Uiso   1.00
H468   H     0.27556   0.86360   0.08344   0.00000  Uiso   1.00
H469   H     0.14762   0.92151   0.15745   0.00000  Uiso   1.00
H470   H     0.00956   0.78321   0.12924   0.00000  Uiso   1.00
H471   H     0.05782   0.88385   0.31544   0.00000  Uiso   1.00
H472   H     0.22861   0.89267   0.32287   0.00000  Uiso   1.00
H473   H     0.31847   0.87914   0.43465   0.00000  Uiso   1.00
H474   H     0.05966   0.77871   0.37235   0.00000  Uiso   1.00
H475   H     0.04071   0.85064   0.09449   0.00000  Uiso   1.00
H476   H     0.06307   0.79287   0.18228   0.00000  Uiso   1.00
H477   H     0.28170   0.82791   0.40535   0.00000  Uiso   1.00
H478   H     0.14085   0.81514   0.08909   0.00000  Uiso   1.00
H479   H     0.02925   0.81495   0.01666   0.00000  Uiso   1.00
H480   H     0.22547   0.79777   0.36975   0.00000  Uiso   1.00
H481   H     0.17775   0.96100   0.32334   0.00000  Uiso   1.00
H482   H     0.17626   0.74449   0.34457   0.00000  Uiso   1.00
H483   H     0.12998   0.69575   0.15181   0.00000  Uiso   1.00
N484   N     0.04760   0.83334   0.25001   0.00000  Uiso   1.00
N485   N     0.28573   0.83331   0.25000   0.00000  Uiso   1.00
O486   O     0.12846   0.89442   0.25000   0.00000  Uiso   1.00
O487   O     0.15150   0.71142   0.16677   0.00000  Uiso   1.00
O488   O     0.17713   0.96731   0.11061   0.00000  Uiso   1.00
O489   O     0.27856   0.76675   0.17133   0.00000  Uiso   1.00
O490   O     0.02351   0.88086   0.32594   0.00000  Uiso   1.00
O491   O     0.27394   0.91023   0.35707   0.00000  Uiso   1.00
O492   O     0.33325   0.89333   0.00048   0.00000  Uiso   1.00
O493   O     0.00691   0.78279   0.44043   0.00000  Uiso   1.00
O494   O     0.09670   0.88643   0.08309   0.00000  Uiso   1.00
O495   O     0.20490   0.89441   0.25000   0.00000  Uiso   1.00
O496   O     0.10947   0.83333   0.32681   0.00000  Uiso   1.00
O497   O     0.18591   0.83332   0.32681   0.00000  Uiso   1.00
O498   O     0.12843   0.77226   0.24999   0.00000  Uiso   1.00
O499   O     0.20488   0.77225   0.24999   0.00000  Uiso   1.00
O500   O     0.14742   0.83335   0.17319   0.00000  Uiso   1.00
O501   O     0.22387   0.83334   0.17319   0.00000  Uiso   1.00
O502   O     0.18979   0.69167   0.37432   0.00000  Uiso   1.00
Zn503  Zn    0.11562   0.83334   0.25000   0.00000  Uiso   1.00
Zn504  Zn    0.21771   0.83333   0.25000   0.00000  Uiso   1.00
C505   C     0.50011   0.91302   0.24872   0.00000  Uiso   1.00
C506   C     0.46125   0.81814   0.40795   0.00000  Uiso   1.00
C507   C     0.50686   0.97840   0.29067   0.00000  Uiso   1.00
C508   C     0.47462   0.82802   0.35089   0.00000  Uiso   1.00
C509   C     0.50775   0.68823   0.29238   0.00000  Uiso   1.00
C510   C     0.50080   0.70921   0.24966   0.00000  Uiso   1.00
C511   C     0.49321   0.68810   0.20597   0.00000  Uiso   1.00
C512   C     0.49466   0.97754   0.20349   0.00000  Uiso   1.00
C513   C     0.49997   0.95711   0.24738   0.00000  Uiso   1.00
C514   C     0.65485   0.81042   0.21191   0.00000  Uiso   1.00
C515   C     0.36890   0.81085   0.21234   0.00000  Uiso   1.00
C516   C     0.48066   0.83096   0.48953   0.00000  Uiso   1.00
C517   C     0.34628   0.85709   0.28726   0.00000  Uiso   1.00
C518   C     0.63189   0.85811   0.28664   0.00000  Uiso   1.00
C519   C     0.50014   0.75353   0.25035   0.00000  Uiso   1.00
C520   C     0.52595   0.83410   0.14870   0.00000  Uiso   1.00
C521   C     0.59661   0.85703   0.00766   0.00000  Uiso   1.00
C522   C     0.54066   0.83782   0.09170   0.00000  Uiso   1.00
C523   C     0.41421   0.80932   0.43824   0.00000  Uiso   1.00
C524   C     0.39953   0.81791   0.49327   0.00000  Uiso   1.00
C525   C     0.43101   0.83403   0.01773   0.00000  Uiso   1.00
C526   C     0.51371   0.71074   0.33974   0.00000  Uiso   1.00
C527   C     0.49568   0.82120   0.43443   0.00000  Uiso   1.00
C528   C     0.49419   0.95309   0.15475   0.00000  Uiso   1.00
C529   C     0.64759   0.78617   0.16686   0.00000  Uiso   1.00
C530   C     0.59707   0.88839   0.32392   0.00000  Uiso   1.00
C531   C     0.64140   0.87715   0.47747   0.00000  Uiso   1.00
C532   C     0.38104   0.78946   0.41378   0.00000  Uiso   1.00
C533   C     0.40962   0.85744   0.06949   0.00000  Uiso   1.00
C534   C     0.51627   0.83628   0.01373   0.00000  Uiso   1.00
C535   C     0.56383   0.84312   0.48270   0.00000  Uiso   1.00
C536   C     0.57807   0.83014   0.42928   0.00000  Uiso   1.00
C537   C     0.54490   0.81474   0.40764   0.00000  Uiso   1.00
C538   C     0.50720   0.82909   0.06693   0.00000  Uiso   1.00
C539   C     0.58448   0.85388   0.06294   0.00000  Uiso   1.00
H540   H     0.60889   0.86360   0.08344   0.00000  Uiso   1.00
H541   H     0.48096   0.92151   0.15745   0.00000  Uiso   1.00
H542   H     0.34290   0.78321   0.12924   0.00000  Uiso   1.00
H543   H     0.39115   0.88385   0.31544   0.00000  Uiso   1.00
H544   H     0.56194   0.89267   0.32287   0.00000  Uiso   1.00
H545   H     0.65180   0.87914   0.43465   0.00000  Uiso   1.00
H546   H     0.39299   0.77871   0.37235   0.00000  Uiso   1.00
H547   H     0.37404   0.85064   0.09449   0.00000  Uiso   1.00
H548   H     0.39641   0.79287   0.18228   0.00000  Uiso   1.00
H549   H     0.61503   0.82791   0.40535   0.00000  Uiso   1.00
H550   H     0.47418   0.81514   0.08909   0.00000  Uiso   1.00
H551   H     0.36259   0.81495   0.01666   0.00000  Uiso   1.00
H552   H     0.55880   0.79777   0.36975   0.00000  Uiso   1.00
H553   H     0.51108   0.96100   0.32334   0.00000  Uiso   1.00
H554   H     0.50959   0.74449   0.34457   0.00000  Uiso   1.00
H555   H     0.46331   0.69575   0.15181   0.00000  Uiso   1.00
N556   N     0.38093   0.83334   0.25001   0.00000  Uiso   1.00
N557   N     0.61906   0.83331   0.25000   0.00000  Uiso   1.00
O558   O     0.46179   0.89442   0.25000   0.00000  Uiso   1.00
O559   O     0.48483   0.71142   0.16677   0.00000  Uiso   1.00
O560   O     0.51047   0.96731   0.11061   0.00000  Uiso   1.00
O561   O     0.61189   0.76675   0.17133   0.00000  Uiso   1.00
O562   O     0.35684   0.88086   0.32594   0.00000  Uiso   1.00
O563   O     0.60728   0.91023   0.35707   0.00000  Uiso   1.00
O564   O     0.66658   0.89333   0.00048   0.00000  Uiso   1.00
O565   O     0.34024   0.78279   0.44043   0.00000  Uiso   1.00
O566   O     0.43003   0.88643   0.08309   0.00000  Uiso   1.00
O567   O     0.53823   0.89441   0.25000   0.00000  Uiso   1.00
O568   O     0.44280   0.83333   0.32681   0.00000  Uiso   1.00
O569   O     0.51924   0.83332   0.32681   0.00000  Uiso   1.00
O570   O     0.46177   0.77226   0.24999   0.00000  Uiso   1.00
O571   O     0.53821   0.77225   0.24999   0.00000  Uiso   1.00
O572   O     0.48076   0.83335   0.17319   0.00000  Uiso   1.00
O573   O     0.55720   0.83334   0.17319   0.00000  Uiso   1.00
O574   O     0.52312   0.69167   0.37432   0.00000  Uiso   1.00
Zn575  Zn    0.44896   0.83334   0.25000   0.00000  Uiso   1.00
Zn576  Zn    0.55104   0.83333   0.25000   0.00000  Uiso   1.00
C577   C     0.83345   0.91302   0.24872   0.00000  Uiso   1.00
C578   C     0.79458   0.81814   0.40795   0.00000  Uiso   1.00
C579   C     0.84019   0.97840   0.29067   0.00000  Uiso   1.00
C580   C     0.80796   0.82802   0.35089   0.00000  Uiso   1.00
C581   C     0.84108   0.68823   0.29238   0.00000  Uiso   1.00
C582   C     0.83413   0.70921   0.24966   0.00000  Uiso   1.00
C583   C     0.82654   0.68810   0.20597   0.00000  Uiso   1.00
C584   C     0.82800   0.97754   0.20349   0.00000  Uiso   1.00
C585   C     0.83330   0.95711   0.24738   0.00000  Uiso   1.00
C586   C     0.98819   0.81042   0.21191   0.00000  Uiso   1.00
C587   C     0.70223   0.81085   0.21234   0.00000  Uiso   1.00
C588   C     0.81400   0.83096   0.48953   0.00000  Uiso   1.00
C589   C     0.67961   0.85709   0.28726   0.00000  Uiso   1.00
C590   C     0.96523   0.85811   0.28664   0.00000  Uiso   1.00
C591   C     0.83347   0.75353   0.25035   0.00000  Uiso   1.00
C592   C     0.85928   0.83410   0.14870   0.00000  Uiso   1.00
C593   C     0.92994   0.85703   0.00766   0.00000  Uiso   1.00
C594   C     0.87399   0.83782   0.09170   0.00000  Uiso   1.00
C595   C     0.74754   0.80932   0.43824   0.00000  Uiso   1.00
C596   C     0.73286   0.81791   0.49327   0.00000  Uiso   1.00
C597   C     0.76435   0.83403   0.01773   0.00000  Uiso   1.00
C598   C     0.84705   0.71074   0.33974   0.00000  Uiso   1.00
C599   C     0.82901   0.82120   0.43443   0.00000  Uiso   1.00
C600   C     0.82752   0.95309   0.15475   0.00000  Uiso   1.00
C601   C     0.98092   0.78617   0.16686   0.00000  Uiso   1.00
C602   C     0.93041   0.88839   0.32392   0.00000  Uiso   1.00
C603   C     0.97473   0.87715   0.47747   0.00000  Uiso   1.00
C604   C     0.71438   0.78946   0.41378   0.00000  Uiso   1.00
C605   C     0.74295   0.85744   0.06949   0.00000  Uiso   1.00
C606   C     0.84960   0.83628   0.01373   0.00000  Uiso   1.00
C607   C     0.89716   0.84312   0.48270   0.00000  Uiso   1.00
C608   C     0.91140   0.83014   0.42928   0.00000  Uiso   1.00
C609   C     0.87823   0.81474   0.40764   0.00000  Uiso   1.00
C610   C     0.84053   0.82909   0.06693   0.00000  Uiso   1.00
C611   C     0.91781   0.85388   0.06294   0.00000  Uiso   1.00
H612   H     0.94223   0.86360   0.08344   0.00000  Uiso   1.00
H613   H     0.81429   0.92151   0.15745   0.00000  Uiso   1.00
H614   H     0.67623   0.78321   0.12924   0.00000  Uiso   1.00
H615   H     0.72448   0.88385   0.31544   0.00000  Uiso   1.00
H616   H     0.89527   0.89267   0.32287   0.00000  Uiso   1.00
H617   H     0.98513   0.87914   0.43465   0.00000  Uiso   1.00
H618   H     0.72632   0.77871   0.37235   0.00000  Uiso   1.00
H619   H     0.70737   0.85064   0.09449   0.00000  Uiso   1.00
H620   H     0.72974   0.79287   0.18228   0.00000  Uiso   1.00
H621   H     0.94837   0.82791   0.40535   0.00000  Uiso   1.00
H622   H     0.80751   0.81514   0.08909   0.00000  Uiso   1.00
H623   H     0.69592   0.81495   0.01666   0.00000  Uiso   1.00
H624   H     0.89213   0.79777   0.36975   0.00000  Uiso   1.00
H625   H     0.84442   0.96100   0.32334   0.00000  Uiso   1.00
H626   H     0.84293   0.74449   0.34457   0.00000  Uiso   1.00
H627   H     0.79665   0.69575   0.15181   0.00000  Uiso   1.00
N628   N     0.71426   0.83334   0.25001   0.00000  Uiso   1.00
N629   N     0.95239   0.83331   0.25000   0.00000  Uiso   1.00
O630   O     0.79512   0.89442   0.25000   0.00000  Uiso   1.00
O631   O     0.81817   0.71142   0.16677   0.00000  Uiso   1.00
O632   O     0.84380   0.96731   0.11061   0.00000  Uiso   1.00
O633   O     0.94522   0.76675   0.17133   0.00000  Uiso   1.00
O634   O     0.69018   0.88086   0.32594   0.00000  Uiso   1.00
O635   O     0.94061   0.91023   0.35707   0.00000  Uiso   1.00
O636   O     0.99992   0.89333   0.00048   0.00000  Uiso   1.00
O637   O     0.67358   0.78279   0.44043   0.00000  Uiso   1.00
O638   O     0.76336   0.88643   0.08309   0.00000  Uiso   1.00
O639   O     0.87157   0.89441   0.25000   0.00000  Uiso   1.00
O640   O     0.77613   0.83333   0.32681   0.00000  Uiso   1.00
O641   O     0.85258   0.83332   0.32681   0.00000  Uiso   1.00
O642   O     0.79510   0.77226   0.24999   0.00000  Uiso   1.00
O643   O     0.87154   0.77225   0.24999   0.00000  Uiso   1.00
O644   O     0.81409   0.83335   0.17319   0.00000  Uiso   1.00
O645   O     0.89053   0.83334   0.17319   0.00000  Uiso   1.00
O646   O     0.85646   0.69167   0.37432   0.00000  Uiso   1.00
Zn647  Zn    0.78229   0.83334   0.25000   0.00000  Uiso   1.00
Zn648  Zn    0.88438   0.83333   0.25000   0.00000  Uiso   1.00
C649   C     0.16678   0.24635   0.74872   0.00000  Uiso   1.00
C650   C     0.12792   0.15148   0.90795   0.00000  Uiso   1.00
C651   C     0.17353   0.31174   0.79067   0.00000  Uiso   1.00
C652   C     0.14129   0.16136   0.85089   0.00000  Uiso   1.00
C653   C     0.17441   0.02157   0.79238   0.00000  Uiso   1.00
C654   C     0.16746   0.04254   0.74966   0.00000  Uiso   1.00
C655   C     0.15987   0.02144   0.70597   0.00000  Uiso   1.00
C656   C     0.16133   0.31087   0.70349   0.00000  Uiso   1.00
C657   C     0.16663   0.29044   0.74738   0.00000  Uiso   1.00
C658   C     0.32152   0.14375   0.71191   0.00000  Uiso   1.00
C659   C     0.03556   0.14419   0.71234   0.00000  Uiso   1.00
C660   C     0.14733   0.16429   0.98953   0.00000  Uiso   1.00
C661   C     0.01295   0.19042   0.78726   0.00000  Uiso   1.00
C662   C     0.29856   0.19144   0.78664   0.00000  Uiso   1.00
C663   C     0.16681   0.08687   0.75035   0.00000  Uiso   1.00
C664   C     0.19261   0.16743   0.64870   0.00000  Uiso   1.00
C665   C     0.26327   0.19037   0.50766   0.00000  Uiso   1.00
C666   C     0.20733   0.17115   0.59170   0.00000  Uiso   1.00
C667   C     0.08088   0.14265   0.93824   0.00000  Uiso   1.00
C668   C     0.06619   0.15125   0.99327   0.00000  Uiso   1.00
C669   C     0.09768   0.16736   0.51773   0.00000  Uiso   1.00
C670   C     0.18038   0.04407   0.83974   0.00000  Uiso   1.00
C671   C     0.16235   0.15453   0.93443   0.00000  Uiso   1.00
C672   C     0.16085   0.28642   0.65475   0.00000  Uiso   1.00
C673   C     0.31425   0.11950   0.66686   0.00000  Uiso   1.00
C674   C     0.26374   0.22172   0.82392   0.00000  Uiso   1.00
C675   C     0.30806   0.21048   0.97747   0.00000  Uiso   1.00
C676   C     0.04771   0.12279   0.91378   0.00000  Uiso   1.00
C677   C     0.07628   0.19078   0.56949   0.00000  Uiso   1.00
C678   C     0.18293   0.16961   0.51373   0.00000  Uiso   1.00
C679   C     0.23049   0.17646   0.98270   0.00000  Uiso   1.00
C680   C     0.24473   0.16347   0.92928   0.00000  Uiso   1.00
C681   C     0.21156   0.14807   0.90764   0.00000  Uiso   1.00
C682   C     0.17387   0.16242   0.56693   0.00000  Uiso   1.00
C683   C     0.25115   0.18721   0.56294   0.00000  Uiso   1.00
H684   H     0.27556   0.19693   0.58344   0.00000  Uiso   1.00
H685   H     0.14762   0.25484   0.65745   0.00000  Uiso   1.00
H686   H     0.00956   0.11654   0.62924   0.00000  Uiso   1.00
H687   H     0.05782   0.21718   0.81544   0.00000  Uiso   1.00
H688   H     0.22861   0.22600   0.82287   0.00000  Uiso   1.00
H689   H     0.31847   0.21248   0.93465   0.00000  Uiso   1.00
H690   H     0.05966   0.11205   0.87235   0.00000  Uiso   1.00
H691   H     0.04071   0.18397   0.59449   0.00000  Uiso   1.00
H692   H     0.06307   0.12620   0.68228   0.00000  Uiso   1.00
H693   H     0.28170   0.16124   0.90535   0.00000  Uiso   1.00
H694   H     0.14085   0.14847   0.58909   0.00000  Uiso   1.00
H695   H     0.02925   0.14828   0.51666   0.00000  Uiso   1.00
H696   H     0.22547   0.13110   0.86975   0.00000  Uiso   1.00
H697   H     0.17775   0.29434   0.82334   0.00000  Uiso   1.00
H698   H     0.17626   0.07782   0.84457   0.00000  Uiso   1.00
H699   H     0.12998   0.02909   0.65181   0.00000  Uiso   1.00
N700   N     0.04760   0.16668   0.75001   0.00000  Uiso   1.00
N701   N     0.28573   0.16665   0.75000   0.00000  Uiso   1.00
O702   O     0.12846   0.22775   0.75000   0.00000  Uiso   1.00
O703   O     0.15150   0.04476   0.66677   0.00000  Uiso   1.00
O704   O     0.17713   0.30065   0.61061   0.00000  Uiso   1.00
O705   O     0.27856   0.10008   0.67133   0.00000  Uiso   1.00
O706   O     0.02351   0.21419   0.82594   0.00000  Uiso   1.00
O707   O     0.27394   0.24356   0.85707   0.00000  Uiso   1.00
O708   O     0.33325   0.22666   0.50048   0.00000  Uiso   1.00
O709   O     0.00691   0.11612   0.94043   0.00000  Uiso   1.00
O710   O     0.09670   0.21976   0.58309   0.00000  Uiso   1.00
O711   O     0.20490   0.22774   0.75000   0.00000  Uiso   1.00
O712   O     0.10947   0.16666   0.82681   0.00000  Uiso   1.00
O713   O     0.18591   0.16665   0.82681   0.00000  Uiso   1.00
O714   O     0.12843   0.10559   0.74999   0.00000  Uiso   1.00
O715   O     0.20488   0.10558   0.74999   0.00000  Uiso   1.00
O716   O     0.14742   0.16668   0.67319   0.00000  Uiso   1.00
O717   O     0.22387   0.16667   0.67319   0.00000  Uiso   1.00
O718   O     0.18979   0.02500   0.87432   0.00000  Uiso   1.00
Zn719  Zn    0.11562   0.16667   0.75000   0.00000  Uiso   1.00
Zn720  Zn    0.21771   0.16666   0.75000   0.00000  Uiso   1.00
C721   C     0.50011   0.24635   0.74872   0.00000  Uiso   1.00
C722   C     0.46125   0.15148   0.90795   0.00000  Uiso   1.00
C723   C     0.50686   0.31174   0.79067   0.00000  Uiso   1.00
C724   C     0.47462   0.16136   0.85089   0.00000  Uiso   1.00
C725   C     0.50775   0.02157   0.79238   0.00000  Uiso   1.00
C726   C     0.50080   0.04254   0.74966   0.00000  Uiso   1.00
C727   C     0.49321   0.02144   0.70597   0.00000  Uiso   1.00
C728   C     0.49466   0.31087   0.70349   0.00000  Uiso   1.00
C729   C     0.49997   0.29044   0.74738   0.00000  Uiso   1.00
C730   C     0.65485   0.14375   0.71191   0.00000  Uiso   1.00
C731   C     0.36890   0.14419   0.71234   0.00000  Uiso   1.00
C732   C     0.48066   0.16429   0.98953   0.00000  Uiso   1.00
C733   C     0.34628   0.19042   0.78726   0.00000  Uiso   1.00
C734   C     0.63189   0.19144   0.78664   0.00000  Uiso   1.00
C735   C     0.50014   0.08687   0.75035   0.00000  Uiso   1.00
C736   C     0.52595   0.16743   0.64870   0.00000  Uiso   1.00
C737   C     0.59661   0.19037   0.50766   0.00000  Uiso   1.00
C738   C     0.54066   0.17115   0.59170   0.00000  Uiso   1.00
C739   C     0.41421   0.14265   0.93824   0.00000  Uiso   1.00
C740   C     0.39953   0.15125   0.99327   0.00000  Uiso   1.00
C741   C     0.43101   0.16736   0.51773   0.00000  Uiso   1.00
C742   C     0.51371   0.04407   0.83974   0.00000  Uiso   1.00
C743   C     0.49568   0.15453   0.93443   0.00000  Uiso   1.00
C744   C     0.49419   0.28642   0.65475   0.00000  Uiso   1.00
C745   C     0.64759   0.11950   0.66686   0.00000  Uiso   1.00
C746   C     0.59707   0.22172   0.82392   0.00000  Uiso   1.00
C747   C     0.64140   0.21048   0.97747   0.00000  Uiso   1.00
C748   C     0.38104   0.12279   0.91378   0.00000  Uiso   1.00
C749   C     0.40962   0.19078   0.56949   0.00000  Uiso   1.00
C750   C     0.51627   0.16961   0.51373   0.00000  Uiso   1.00
C751   C     0.56383   0.17646   0.98270   0.00000  Uiso   1.00
C752   C     0.57807   0.16347   0.92928   0.00000  Uiso   1.00
C753   C     0.54490   0.14807   0.90764   0.00000  Uiso   1.00
C754   C     0.50720   0.16242   0.56693   0.00000  Uiso   1.00
C755   C     0.58448   0.18721   0.56294   0.00000  Uiso   1.00
H756   H     0.60889   0.19693   0.58344   0.00000  Uiso   1.00
H757   H     0.48096   0.25484   0.65745   0.00000  Uiso   1.00
H758   H     0.34290   0.11654   0.62924   0.00000  Uiso   1.00
H759   H     0.39115   0.21718   0.81544   0.00000  Uiso   1.00
H760   H     0.56194   0.22600   0.82287   0.00000  Uiso   1.00
H761   H     0.65180   0.21248   0.93465   0.00000  Uiso   1.00
H762   H     0.39299   0.11205   0.87235   0.00000  Uiso   1.00
H763   H     0.37404   0.18397   0.59449   0.00000  Uiso   1.00
H764   H     0.39641   0.12620   0.68228   0.00000  Uiso   1.00
H765   H     0.61503   0.16124   0.90535   0.00000  Uiso   1.00
H766   H     0.47418   0.14847   0.58909   0.00000  Uiso   1.00
H767   H     0.36259   0.14828   0.51666   0.00000  Uiso   1.00
H768   H     0.55880   0.13110   0.86975   0.00000  Uiso   1.00
H769   H     0.51108   0.29434   0.82334   0.00000  Uiso   1.00
H770   H     0.50959   0.07782   0.84457   0.00000  Uiso   1.00
H771   H     0.46331   0.02909   0.65181   0.00000  Uiso   1.00
N772   N     0.38093   0.16668   0.75001   0.00000  Uiso   1.00
N773   N     0.61906   0.16665   0.75000   0.00000  Uiso   1.00
O774   O     0.46179   0.22775   0.75000   0.00000  Uiso   1.00
O775   O     0.48483   0.04476   0.66677   0.00000  Uiso   1.00
O776   O     0.51047   0.30065   0.61061   0.00000  Uiso   1.00
O777   O     0.61189   0.10008   0.67133   0.00000  Uiso   1.00
O778   O     0.35684   0.21419   0.82594   0.00000  Uiso   1.00
O779   O     0.60728   0.24356   0.85707   0.00000  Uiso   1.00
O780   O     0.66658   0.22666   0.50048   0.00000  Uiso   1.00
O781   O     0.34024   0.11612   0.94043   0.00000  Uiso   1.00
O782   O     0.43003   0.21976   0.58309   0.00000  Uiso   1.00
O783   O     0.53823   0.22774   0.75000   0.00000  Uiso   1.00
O784   O     0.44280   0.16666   0.82681   0.00000  Uiso   1.00
O785   O     0.51924   0.16665   0.82681   0.00000  Uiso   1.00
O786   O     0.46177   0.10559   0.74999   0.00000  Uiso   1.00
O787   O     0.53821   0.10558   0.74999   0.00000  Uiso   1.00
O788   O     0.48076   0.16668   0.67319   0.00000  Uiso   1.00
O789   O     0.55720   0.16667   0.67319   0.00000  Uiso   1.00
O790   O     0.52312   0.02500   0.87432   0.00000  Uiso   1.00
Zn791  Zn    0.44896   0.16667   0.75000   0.00000  Uiso   1.00
Zn792  Zn    0.55104   0.16666   0.75000   0.00000  Uiso   1.00
C793   C     0.83345   0.24635   0.74872   0.00000  Uiso   1.00
C794   C     0.79458   0.15148   0.90795   0.00000  Uiso   1.00
C795   C     0.84019   0.31174   0.79067   0.00000  Uiso   1.00
C796   C     0.80796   0.16136   0.85089   0.00000  Uiso   1.00
C797   C     0.84108   0.02157   0.79238   0.00000  Uiso   1.00
C798   C     0.83413   0.04254   0.74966   0.00000  Uiso   1.00
C799   C     0.82654   0.02144   0.70597   0.00000  Uiso   1.00
C800   C     0.82800   0.31087   0.70349   0.00000  Uiso   1.00
C801   C     0.83330   0.29044   0.74738   0.00000  Uiso   1.00
C802   C     0.98819   0.14375   0.71191   0.00000  Uiso   1.00
C803   C     0.70223   0.14419   0.71234   0.00000  Uiso   1.00
C804   C     0.81400   0.16429   0.98953   0.00000  Uiso   1.00
C805   C     0.67961   0.19042   0.78726   0.00000  Uiso   1.00
C806   C     0.96523   0.19144   0.78664   0.00000  Uiso   1.00
C807   C     0.83347   0.08687   0.75035   0.00000  Uiso   1.00
C808   C     0.85928   0.16743   0.64870   0.00000  Uiso   1.00
C809   C     0.92994   0.19037   0.50766   0.00000  Uiso   1.00
C810   C     0.87399   0.17115   0.59170   0.00000  Uiso   1.00
C811   C     0.74754   0.14265   0.93824   0.00000  Uiso   1.00
C812   C     0.73286   0.15125   0.99327   0.00000  Uiso   1.00
C813   C     0.76435   0.16736   0.51773   0.00000  Uiso   1.00
C814   C     0.84705   0.04407   0.83974   0.00000  Uiso   1.00
C815   C     0.82901   0.15453   0.93443   0.00000  Uiso   1.00
C816   C     0.82752   0.28642   0.65475   0.00000  Uiso   1.00
C817   C     0.98092   0.11950   0.66686   0.00000  Uiso   1.00
C818   C     0.93041   0.22172   0.82392   0.00000  Uiso   1.00
C819   C     0.97473   0.21048   0.97747   0.00000  Uiso   1.00
C820   C     0.71438   0.12279   0.91378   0.00000  Uiso   1.00
C821   C     0.74295   0.19078   0.56949   0.00000  Uiso   1.00
C822   C     0.84960   0.16961   0.51373   0.00000  Uiso   1.00
C823   C     0.89716   0.17646   0.98270   0.00000  Uiso   1.00
C824   C     0.91140   0.16347   0.92928   0.00000  Uiso   1.00
C825   C     0.87823   0.14807   0.90764   0.00000  Uiso   1.00
C826   C     0.84053   0.16242   0.56693   0.00000  Uiso   1.00
C827   C     0.91781   0.18721   0.56294   0.00000  Uiso   1.00
H828   H     0.94223   0.19693   0.58344   0.00000  Uiso   1.00
H829   H     0.81429   0.25484   0.65745   0.00000  Uiso   1.00
H830   H     0.67623   0.11654   0.62924   0.00000  Uiso   1.00
H831   H     0.72448   0.21718   0.81544   0.00000  Uiso   1.00
H832   H     0.89527   0.22600   0.82287   0.00000  Uiso   1.00
H833   H     0.98513   0.21248   0.93465   0.00000  Uiso   1.00
H834   H     0.72632   0.11205   0.87235   0.00000  Uiso   1.00
H835   H     0.70737   0.18397   0.59449   0.00000  Uiso   1.00
H836   H     0.72974   0.12620   0.68228   0.00000  Uiso   1.00
H837   H     0.94837   0.16124   0.90535   0.00000  Uiso   1.00
H838   H     0.80751   0.14847   0.58909   0.00000  Uiso   1.00
H839   H     0.69592   0.14828   0.51666   0.00000  Uiso   1.00
H840   H     0.89213   0.13110   0.86975   0.00000  Uiso   1.00
H841   H     0.84442   0.29434   0.82334   0.00000  Uiso   1.00
H842   H     0.84293   0.07782   0.84457   0.00000  Uiso   1.00
H843   H     0.79665   0.02909   0.65181   0.00000  Uiso   1.00
N844   N     0.71426   0.16668   0.75001   0.00000  Uiso   1.00
N845   N     0.95239   0.16665   0.75000   0.00000  Uiso   1.00
O846   O     0.79512   0.22775   0.75000   0.00000  Uiso   1.00
O847   O     0.81817   0.04476   0.66677   0.00000  Uiso   1.00
O848   O     0.84380   0.30065   0.61061   0.00000  Uiso   1.00
O849   O     0.94522   0.10008   0.67133   0.00000  Uiso   1.00
O850   O     0.69018   0.21419   0.82594   0.00000  Uiso   1.00
O851   O     0.94061   0.24356   0.85707   0.00000  Uiso   1.00
O852   O     0.99992   0.22666   0.50048   0.00000  Uiso   1.00
O853   O     0.67358   0.11612   0.94043   0.00000  Uiso   1.00
O854   O     0.76336   0.21976   0.58309   0.00000  Uiso   1.00
O855   O     0.87157   0.22774   0.75000   0.00000  Uiso   1.00
O856   O     0.77613   0.16666   0.82681   0.00000  Uiso   1.00
O857   O     0.85258   0.16665   0.82681   0.00000  Uiso   1.00
O858   O     0.79510   0.10559   0.74999   0.00000  Uiso   1.00
O859   O     0.87154   0.10558   0.74999   0.00000  Uiso   1.00
O860   O     0.81409   0.16668   0.67319   0.00000  Uiso   1.00
O861   O     0.89053   0.16667   0.67319   0.00000  Uiso   1.00
O862   O     0.85646   0.02500   0.87432   0.00000  Uiso   1.00
Zn863  Zn    0.78229   0.16667   0.75000   0.00000  Uiso   1.00
Zn864  Zn    0.88438   0.16666   0.75000   0.00000  Uiso   1.00
C865   C     0.16678   0.57969   0.74872   0.00000  Uiso   1.00
C866   C     0.12792   0.48481   0.90795   0.00000  Uiso   1.00
C867   C     0.17353   0.64507   0.79067   0.00000  Uiso   1.00
C868   C     0.14129   0.49469   0.85089   0.00000  Uiso   1.00
C869   C     0.17441   0.35490   0.79238   0.00000  Uiso   1.00
C870   C     0.16746   0.37587   0.74966   0.00000  Uiso   1.00
C871   C     0.15987   0.35477   0.70597   0.00000  Uiso   1.00
C872   C     0.16133   0.64420   0.70349   0.00000  Uiso   1.00
C873   C     0.16663   0.62377   0.74738   0.00000  Uiso   1.00
C874   C     0.32152   0.47709   0.71191   0.00000  Uiso   1.00
C875   C     0.03556   0.47752   0.71234   0.00000  Uiso   1.00
C876   C     0.14733   0.49763   0.98953   0.00000  Uiso   1.00
C877   C     0.01295   0.52376   0.78726   0.00000  Uiso   1.00
C878   C     0.29856   0.52477   0.78664   0.00000  Uiso   1.00
C879   C     0.16681   0.42020   0.75035   0.00000  Uiso   1.00
C880   C     0.19261   0.50077   0.64870   0.00000  Uiso   1.00
C881   C     0.26327   0.52370   0.50766   0.00000  Uiso   1.00
C882   C     0.20733   0.50449   0.59170   0.00000  Uiso   1.00
C883   C     0.08088   0.47599   0.93824   0.00000  Uiso   1.00
C884   C     0.06619   0.48458   0.99327   0.00000  Uiso   1.00
C885   C     0.09768   0.50070   0.51773   0.00000  Uiso   1.00
C886   C     0.18038   0.37741   0.83974   0.00000  Uiso   1.00
C887   C     0.16235   0.48786   0.93443   0.00000  Uiso   1.00
C888   C     0.16085   0.61975   0.65475   0.00000  Uiso   1.00
C889   C     0.31425   0.45284   0.66686   0.00000  Uiso   1.00
C890   C     0.26374   0.55505   0.82392   0.00000  Uiso   1.00
C891   C     0.30806   0.54382   0.97747   0.00000  Uiso   1.00
C892   C     0.04771   0.45612   0.91378   0.00000  Uiso   1.00
C893   C     0.07628   0.52411   0.56949   0.00000  Uiso   1.00
C894   C     0.18293   0.50295   0.51373   0.00000  Uiso   1.00
C895   C     0.23049   0.50979   0.98270   0.00000  Uiso   1.00
C896   C     0.24473   0.49680   0.92928   0.00000  Uiso   1.00
C897   C     0.21156   0.48140   0.90764   0.00000  Uiso   1.00
C898   C     0.17387   0.49575   0.56693   0.00000  Uiso   1.00
C899   C     0.25115   0.52055   0.56294   0.00000  Uiso   1.00
H900   H     0.27556   0.53027   0.58344   0.00000  Uiso   1.00
H901   H     0.14762   0.58817   0.65745   0.00000  Uiso   1.00
H902   H     0.00956   0.44987   0.62924   0.00000  Uiso   1.00
H903   H     0.05782   0.55051   0.81544   0.00000  Uiso   1.00
H904   H     0.22861   0.55934   0.82287   0.00000  Uiso   1.00
H905   H     0.31847   0.54581   0.93465   0.00000  Uiso   1.00
H906   H     0.05966   0.44538   0.87235   0.00000  Uiso   1.00
H907   H     0.04071   0.51730   0.59449   0.00000  Uiso   1.00
H908   H     0.06307   0.45953   0.68228   0.00000  Uiso   1.00
H909   H     0.28170   0.49458   0.90535   0.00000  Uiso   1.00
H910   H     0.14085   0.48180   0.58909   0.00000  Uiso   1.00
H911   H     0.02925   0.48162   0.51666   0.00000  Uiso   1.00
H912   H     0.22547   0.46443   0.86975   0.00000  Uiso   1.00
H913   H     0.17775   0.62767   0.82334   0.00000  Uiso   1.00
H914   H     0.17626   0.41116   0.84457   0.00000  Uiso   1.00
H915   H     0.12998   0.36242   0.65181   0.00000  Uiso   1.00
N916   N     0.04760   0.50001   0.75001   0.00000  Uiso   1.00
N917   N     0.28573   0.49998   0.75000   0.00000  Uiso   1.00
O918   O     0.12846   0.56108   0.75000   0.00000  Uiso   1.00
O919   O     0.15150   0.37809   0.66677   0.00000  Uiso   1.00
O920   O     0.17713   0.63398   0.61061   0.00000  Uiso   1.00
O921   O     0.27856   0.43341   0.67133   0.00000  Uiso   1.00
O922   O     0.02351   0.54752   0.82594   0.00000  Uiso   1.00
O923   O     0.27394   0.57689   0.85707   0.00000  Uiso   1.00
O924   O     0.33325   0.56000   0.50048   0.00000  Uiso   1.00
O925   O     0.00691   0.44946   0.94043   0.00000  Uiso   1.00
O926   O     0.09670   0.55309   0.58309   0.00000  Uiso   1.00
O927   O     0.20490   0.56107   0.75000   0.00000  Uiso   1.00
O928   O     0.10947   0.50000   0.82681   0.00000  Uiso   1.00
O929   O     0.18591   0.49999   0.82681   0.00000  Uiso   1.00
O930   O     0.12843   0.43893   0.74999   0.00000  Uiso   1.00
O931   O     0.20488   0.43892   0.74999   0.00000  Uiso   1.00
O932   O     0.14742   0.50001   0.67319   0.00000  Uiso   1.00
O933   O     0.22387   0.50000   0.67319   0.00000  Uiso   1.00
O934   O     0.18979   0.35834   0.87432   0.00000  Uiso   1.00
Zn935  Zn    0.11562   0.50001   0.75000   0.00000  Uiso   1.00
Zn936  Zn    0.21771   0.49999   0.75000   0.00000  Uiso   1.00
C937   C     0.50011   0.57969   0.74872   0.00000  Uiso   1.00
C938   C     0.46125   0.48481   0.90795   0.00000  Uiso   1.00
C939   C     0.50686   0.64507   0.79067   0.00000  Uiso   1.00
C940   C     0.47462   0.49469   0.85089   0.00000  Uiso   1.00
C941   C     0.50775   0.35490   0.79238   0.00000  Uiso   1.00
C942   C     0.50080   0.37587   0.74966   0.00000  Uiso   1.00
C943   C     0.49321   0.35477   0.70597   0.00000  Uiso   1.00
C944   C     0.49466   0.64420   0.70349   0.00000  Uiso   1.00
C945   C     0.49997   0.62377   0.74738   0.00000  Uiso   1.00
C946   C     0.65485   0.47709   0.71191   0.00000  Uiso   1.00
C947   C     0.36890   0.47752   0.71234   0.00000  Uiso   1.00
C948   C     0.48066   0.49763   0.98953   0.00000  Uiso   1.00
C949   C     0.34628   0.52376   0.78726   0.00000  Uiso   1.00
C950   C     0.63189   0.52477   0.78664   0.00000  Uiso   1.00
C951   C     0.50014   0.42020   0.75035   0.00000  Uiso   1.00
C952   C     0.52595   0.50077   0.64870   0.00000  Uiso   1.00
C953   C     0.59661   0.52370   0.50766   0.00000  Uiso   1.00
C954   C     0.54066   0.50449   0.59170   0.00000  Uiso   1.00
C955   C     0.41421   0.47599   0.93824   0.00000  Uiso   1.00
C956   C     0.39953   0.48458   0.99327   0.00000  Uiso   1.00
C957   C     0.43101   0.50070   0.51773   0.00000  Uiso   1.00
C958   C     0.51371   0.37741   0.83974   0.00000  Uiso   1.00
C959   C     0.49568   0.48786   0.93443   0.00000  Uiso   1.00
C960   C     0.49419   0.61975   0.65475   0.00000  Uiso   1.00
C961   C     0.64759   0.45284   0.66686   0.00000  Uiso   1.00
C962   C     0.59707   0.55505   0.82392   0.00000  Uiso   1.00
C963   C     0.64140   0.54382   0.97747   0.00000  Uiso   1.00
C964   C     0.38104   0.45612   0.91378   0.00000  Uiso   1.00
C965   C     0.40962   0.52411   0.56949   0.00000  Uiso   1.00
C966   C     0.51627   0.50295   0.51373   0.00000  Uiso   1.00
C967   C     0.56383   0.50979   0.98270   0.00000  Uiso   1.00
C968   C     0.57807   0.49680   0.92928   0.00000  Uiso   1.00
C969   C     0.54490   0.48140   0.90764   0.00000  Uiso   1.00
C970   C     0.50720   0.49575   0.56693   0.00000  Uiso   1.00
C971   C     0.58448   0.52055   0.56294   0.00000  Uiso   1.00
H972   H     0.60889   0.53027   0.58344   0.00000  Uiso   1.00
H973   H     0.48096   0.58817   0.65745   0.00000  Uiso   1.00
H974   H     0.34290   0.44987   0.62924   0.00000  Uiso   1.00
H975   H     0.39115   0.55051   0.81544   0.00000  Uiso   1.00
H976   H     0.56194   0.55934   0.82287   0.00000  Uiso   1.00
H977   H     0.65180   0.54581   0.93465   0.00000  Uiso   1.00
H978   H     0.39299   0.44538   0.87235   0.00000  Uiso   1.00
H979   H     0.37404   0.51730   0.59449   0.00000  Uiso   1.00
H980   H     0.39641   0.45953   0.68228   0.00000  Uiso   1.00
H981   H     0.61503   0.49458   0.90535   0.00000  Uiso   1.00
H982   H     0.47418   0.48180   0.58909   0.00000  Uiso   1.00
H983   H     0.36259   0.48162   0.51666   0.00000  Uiso   1.00
H984   H     0.55880   0.46443   0.86975   0.00000  Uiso   1.00
H985   H     0.51108   0.62767   0.82334   0.00000  Uiso   1.00
H986   H     0.50959   0.41116   0.84457   0.00000  Uiso   1.00
H987   H     0.46331   0.36242   0.65181   0.00000  Uiso   1.00
N988   N     0.38093   0.50001   0.75001   0.00000  Uiso   1.00
N989   N     0.61906   0.49998   0.75000   0.00000  Uiso   1.00
O990   O     0.46179   0.56108   0.75000   0.00000  Uiso   1.00
O991   O     0.48483   0.37809   0.66677   0.00000  Uiso   1.00
O992   O     0.51047   0.63398   0.61061   0.00000  Uiso   1.00
O993   O     0.61189   0.43341   0.67133   0.00000  Uiso   1.00
O994   O     0.35684   0.54752   0.82594   0.00000  Uiso   1.00
O995   O     0.60728   0.57689   0.85707   0.00000  Uiso   1.00
O996   O     0.66658   0.56000   0.50048   0.00000  Uiso   1.00
O997   O     0.34024   0.44946   0.94043   0.00000  Uiso   1.00
O998   O     0.43003   0.55309   0.58309   0.00000  Uiso   1.00
O999   O     0.53823   0.56107   0.75000   0.00000  Uiso   1.00
O1000  O     0.44280   0.50000   0.82681   0.00000  Uiso   1.00
O1001  O     0.51924   0.49999   0.82681   0.00000  Uiso   1.00
O1002  O     0.46177   0.43893   0.74999   0.00000  Uiso   1.00
O1003  O     0.53821   0.43892   0.74999   0.00000  Uiso   1.00
O1004  O     0.48076   0.50001   0.67319   0.00000  Uiso   1.00
O1005  O     0.55720   0.50000   0.67319   0.00000  Uiso   1.00
O1006  O     0.52312   0.35834   0.87432   0.00000  Uiso   1.00
Zn1007 Zn    0.44896   0.50001   0.75000   0.00000  Uiso   1.00
Zn1008 Zn    0.55104   0.49999   0.75000   0.00000  Uiso   1.00
C1009  C     0.83345   0.57969   0.74872   0.00000  Uiso   1.00
C1010  C     0.79458   0.48481   0.90795   0.00000  Uiso   1.00
C1011  C     0.84019   0.64507   0.79067   0.00000  Uiso   1.00
C1012  C     0.80796   0.49469   0.85089   0.00000  Uiso   1.00
C1013  C     0.84108   0.35490   0.79238   0.00000  Uiso   1.00
C1014  C     0.83413   0.37587   0.74966   0.00000  Uiso   1.00
C1015  C     0.82654   0.35477   0.70597   0.00000  Uiso   1.00
C1016  C     0.82800   0.64420   0.70349   0.00000  Uiso   1.00
C1017  C     0.83330   0.62377   0.74738   0.00000  Uiso   1.00
C1018  C     0.98819   0.47709   0.71191   0.00000  Uiso   1.00
C1019  C     0.70223   0.47752   0.71234   0.00000  Uiso   1.00
C1020  C     0.81400   0.49763   0.98953   0.00000  Uiso   1.00
C1021  C     0.67961   0.52376   0.78726   0.00000  Uiso   1.00
C1022  C     0.96523   0.52477   0.78664   0.00000  Uiso   1.00
C1023  C     0.83347   0.42020   0.75035   0.00000  Uiso   1.00
C1024  C     0.85928   0.50077   0.64870   0.00000  Uiso   1.00
C1025  C     0.92994   0.52370   0.50766   0.00000  Uiso   1.00
C1026  C     0.87399   0.50449   0.59170   0.00000  Uiso   1.00
C1027  C     0.74754   0.47599   0.93824   0.00000  Uiso   1.00
C1028  C     0.73286   0.48458   0.99327   0.00000  Uiso   1.00
C1029  C     0.76435   0.50070   0.51773   0.00000  Uiso   1.00
C1030  C     0.84705   0.37741   0.83974   0.00000  Uiso   1.00
C1031  C     0.82901   0.48786   0.93443   0.00000  Uiso   1.00
C1032  C     0.82752   0.61975   0.65475   0.00000  Uiso   1.00
C1033  C     0.98092   0.45284   0.66686   0.00000  Uiso   1.00
C1034  C     0.93041   0.55505   0.82392   0.00000  Uiso   1.00
C1035  C     0.97473   0.54382   0.97747   0.00000  Uiso   1.00
C1036  C     0.71438   0.45612   0.91378   0.00000  Uiso   1.00
C1037  C     0.74295   0.52411   0.56949   0.00000  Uiso   1.00
C1038  C     0.84960   0.50295   0.51373   0.00000  Uiso   1.00
C1039  C     0.89716   0.50979   0.98270   0.00000  Uiso   1.00
C1040  C     0.91140   0.49680   0.92928   0.00000  Uiso   1.00
C1041  C     0.87823   0.48140   0.90764   0.00000  Uiso   1.00
C1042  C     0.84053   0.49575   0.56693   0.00000  Uiso   1.00
C1043  C     0.91781   0.52055   0.56294   0.00000  Uiso   1.00
H1044  H     0.94223   0.53027   0.58344   0.00000  Uiso   1.00
H1045  H     0.81429   0.58817   0.65745   0.00000  Uiso   1.00
H1046  H     0.67623   0.44987   0.62924   0.00000  Uiso   1.00
H1047  H     0.72448   0.55051   0.81544   0.00000  Uiso   1.00
H1048  H     0.89527   0.55934   0.82287   0.00000  Uiso   1.00
H1049  H     0.98513   0.54581   0.93465   0.00000  Uiso   1.00
H1050  H     0.72632   0.44538   0.87235   0.00000  Uiso   1.00
H1051  H     0.70737   0.51730   0.59449   0.00000  Uiso   1.00
H1052  H     0.72974   0.45953   0.68228   0.00000  Uiso   1.00
H1053  H     0.94837   0.49458   0.90535   0.00000  Uiso   1.00
H1054  H     0.80751   0.48180   0.58909   0.00000  Uiso   1.00
H1055  H     0.69592   0.48162   0.51666   0.00000  Uiso   1.00
H1056  H     0.89213   0.46443   0.86975   0.00000  Uiso   1.00
H1057  H     0.84442   0.62767   0.82334   0.00000  Uiso   1.00
H1058  H     0.84293   0.41116   0.84457   0.00000  Uiso   1.00
H1059  H     0.79665   0.36242   0.65181   0.00000  Uiso   1.00
N1060  N     0.71426   0.50001   0.75001   0.00000  Uiso   1.00
N1061  N     0.95239   0.49998   0.75000   0.00000  Uiso   1.00
O1062  O     0.79512   0.56108   0.75000   0.00000  Uiso   1.00
O1063  O     0.81817   0.37809   0.66677   0.00000  Uiso   1.00
O1064  O     0.84380   0.63398   0.61061   0.00000  Uiso   1.00
O1065  O     0.94522   0.43341   0.67133   0.00000  Uiso   1.00
O1066  O     0.69018   0.54752   0.82594   0.00000  Uiso   1.00
O1067  O     0.94061   0.57689   0.85707   0.00000  Uiso   1.00
O1068  O     0.99992   0.56000   0.50048   0.00000  Uiso   1.00
O1069  O     0.67358   0.44946   0.94043   0.00000  Uiso   1.00
O1070  O     0.76336   0.55309   0.58309   0.00000  Uiso   1.00
O1071  O     0.87157   0.56107   0.75000   0.00000  Uiso   1.00
O1072  O     0.77613   0.50000   0.82681   0.00000  Uiso   1.00
O1073  O     0.85258   0.49999   0.82681   0.00000  Uiso   1.00
O1074  O     0.79510   0.43893   0.74999   0.00000  Uiso   1.00
O1075  O     0.87154   0.43892   0.74999   0.00000  Uiso   1.00
O1076  O     0.81409   0.50001   0.67319   0.00000  Uiso   1.00
O1077  O     0.89053   0.50000   0.67319   0.00000  Uiso   1.00
O1078  O     0.85646   0.35834   0.87432   0.00000  Uiso   1.00
Zn1079 Zn    0.78229   0.50001   0.75000   0.00000  Uiso   1.00
Zn1080 Zn    0.88438   0.49999   0.75000   0.00000  Uiso   1.00
C1081  C     0.16678   0.91302   0.74872   0.00000  Uiso   1.00
C1082  C     0.12792   0.81814   0.90795   0.00000  Uiso   1.00
C1083  C     0.17353   0.97840   0.79067   0.00000  Uiso   1.00
C1084  C     0.14129   0.82802   0.85089   0.00000  Uiso   1.00
C1085  C     0.17441   0.68823   0.79238   0.00000  Uiso   1.00
C1086  C     0.16746   0.70921   0.74966   0.00000  Uiso   1.00
C1087  C     0.15987   0.68810   0.70597   0.00000  Uiso   1.00
C1088  C     0.16133   0.97754   0.70349   0.00000  Uiso   1.00
C1089  C     0.16663   0.95711   0.74738   0.00000  Uiso   1.00
C1090  C     0.32152   0.81042   0.71191   0.00000  Uiso   1.00
C1091  C     0.03556   0.81085   0.71234   0.00000  Uiso   1.00
C1092  C     0.14733   0.83096   0.98953   0.00000  Uiso   1.00
C1093  C     0.01295   0.85709   0.78726   0.00000  Uiso   1.00
C1094  C     0.29856   0.85811   0.78664   0.00000  Uiso   1.00
C1095  C     0.16681   0.75353   0.75035   0.00000  Uiso   1.00
C1096  C     0.19261   0.83410   0.64870   0.00000  Uiso   1.00
C1097  C     0.26327   0.85703   0.50766   0.00000  Uiso   1.00
C1098  C     0.20733   0.83782   0.59170   0.00000  Uiso   1.00
C1099  C     0.08088   0.80932   0.93824   0.00000  Uiso   1.00
C1100  C     0.06619   0.81791   0.99327   0.00000  Uiso   1.00
C1101  C     0.09768   0.83403   0.51773   0.00000  Uiso   1.00
C1102  C     0.18038   0.71074   0.83974   0.00000  Uiso   1.00
C1103  C     0.16235   0.82120   0.93443   0.00000  Uiso   1.00
C1104  C     0.16085   0.95309   0.65475   0.00000  Uiso   1.00
C1105  C     0.31425   0.78617   0.66686   0.00000  Uiso   1.00
C1106  C     0.26374   0.88839   0.82392   0.00000  Uiso   1.00
C1107  C     0.30806   0.87715   0.97747   0.00000  Uiso   1.00
C1108  C     0.04771   0.78946   0.91378   0.00000  Uiso   1.00
C1109  C     0.07628   0.85744   0.56949   0.00000  Uiso   1.00
C1110  C     0.18293   0.83628   0.51373   0.00000  Uiso   1.00
C1111  C     0.23049   0.84312   0.98270   0.00000  Uiso   1.00
C1112  C     0.24473   0.83014   0.92928   0.00000  Uiso   1.00
C1113  C     0.21156   0.81474   0.90764   0.00000  Uiso   1.00
C1114  C     0.17387   0.82909   0.56693   0.00000  Uiso   1.00
C1115  C     0.25115   0.85388   0.56294   0.00000  Uiso   1.00
H1116  H     0.27556   0.86360   0.58344   0.00000  Uiso   1.00
H1117  H     0.14762   0.92151   0.65745   0.00000  Uiso   1.00
H1118  H     0.00956   0.78321   0.62924   0.00000  Uiso   1.00
H1119  H     0.05782   0.88385   0.81544   0.00000  Uiso   1.00
H1120  H     0.22861   0.89267   0.82287   0.00000  Uiso   1.00
H1121  H     0.31847   0.87914   0.93465   0.00000  Uiso   1.00
H1122  H     0.05966   0.77871   0.87235   0.00000  Uiso   1.00
H1123  H     0.04071   0.85064   0.59449   0.00000  Uiso   1.00
H1124  H     0.06307   0.79287   0.68228   0.00000  Uiso   1.00
H1125  H     0.28170   0.82791   0.90535   0.00000  Uiso   1.00
H1126  H     0.14085   0.81514   0.58909   0.00000  Uiso   1.00
H1127  H     0.02925   0.81495   0.51666   0.00000  Uiso   1.00
H1128  H     0.22547   0.79777   0.86975   0.00000  Uiso   1.00
H1129  H     0.17775   0.96100   0.82334   0.00000  Uiso   1.00
H1130  H     0.17626   0.74449   0.84457   0.00000  Uiso   1.00
H1131  H     0.12998   0.69575   0.65181   0.00000  Uiso   1.00
N1132  N     0.04760   0.83334   0.75001   0.00000  Uiso   1.00
N1133  N     0.28573   0.83331   0.75000   0.00000  Uiso   1.00
O1134  O     0.12846   0.89442   0.75000   0.00000  Uiso   1.00
O1135  O     0.15150   0.71142   0.66677   0.00000  Uiso   1.00
O1136  O     0.17713   0.96731   0.61061   0.00000  Uiso   1.00
O1137  O     0.27856   0.76675   0.67133   0.00000  Uiso   1.00
O1138  O     0.02351   0.88086   0.82594   0.00000  Uiso   1.00
O1139  O     0.27394   0.91023   0.85707   0.00000  Uiso   1.00
O1140  O     0.33325   0.89333   0.50048   0.00000  Uiso   1.00
O1141  O     0.00691   0.78279   0.94043   0.00000  Uiso   1.00
O1142  O     0.09670   0.88643   0.58309   0.00000  Uiso   1.00
O1143  O     0.20490   0.89441   0.75000   0.00000  Uiso   1.00
O1144  O     0.10947   0.83333   0.82681   0.00000  Uiso   1.00
O1145  O     0.18591   0.83332   0.82681   0.00000  Uiso   1.00
O1146  O     0.12843   0.77226   0.74999   0.00000  Uiso   1.00
O1147  O     0.20488   0.77225   0.74999   0.00000  Uiso   1.00
O1148  O     0.14742   0.83335   0.67319   0.00000  Uiso   1.00
O1149  O     0.22387   0.83334   0.67319   0.00000  Uiso   1.00
O1150  O     0.18979   0.69167   0.87432   0.00000  Uiso   1.00
Zn1151 Zn    0.11562   0.83334   0.75000   0.00000  Uiso   1.00
Zn1152 Zn    0.21771   0.83333   0.75000   0.00000  Uiso   1.00
C1153  C     0.50011   0.91302   0.74872   0.00000  Uiso   1.00
C1154  C     0.46125   0.81814   0.90795   0.00000  Uiso   1.00
C1155  C     0.50686   0.97840   0.79067   0.00000  Uiso   1.00
C1156  C     0.47462   0.82802   0.85089   0.00000  Uiso   1.00
C1157  C     0.50775   0.68823   0.79238   0.00000  Uiso   1.00
C1158  C     0.50080   0.70921   0.74966   0.00000  Uiso   1.00
C1159  C     0.49321   0.68810   0.70597   0.00000  Uiso   1.00
C1160  C     0.49466   0.97754   0.70349   0.00000  Uiso   1.00
C1161  C     0.49997   0.95711   0.74738   0.00000  Uiso   1.00
C1162  C     0.65485   0.81042   0.71191   0.00000  Uiso   1.00
C1163  C     0.36890   0.81085   0.71234   0.00000  Uiso   1.00
C1164  C     0.48066   0.83096   0.98953   0.00000  Uiso   1.00
C1165  C     0.34628   0.85709   0.78726   0.00000  Uiso   1.00
C1166  C     0.63189   0.85811   0.78664   0.00000  Uiso   1.00
C1167  C     0.50014   0.75353   0.75035   0.00000  Uiso   1.00
C1168  C     0.52595   0.83410   0.64870   0.00000  Uiso   1.00
C1169  C     0.59661   0.85703   0.50766   0.00000  Uiso   1.00
C1170  C     0.54066   0.83782   0.59170   0.00000  Uiso   1.00
C1171  C     0.41421   0.80932   0.93824   0.00000  Uiso   1.00
C1172  C     0.39953   0.81791   0.99327   0.00000  Uiso   1.00
C1173  C     0.43101   0.83403   0.51773   0.00000  Uiso   1.00
C1174  C     0.51371   0.71074   0.83974   0.00000  Uiso   1.00
C1175  C     0.49568   0.82120   0.93443   0.00000  Uiso   1.00
C1176  C     0.49419   0.95309   0.65475   0.00000  Uiso   1.00
C1177  C     0.64759   0.78617   0.66686   0.00000  Uiso   1.00
C1178  C     0.59707   0.88839   0.82392   0.00000  Uiso   1.00
C1179  C     0.64140   0.87715   0.97747   0.00000  Uiso   1.00
C1180  C     0.38104   0.78946   0.91378   0.00000  Uiso   1.00
C1181  C     0.40962   0.85744   0.56949   0.00000  Uiso   1.00
C1182  C     0.51627   0.83628   0.51373   0.00000  Uiso   1.00
C1183  C     0.56383   0.84312   0.98270   0.00000  Uiso   1.00
C1184  C     0.57807   0.83014   0.92928   0.00000  Uiso   1.00
C1185  C     0.54490   0.81474   0.90764   0.00000  Uiso   1.00
C1186  C     0.50720   0.82909   0.56693   0.00000  Uiso   1.00
C1187  C     0.58448   0.85388   0.56294   0.00000  Uiso   1.00
H1188  H     0.60889   0.86360   0.58344   0.00000  Uiso   1.00
H1189  H     0.48096   0.92151   0.65745   0.00000  Uiso   1.00
H1190  H     0.34290   0.78321   0.62924   0.00000  Uiso   1.00
H1191  H     0.39115   0.88385   0.81544   0.00000  Uiso   1.00
H1192  H     0.56194   0.89267   0.82287   0.00000  Uiso   1.00
H1193  H     0.65180   0.87914   0.93465   0.00000  Uiso   1.00
H1194  H     0.39299   0.77871   0.87235   0.00000  Uiso   1.00
H1195  H     0.37404   0.85064   0.59449   0.00000  Uiso   1.00
H1196  H     0.39641   0.79287   0.68228   0.00000  Uiso   1.00
H1197  H     0.61503   0.82791   0.90535   0.00000  Uiso   1.00
H1198  H     0.47418   0.81514   0.58909   0.00000  Uiso   1.00
H1199  H     0.36259   0.81495   0.51666   0.00000  Uiso   1.00
H1200  H     0.55880   0.79777   0.86975   0.00000  Uiso   1.00
H1201  H     0.51108   0.96100   0.82334   0.00000  Uiso   1.00
H1202  H     0.50959   0.74449   0.84457   0.00000  Uiso   1.00
H1203  H     0.46331   0.69575   0.65181   0.00000  Uiso   1.00
N1204  N     0.38093   0.83334   0.75001   0.00000  Uiso   1.00
N1205  N     0.61906   0.83331   0.75000   0.00000  Uiso   1.00
O1206  O     0.46179   0.89442   0.75000   0.00000  Uiso   1.00
O1207  O     0.48483   0.71142   0.66677   0.00000  Uiso   1.00
O1208  O     0.51047   0.96731   0.61061   0.00000  Uiso   1.00
O1209  O     0.61189   0.76675   0.67133   0.00000  Uiso   1.00
O1210  O     0.35684   0.88086   0.82594   0.00000  Uiso   1.00
O1211  O     0.60728   0.91023   0.85707   0.00000  Uiso   1.00
O1212  O     0.66658   0.89333   0.50048   0.00000  Uiso   1.00
O1213  O     0.34024   0.78279   0.94043   0.00000  Uiso   1.00
O1214  O     0.43003   0.88643   0.58309   0.00000  Uiso   1.00
O1215  O     0.53823   0.89441   0.75000   0.00000  Uiso   1.00
O1216  O     0.44280   0.83333   0.82681   0.00000  Uiso   1.00
O1217  O     0.51924   0.83332   0.82681   0.00000  Uiso   1.00
O1218  O     0.46177   0.77226   0.74999   0.00000  Uiso   1.00
O1219  O     0.53821   0.77225   0.74999   0.00000  Uiso   1.00
O1220  O     0.48076   0.83335   0.67319   0.00000  Uiso   1.00
O1221  O     0.55720   0.83334   0.67319   0.00000  Uiso   1.00
O1222  O     0.52312   0.69167   0.87432   0.00000  Uiso   1.00
Zn1223 Zn    0.44896   0.83334   0.75000   0.00000  Uiso   1.00
Zn1224 Zn    0.55104   0.83333   0.75000   0.00000  Uiso   1.00
C1225  C     0.83345   0.91302   0.74872   0.00000  Uiso   1.00
C1226  C     0.79458   0.81814   0.90795   0.00000  Uiso   1.00
C1227  C     0.84019   0.97840   0.79067   0.00000  Uiso   1.00
C1228  C     0.80796   0.82802   0.85089   0.00000  Uiso   1.00
C1229  C     0.84108   0.68823   0.79238   0.00000  Uiso   1.00
C1230  C     0.83413   0.70921   0.74966   0.00000  Uiso   1.00
C1231  C     0.82654   0.68810   0.70597   0.00000  Uiso   1.00
C1232  C     0.82800   0.97754   0.70349   0.00000  Uiso   1.00
C1233  C     0.83330   0.95711   0.74738   0.00000  Uiso   1.00
C1234  C     0.98819   0.81042   0.71191   0.00000  Uiso   1.00
C1235  C     0.70223   0.81085   0.71234   0.00000  Uiso   1.00
C1236  C     0.81400   0.83096   0.98953   0.00000  Uiso   1.00
C1237  C     0.67961   0.85709   0.78726   0.00000  Uiso   1.00
C1238  C     0.96523   0.85811   0.78664   0.00000  Uiso   1.00
C1239  C     0.83347   0.75353   0.75035   0.00000  Uiso   1.00
C1240  C     0.85928   0.83410   0.64870   0.00000  Uiso   1.00
C1241  C     0.92994   0.85703   0.50766   0.00000  Uiso   1.00
C1242  C     0.87399   0.83782   0.59170   0.00000  Uiso   1.00
C1243  C     0.74754   0.80932   0.93824   0.00000  Uiso   1.00
C1244  C     0.73286   0.81791   0.99327   0.00000  Uiso   1.00
C1245  C     0.76435   0.83403   0.51773   0.00000  Uiso   1.00
C1246  C     0.84705   0.71074   0.83974   0.00000  Uiso   1.00
C1247  C     0.82901   0.82120   0.93443   0.00000  Uiso   1.00
C1248  C     0.82752   0.95309   0.65475   0.00000  Uiso   1.00
C1249  C     0.98092   0.78617   0.66686   0.00000  Uiso   1.00
C1250  C     0.93041   0.88839   0.82392   0.00000  Uiso   1.00
C1251  C     0.97473   0.87715   0.97747   0.00000  Uiso   1.00
C1252  C     0.71438   0.78946   0.91378   0.00000  Uiso   1.00
C1253  C     0.74295   0.85744   0.56949   0.00000  Uiso   1.00
C1254  C     0.84960   0.83628   0.51373   0.00000  Uiso   1.00
C1255  C     0.89716   0.84312   0.98270   0.00000  Uiso   1.00
C1256  C     0.91140   0.83014   0.92928   0.00000  Uiso   1.00
C1257  C     0.87823   0.81474   0.90764   0.00000  Uiso   1.00
C1258  C     0.84053   0.82909   0.56693   0.00000  Uiso   1.00
C1259  C     0.91781   0.85388   0.56294   0.00000  Uiso   1.00
H1260  H     0.94223   0.86360   0.58344   0.00000  Uiso   1.00
H1261  H     0.81429   0.92151   0.65745   0.00000  Uiso   1.00
H1262  H     0.67623   0.78321   0.62924   0.00000  Uiso   1.00
H1263  H     0.72448   0.88385   0.81544   0.00000  Uiso   1.00
H1264  H     0.89527   0.89267   0.82287   0.00000  Uiso   1.00
H1265  H     0.98513   0.87914   0.93465   0.00000  Uiso   1.00
H1266  H     0.72632   0.77871   0.87235   0.00000  Uiso   1.00
H1267  H     0.70737   0.85064   0.59449   0.00000  Uiso   1.00
H1268  H     0.72974   0.79287   0.68228   0.00000  Uiso   1.00
H1269  H     0.94837   0.82791   0.90535   0.00000  Uiso   1.00
H1270  H     0.80751   0.81514   0.58909   0.00000  Uiso   1.00
H1271  H     0.69592   0.81495   0.51666   0.00000  Uiso   1.00
H1272  H     0.89213   0.79777   0.86975   0.00000  Uiso   1.00
H1273  H     0.84442   0.96100   0.82334   0.00000  Uiso   1.00
H1274  H     0.84293   0.74449   0.84457   0.00000  Uiso   1.00
H1275  H     0.79665   0.69575   0.65181   0.00000  Uiso   1.00
N1276  N     0.71426   0.83334   0.75001   0.00000  Uiso   1.00
N1277  N     0.95239   0.83331   0.75000   0.00000  Uiso   1.00
O1278  O     0.79512   0.89442   0.75000   0.00000  Uiso   1.00
O1279  O     0.81817   0.71142   0.66677   0.00000  Uiso   1.00
O1280  O     0.84380   0.96731   0.61061   0.00000  Uiso   1.00
O1281  O     0.94522   0.76675   0.67133   0.00000  Uiso   1.00
O1282  O     0.69018   0.88086   0.82594   0.00000  Uiso   1.00
O1283  O     0.94061   0.91023   0.85707   0.00000  Uiso   1.00
O1284  O     0.99992   0.89333   0.50048   0.00000  Uiso   1.00
O1285  O     0.67358   0.78279   0.94043   0.00000  Uiso   1.00
O1286  O     0.76336   0.88643   0.58309   0.00000  Uiso   1.00
O1287  O     0.87157   0.89441   0.75000   0.00000  Uiso   1.00
O1288  O     0.77613   0.83333   0.82681   0.00000  Uiso   1.00
O1289  O     0.85258   0.83332   0.82681   0.00000  Uiso   1.00
O1290  O     0.79510   0.77226   0.74999   0.00000  Uiso   1.00
O1291  O     0.87154   0.77225   0.74999   0.00000  Uiso   1.00
O1292  O     0.81409   0.83335   0.67319   0.00000  Uiso   1.00
O1293  O     0.89053   0.83334   0.67319   0.00000  Uiso   1.00
O1294  O     0.85646   0.69167   0.87432   0.00000  Uiso   1.00
Zn1295 Zn    0.78229   0.83334   0.75000   0.00000  Uiso   1.00
Zn1296 Zn    0.88438   0.83333   0.75000   0.00000  Uiso   1.00
loop_
_geom_bond_atom_site_label_1
_geom_bond_atom_site_label_2
_geom_bond_distance
_geom_bond_site_symmetry_2
_ccdc_geom_bond_type
C1     O54     1.287   .     A
C1     O63     1.287   .     A
C1     C9      1.408   .     S
C2     C4      1.484   .     S
C2     C23     1.423   .     A
C2     C19     1.412   .     A
C3     H49     1.086   .     S
C3     C9      1.389   .     A
C3     C221    1.377   .     S
C4     O64     1.317   .     A
C4     O65     1.294   .     A
C5     C6      1.406   .     A
C5     C22     1.489   .     S
C5     C435    1.377   1_545 S
C6     C7      1.404   .     A
C6     C15     1.413   .     S
C7     O55     1.384   .     S
C7     C440    1.399   1_545 S
C8     C24     1.493   .     S
C8     C9      1.406   .     A
C8     C223    1.399   .     S
C10    C25     1.479   .     S
C10    N53     1.389   .     A
C10    C83     1.418   .     S
C11    N52     1.355   .     A
C11    H44     1.083   .     S
C11    C154    1.418   1_455 S
C12    C23     1.408   .     A
C12    C669    1.429   .     S
C12    C678    1.418   .     S
C13    N52     1.375   .     A
C13    O58     1.376   .     S
C13    C158    1.430   1_455 S
C14    N53     1.384   .     A
C14    C26     1.496   .     S
C14    C85     1.430   .     S
C15    O67     1.288   .     A
C15    O66     1.287   .     A
C16    O68     1.296   .     A
C16    C18     1.443   .     S
C16    O69     1.299   .     A
C17    C35     1.402   .     A
C17    C675    1.486   1_554 S
C17    C679    1.416   1_554 S
C18    C34     1.388   .     A
C18    C35     1.399   .     A
C19    C20     1.400   .     A
C19    C28     1.486   .     S
C20    C669    1.398   .     S
C20    H695    1.084   .     S
C21    C29     1.486   .     S
C21    C668    1.398   1_554 S
C21    C660    1.429   1_554 S
C22    H50     1.080   .     S
C22    O70     1.222   .     D
C23    C33     1.419   .     A
C24    O56     1.221   .     D
C24    H37     1.083   .     S
C25    O57     1.214   .     D
C25    H110    1.086   .     S
C26    H40     1.065   .     S
C26    O59     1.221   .     D
C27    H41     1.082   .     S
C27    C665    1.486   .     S
C27    O708    1.221   .     S
C28    O61     1.221   .     D
C28    H42     1.083   .     S
C29    H43     1.085   .     S
C29    O62     1.221   .     D
C30    C34     1.378   .     A
C30    C660    1.418   1_554 S
C30    C679    1.417   1_554 S
C31    C32     1.390   .     A
C31    C665    1.416   .     S
C31    C678    1.417   .     S
C32    H45     1.081   .     S
C32    C33     1.384   .     A
C33    H48     1.080   .     S
C34    H46     1.082   .     S
C35    H36     1.084   .     S
H38    C169    1.086   1_455 S
H39    O58     0.978   .     S
H47    C668    1.084   1_554 S
H51    O55     0.990   .     S
N52    Zn71    2.031   .     S
N53    Zn72    2.030   .     S
O54    Zn71    1.990   .     S
O60    C675    1.221   1_554 S
O63    Zn72    1.980   .     S
O64    Zn71    1.989   .     S
O65    Zn72    1.953   .     S
O66    Zn71    1.980   .     S
O67    Zn72    1.990   .     S
O68    Zn71    1.953   .     S
O69    Zn72    1.989   .     S
C73    O126    1.287   .     A
C73    O135    1.287   .     A
C73    C81     1.408   .     S
C74    C76     1.484   .     S
C74    C95     1.423   .     A
C74    C91     1.412   .     A
C75    H121    1.086   .     S
C75    C81     1.389   .     A
C75    C293    1.377   .     S
C76    O136    1.317   .     A
C76    O137    1.294   .     A
C77    C78     1.406   .     A
C77    C94     1.489   .     S
C77    C507    1.377   1_545 S
C78    C79     1.404   .     A
C78    C87     1.413   .     S
C79    O127    1.384   .     S
C79    C512    1.399   1_545 S
C80    C96     1.493   .     S
C80    C81     1.406   .     A
C80    C295    1.399   .     S
C82    C97     1.479   .     S
C82    N125    1.389   .     A
C82    C155    1.418   .     S
C83    N124    1.355   .     A
C83    H116    1.083   .     S
C84    C95     1.408   .     A
C84    C741    1.429   .     S
C84    C750    1.418   .     S
C85    N124    1.375   .     A
C85    O130    1.376   .     S
C86    N125    1.384   .     A
C86    C98     1.496   .     S
C86    C157    1.430   .     S
C87    O139    1.288   .     A
C87    O138    1.287   .     A
C88    O140    1.296   .     A
C88    C90     1.443   .     S
C88    O141    1.299   .     A
C89    C107    1.402   .     A
C89    C747    1.486   1_554 S
C89    C751    1.416   1_554 S
C90    C106    1.388   .     A
C90    C107    1.399   .     A
C91    C92     1.400   .     A
C91    C100    1.486   .     S
C92    C741    1.398   .     S
C92    H767    1.084   .     S
C93    C101    1.486   .     S
C93    C740    1.398   1_554 S
C93    C732    1.429   1_554 S
C94    H122    1.080   .     S
C94    O142    1.222   .     D
C95    C105    1.419   .     A
C96    O128    1.221   .     D
C96    H109    1.083   .     S
C97    O129    1.214   .     D
C97    H182    1.086   .     S
C98    H112    1.065   .     S
C98    O131    1.221   .     D
C99    H113    1.082   .     S
C99    C737    1.486   .     S
C99    O780    1.221   .     S
C100   O133    1.221   .     D
C100   H114    1.083   .     S
C101   H115    1.085   .     S
C101   O134    1.221   .     D
C102   C106    1.378   .     A
C102   C732    1.418   1_554 S
C102   C751    1.417   1_554 S
C103   C104    1.390   .     A
C103   C737    1.416   .     S
C103   C750    1.417   .     S
C104   H117    1.081   .     S
C104   C105    1.384   .     A
C105   H120    1.080   .     S
C106   H118    1.082   .     S
C107   H108    1.084   .     S
H111   O130    0.978   .     S
H119   C740    1.084   1_554 S
H123   O127    0.990   .     S
N124   Zn143   2.031   .     S
N125   Zn144   2.030   .     S
O126   Zn143   1.990   .     S
O132   C747    1.221   1_554 S
O135   Zn144   1.980   .     S
O136   Zn143   1.989   .     S
O137   Zn144   1.953   .     S
O138   Zn143   1.980   .     S
O139   Zn144   1.990   .     S
O140   Zn143   1.953   .     S
O141   Zn144   1.989   .     S
C145   O198    1.287   .     A
C145   O207    1.287   .     A
C145   C153    1.408   .     S
C146   C148    1.484   .     S
C146   C167    1.423   .     A
C146   C163    1.412   .     A
C147   H193    1.086   .     S
C147   C153    1.389   .     A
C147   C365    1.377   .     S
C148   O208    1.317   .     A
C148   O209    1.294   .     A
C149   C150    1.406   .     A
C149   C166    1.489   .     S
C149   C579    1.377   1_545 S
C150   C151    1.404   .     A
C150   C159    1.413   .     S
C151   O199    1.384   .     S
C151   C584    1.399   1_545 S
C152   C168    1.493   .     S
C152   C153    1.406   .     A
C152   C367    1.399   .     S
C154   C169    1.479   .     S
C154   N197    1.389   .     A
C154   C11     1.418   1_655 S
C155   N196    1.355   .     A
C155   H188    1.083   .     S
C156   C167    1.408   .     A
C156   C813    1.429   .     S
C156   C822    1.418   .     S
C157   N196    1.375   .     A
C157   O202    1.376   .     S
C158   N197    1.384   .     A
C158   C170    1.496   .     S
C158   C13     1.430   1_655 S
C159   O211    1.288   .     A
C159   O210    1.287   .     A
C160   O212    1.296   .     A
C160   C162    1.443   .     S
C160   O213    1.299   .     A
C161   C179    1.402   .     A
C161   C819    1.486   1_554 S
C161   C823    1.416   1_554 S
C162   C178    1.388   .     A
C162   C179    1.399   .     A
C163   C164    1.400   .     A
C163   C172    1.486   .     S
C164   C813    1.398   .     S
C164   H839    1.084   .     S
C165   C173    1.486   .     S
C165   C812    1.398   1_554 S
C165   C804    1.429   1_554 S
C166   H194    1.080   .     S
C166   O214    1.222   .     D
C167   C177    1.419   .     A
C168   O200    1.221   .     D
C168   H181    1.083   .     S
C169   O201    1.214   .     D
C169   H38     1.086   1_655 S
C170   H184    1.065   .     S
C170   O203    1.221   .     D
C171   H185    1.082   .     S
C171   C809    1.486   .     S
C171   O852    1.221   .     S
C172   O205    1.221   .     D
C172   H186    1.083   .     S
C173   H187    1.085   .     S
C173   O206    1.221   .     D
C174   C178    1.378   .     A
C174   C804    1.418   1_554 S
C174   C823    1.417   1_554 S
C175   C176    1.390   .     A
C175   C809    1.416   .     S
C175   C822    1.417   .     S
C176   H189    1.081   .     S
C176   C177    1.384   .     A
C177   H192    1.080   .     S
C178   H190    1.082   .     S
C179   H180    1.084   .     S
H183   O202    0.978   .     S
H191   C812    1.084   1_554 S
H195   O199    0.990   .     S
N196   Zn215   2.031   .     S
N197   Zn216   2.030   .     S
O198   Zn215   1.990   .     S
O204   C819    1.221   1_554 S
O207   Zn216   1.980   .     S
O208   Zn215   1.989   .     S
O209   Zn216   1.953   .     S
O210   Zn215   1.980   .     S
O211   Zn216   1.990   .     S
O212   Zn215   1.953   .     S
O213   Zn216   1.989   .     S
C217   O270    1.287   .     A
C217   O279    1.287   .     A
C217   C225    1.408   .     S
C218   C220    1.484   .     S
C218   C239    1.423   .     A
C218   C235    1.412   .     A
C219   H265    1.086   .     S
C219   C225    1.389   .     A
C219   C437    1.377   .     S
C220   O280    1.317   .     A
C220   O281    1.294   .     A
C221   C222    1.406   .     A
C221   C238    1.489   .     S
C222   C223    1.404   .     A
C222   C231    1.413   .     S
C223   O271    1.384   .     S
C224   C240    1.493   .     S
C224   C225    1.406   .     A
C224   C439    1.399   .     S
C226   C241    1.479   .     S
C226   N269    1.389   .     A
C226   C299    1.418   .     S
C227   N268    1.355   .     A
C227   H260    1.083   .     S
C227   C370    1.418   1_455 S
C228   C239    1.408   .     A
C228   C885    1.429   .     S
C228   C894    1.418   .     S
C229   N268    1.375   .     A
C229   O274    1.376   .     S
C229   C374    1.430   1_455 S
C230   N269    1.384   .     A
C230   C242    1.496   .     S
C230   C301    1.430   .     S
C231   O283    1.288   .     A
C231   O282    1.287   .     A
C232   O284    1.296   .     A
C232   C234    1.443   .     S
C232   O285    1.299   .     A
C233   C251    1.402   .     A
C233   C891    1.486   1_554 S
C233   C895    1.416   1_554 S
C234   C250    1.388   .     A
C234   C251    1.399   .     A
C235   C236    1.400   .     A
C235   C244    1.486   .     S
C236   C885    1.398   .     S
C236   H911    1.084   .     S
C237   C245    1.486   .     S
C237   C884    1.398   1_554 S
C237   C876    1.429   1_554 S
C238   H266    1.080   .     S
C238   O286    1.222   .     D
C239   C249    1.419   .     A
C240   O272    1.221   .     D
C240   H253    1.083   .     S
C241   O273    1.214   .     D
C241   H326    1.086   .     S
C242   H256    1.065   .     S
C242   O275    1.221   .     D
C243   H257    1.082   .     S
C243   C881    1.486   .     S
C243   O924    1.221   .     S
C244   O277    1.221   .     D
C244   H258    1.083   .     S
C245   H259    1.085   .     S
C245   O278    1.221   .     D
C246   C250    1.378   .     A
C246   C876    1.418   1_554 S
C246   C895    1.417   1_554 S
C247   C248    1.390   .     A
C247   C881    1.416   .     S
C247   C894    1.417   .     S
C248   H261    1.081   .     S
C248   C249    1.384   .     A
C249   H264    1.080   .     S
C250   H262    1.082   .     S
C251   H252    1.084   .     S
H254   C385    1.086   1_455 S
H255   O274    0.978   .     S
H263   C884    1.084   1_554 S
H267   O271    0.990   .     S
N268   Zn287   2.031   .     S
N269   Zn288   2.030   .     S
O270   Zn287   1.990   .     S
O276   C891    1.221   1_554 S
O279   Zn288   1.980   .     S
O280   Zn287   1.989   .     S
O281   Zn288   1.953   .     S
O282   Zn287   1.980   .     S
O283   Zn288   1.990   .     S
O284   Zn287   1.953   .     S
O285   Zn288   1.989   .     S
C289   O342    1.287   .     A
C289   O351    1.287   .     A
C289   C297    1.408   .     S
C290   C292    1.484   .     S
C290   C311    1.423   .     A
C290   C307    1.412   .     A
C291   H337    1.086   .     S
C291   C297    1.389   .     A
C291   C509    1.377   .     S
C292   O352    1.317   .     A
C292   O353    1.294   .     A
C293   C294    1.406   .     A
C293   C310    1.489   .     S
C294   C295    1.404   .     A
C294   C303    1.413   .     S
C295   O343    1.384   .     S
C296   C312    1.493   .     S
C296   C297    1.406   .     A
C296   C511    1.399   .     S
C298   C313    1.479   .     S
C298   N341    1.389   .     A
C298   C371    1.418   .     S
C299   N340    1.355   .     A
C299   H332    1.083   .     S
C300   C311    1.408   .     A
C300   C957    1.429   .     S
C300   C966    1.418   .     S
C301   N340    1.375   .     A
C301   O346    1.376   .     S
C302   N341    1.384   .     A
C302   C314    1.496   .     S
C302   C373    1.430   .     S
C303   O355    1.288   .     A
C303   O354    1.287   .     A
C304   O356    1.296   .     A
C304   C306    1.443   .     S
C304   O357    1.299   .     A
C305   C323    1.402   .     A
C305   C963    1.486   1_554 S
C305   C967    1.416   1_554 S
C306   C322    1.388   .     A
C306   C323    1.399   .     A
C307   C308    1.400   .     A
C307   C316    1.486   .     S
C308   C957    1.398   .     S
C308   H983    1.084   .     S
C309   C317    1.486   .     S
C309   C956    1.398   1_554 S
C309   C948    1.429   1_554 S
C310   H338    1.080   .     S
C310   O358    1.222   .     D
C311   C321    1.419   .     A
C312   O344    1.221   .     D
C312   H325    1.083   .     S
C313   O345    1.214   .     D
C313   H398    1.086   .     S
C314   H328    1.065   .     S
C314   O347    1.221   .     D
C315   H329    1.082   .     S
C315   C953    1.486   .     S
C315   O996    1.221   .     S
C316   O349    1.221   .     D
C316   H330    1.083   .     S
C317   H331    1.085   .     S
C317   O350    1.221   .     D
C318   C322    1.378   .     A
C318   C948    1.418   1_554 S
C318   C967    1.417   1_554 S
C319   C320    1.390   .     A
C319   C953    1.416   .     S
C319   C966    1.417   .     S
C320   H333    1.081   .     S
C320   C321    1.384   .     A
C321   H336    1.080   .     S
C322   H334    1.082   .     S
C323   H324    1.084   .     S
H327   O346    0.978   .     S
H335   C956    1.084   1_554 S
H339   O343    0.990   .     S
N340   Zn359   2.031   .     S
N341   Zn360   2.030   .     S
O342   Zn359   1.990   .     S
O348   C963    1.221   1_554 S
O351   Zn360   1.980   .     S
O352   Zn359   1.989   .     S
O353   Zn360   1.953   .     S
O354   Zn359   1.980   .     S
O355   Zn360   1.990   .     S
O356   Zn359   1.953   .     S
O357   Zn360   1.989   .     S
C361   O414    1.287   .     A
C361   O423    1.287   .     A
C361   C369    1.408   .     S
C362   C364    1.484   .     S
C362   C383    1.423   .     A
C362   C379    1.412   .     A
C363   H409    1.086   .     S
C363   C369    1.389   .     A
C363   C581    1.377   .     S
C364   O424    1.317   .     A
C364   O425    1.294   .     A
C365   C366    1.406   .     A
C365   C382    1.489   .     S
C366   C367    1.404   .     A
C366   C375    1.413   .     S
C367   O415    1.384   .     S
C368   C384    1.493   .     S
C368   C369    1.406   .     A
C368   C583    1.399   .     S
C370   C385    1.479   .     S
C370   N413    1.389   .     A
C370   C227    1.418   1_655 S
C371   N412    1.355   .     A
C371   H404    1.083   .     S
C372   C383    1.408   .     A
C372   C1029   1.429   .     S
C372   C1038   1.418   .     S
C373   N412    1.375   .     A
C373   O418    1.376   .     S
C374   N413    1.384   .     A
C374   C386    1.496   .     S
C374   C229    1.430   1_655 S
C375   O427    1.288   .     A
C375   O426    1.287   .     A
C376   O428    1.296   .     A
C376   C378    1.443   .     S
C376   O429    1.299   .     A
C377   C395    1.402   .     A
C377   C1035   1.486   1_554 S
C377   C1039   1.416   1_554 S
C378   C394    1.388   .     A
C378   C395    1.399   .     A
C379   C380    1.400   .     A
C379   C388    1.486   .     S
C380   C1029   1.398   .     S
C380   H1055   1.084   .     S
C381   C389    1.486   .     S
C381   C1028   1.398   1_554 S
C381   C1020   1.429   1_554 S
C382   H410    1.080   .     S
C382   O430    1.222   .     D
C383   C393    1.419   .     A
C384   O416    1.221   .     D
C384   H397    1.083   .     S
C385   O417    1.214   .     D
C385   H254    1.086   1_655 S
C386   H400    1.065   .     S
C386   O419    1.221   .     D
C387   H401    1.082   .     S
C387   C1025   1.486   .     S
C387   O1068   1.221   .     S
C388   O421    1.221   .     D
C388   H402    1.083   .     S
C389   H403    1.085   .     S
C389   O422    1.221   .     D
C390   C394    1.378   .     A
C390   C1020   1.418   1_554 S
C390   C1039   1.417   1_554 S
C391   C392    1.390   .     A
C391   C1025   1.416   .     S
C391   C1038   1.417   .     S
C392   H405    1.081   .     S
C392   C393    1.384   .     A
C393   H408    1.080   .     S
C394   H406    1.082   .     S
C395   H396    1.084   .     S
H399   O418    0.978   .     S
H407   C1028   1.084   1_554 S
H411   O415    0.990   .     S
N412   Zn431   2.031   .     S
N413   Zn432   2.030   .     S
O414   Zn431   1.990   .     S
O420   C1035   1.221   1_554 S
O423   Zn432   1.980   .     S
O424   Zn431   1.989   .     S
O425   Zn432   1.953   .     S
O426   Zn431   1.980   .     S
O427   Zn432   1.990   .     S
O428   Zn431   1.953   .     S
O429   Zn432   1.989   .     S
C433   O486    1.287   .     A
C433   O495    1.287   .     A
C433   C441    1.408   .     S
C434   C436    1.484   .     S
C434   C455    1.423   .     A
C434   C451    1.412   .     A
C435   H481    1.086   .     S
C435   C441    1.389   .     A
C435   C5      1.377   1_565 S
C436   O496    1.317   .     A
C436   O497    1.294   .     A
C437   C438    1.406   .     A
C437   C454    1.489   .     S
C438   C439    1.404   .     A
C438   C447    1.413   .     S
C439   O487    1.384   .     S
C440   C456    1.493   .     S
C440   C441    1.406   .     A
C440   C7      1.399   1_565 S
C442   C457    1.479   .     S
C442   N485    1.389   .     A
C442   C515    1.418   .     S
C443   N484    1.355   .     A
C443   H476    1.083   .     S
C443   C586    1.418   1_455 S
C444   C455    1.408   .     A
C444   C1101   1.429   .     S
C444   C1110   1.418   .     S
C445   N484    1.375   .     A
C445   O490    1.376   .     S
C445   C590    1.430   1_455 S
C446   N485    1.384   .     A
C446   C458    1.496   .     S
C446   C517    1.430   .     S
C447   O499    1.288   .     A
C447   O498    1.287   .     A
C448   O500    1.296   .     A
C448   C450    1.443   .     S
C448   O501    1.299   .     A
C449   C467    1.402   .     A
C449   C1107   1.486   1_554 S
C449   C1111   1.416   1_554 S
C450   C466    1.388   .     A
C450   C467    1.399   .     A
C451   C452    1.400   .     A
C451   C460    1.486   .     S
C452   C1101   1.398   .     S
C452   H1127   1.084   .     S
C453   C461    1.486   .     S
C453   C1100   1.398   1_554 S
C453   C1092   1.429   1_554 S
C454   H482    1.080   .     S
C454   O502    1.222   .     D
C455   C465    1.419   .     A
C456   O488    1.221   .     D
C456   H469    1.083   .     S
C457   O489    1.214   .     D
C457   H542    1.086   .     S
C458   H472    1.065   .     S
C458   O491    1.221   .     D
C459   H473    1.082   .     S
C459   C1097   1.486   .     S
C459   O1140   1.221   .     S
C460   O493    1.221   .     D
C460   H474    1.083   .     S
C461   H475    1.085   .     S
C461   O494    1.221   .     D
C462   C466    1.378   .     A
C462   C1092   1.418   1_554 S
C462   C1111   1.417   1_554 S
C463   C464    1.390   .     A
C463   C1097   1.416   .     S
C463   C1110   1.417   .     S
C464   H477    1.081   .     S
C464   C465    1.384   .     A
C465   H480    1.080   .     S
C466   H478    1.082   .     S
C467   H468    1.084   .     S
H470   C601    1.086   1_455 S
H471   O490    0.978   .     S
H479   C1100   1.084   1_554 S
H483   O487    0.990   .     S
N484   Zn503   2.031   .     S
N485   Zn504   2.030   .     S
O486   Zn503   1.990   .     S
O492   C1107   1.221   1_554 S
O495   Zn504   1.980   .     S
O496   Zn503   1.989   .     S
O497   Zn504   1.953   .     S
O498   Zn503   1.980   .     S
O499   Zn504   1.990   .     S
O500   Zn503   1.953   .     S
O501   Zn504   1.989   .     S
C505   O558    1.287   .     A
C505   O567    1.287   .     A
C505   C513    1.408   .     S
C506   C508    1.484   .     S
C506   C527    1.423   .     A
C506   C523    1.412   .     A
C507   H553    1.086   .     S
C507   C513    1.389   .     A
C507   C77     1.377   1_565 S
C508   O568    1.317   .     A
C508   O569    1.294   .     A
C509   C510    1.406   .     A
C509   C526    1.489   .     S
C510   C511    1.404   .     A
C510   C519    1.413   .     S
C511   O559    1.384   .     S
C512   C528    1.493   .     S
C512   C513    1.406   .     A
C512   C79     1.399   1_565 S
C514   C529    1.479   .     S
C514   N557    1.389   .     A
C514   C587    1.418   .     S
C515   N556    1.355   .     A
C515   H548    1.083   .     S
C516   C527    1.408   .     A
C516   C1173   1.429   .     S
C516   C1182   1.418   .     S
C517   N556    1.375   .     A
C517   O562    1.376   .     S
C518   N557    1.384   .     A
C518   C530    1.496   .     S
C518   C589    1.430   .     S
C519   O571    1.288   .     A
C519   O570    1.287   .     A
C520   O572    1.296   .     A
C520   C522    1.443   .     S
C520   O573    1.299   .     A
C521   C539    1.402   .     A
C521   C1179   1.486   1_554 S
C521   C1183   1.416   1_554 S
C522   C538    1.388   .     A
C522   C539    1.399   .     A
C523   C524    1.400   .     A
C523   C532    1.486   .     S
C524   C1173   1.398   .     S
C524   H1199   1.084   .     S
C525   C533    1.486   .     S
C525   C1172   1.398   1_554 S
C525   C1164   1.429   1_554 S
C526   H554    1.080   .     S
C526   O574    1.222   .     D
C527   C537    1.419   .     A
C528   O560    1.221   .     D
C528   H541    1.083   .     S
C529   O561    1.214   .     D
C529   H614    1.086   .     S
C530   H544    1.065   .     S
C530   O563    1.221   .     D
C531   H545    1.082   .     S
C531   C1169   1.486   .     S
C531   O1212   1.221   .     S
C532   O565    1.221   .     D
C532   H546    1.083   .     S
C533   H547    1.085   .     S
C533   O566    1.221   .     D
C534   C538    1.378   .     A
C534   C1164   1.418   1_554 S
C534   C1183   1.417   1_554 S
C535   C536    1.390   .     A
C535   C1169   1.416   .     S
C535   C1182   1.417   .     S
C536   H549    1.081   .     S
C536   C537    1.384   .     A
C537   H552    1.080   .     S
C538   H550    1.082   .     S
C539   H540    1.084   .     S
H543   O562    0.978   .     S
H551   C1172   1.084   1_554 S
H555   O559    0.990   .     S
N556   Zn575   2.031   .     S
N557   Zn576   2.030   .     S
O558   Zn575   1.990   .     S
O564   C1179   1.221   1_554 S
O567   Zn576   1.980   .     S
O568   Zn575   1.989   .     S
O569   Zn576   1.953   .     S
O570   Zn575   1.980   .     S
O571   Zn576   1.990   .     S
O572   Zn575   1.953   .     S
O573   Zn576   1.989   .     S
C577   O630    1.287   .     A
C577   O639    1.287   .     A
C577   C585    1.408   .     S
C578   C580    1.484   .     S
C578   C599    1.423   .     A
C578   C595    1.412   .     A
C579   H625    1.086   .     S
C579   C585    1.389   .     A
C579   C149    1.377   1_565 S
C580   O640    1.317   .     A
C580   O641    1.294   .     A
C581   C582    1.406   .     A
C581   C598    1.489   .     S
C582   C583    1.404   .     A
C582   C591    1.413   .     S
C583   O631    1.384   .     S
C584   C600    1.493   .     S
C584   C585    1.406   .     A
C584   C151    1.399   1_565 S
C586   C601    1.479   .     S
C586   N629    1.389   .     A
C586   C443    1.418   1_655 S
C587   N628    1.355   .     A
C587   H620    1.083   .     S
C588   C599    1.408   .     A
C588   C1245   1.429   .     S
C588   C1254   1.418   .     S
C589   N628    1.375   .     A
C589   O634    1.376   .     S
C590   N629    1.384   .     A
C590   C602    1.496   .     S
C590   C445    1.430   1_655 S
C591   O643    1.288   .     A
C591   O642    1.287   .     A
C592   O644    1.296   .     A
C592   C594    1.443   .     S
C592   O645    1.299   .     A
C593   C611    1.402   .     A
C593   C1251   1.486   1_554 S
C593   C1255   1.416   1_554 S
C594   C610    1.388   .     A
C594   C611    1.399   .     A
C595   C596    1.400   .     A
C595   C604    1.486   .     S
C596   C1245   1.398   .     S
C596   H1271   1.084   .     S
C597   C605    1.486   .     S
C597   C1244   1.398   1_554 S
C597   C1236   1.429   1_554 S
C598   H626    1.080   .     S
C598   O646    1.222   .     D
C599   C609    1.419   .     A
C600   O632    1.221   .     D
C600   H613    1.083   .     S
C601   O633    1.214   .     D
C601   H470    1.086   1_655 S
C602   H616    1.065   .     S
C602   O635    1.221   .     D
C603   H617    1.082   .     S
C603   C1241   1.486   .     S
C603   O1284   1.221   .     S
C604   O637    1.221   .     D
C604   H618    1.083   .     S
C605   H619    1.085   .     S
C605   O638    1.221   .     D
C606   C610    1.378   .     A
C606   C1236   1.418   1_554 S
C606   C1255   1.417   1_554 S
C607   C608    1.390   .     A
C607   C1241   1.416   .     S
C607   C1254   1.417   .     S
C608   H621    1.081   .     S
C608   C609    1.384   .     A
C609   H624    1.080   .     S
C610   H622    1.082   .     S
C611   H612    1.084   .     S
H615   O634    0.978   .     S
H623   C1244   1.084   1_554 S
H627   O631    0.990   .     S
N628   Zn647   2.031   .     S
N629   Zn648   2.030   .     S
O630   Zn647   1.990   .     S
O636   C1251   1.221   1_554 S
O639   Zn648   1.980   .     S
O640   Zn647   1.989   .     S
O641   Zn648   1.953   .     S
O642   Zn647   1.980   .     S
O643   Zn648   1.990   .     S
O644   Zn647   1.953   .     S
O645   Zn648   1.989   .     S
C649   O702    1.287   .     A
C649   O711    1.287   .     A
C649   C657    1.408   .     S
C650   C652    1.484   .     S
C650   C671    1.423   .     A
C650   C667    1.412   .     A
C651   H697    1.086   .     S
C651   C657    1.389   .     A
C651   C869    1.377   .     S
C652   O712    1.317   .     A
C652   O713    1.294   .     A
C653   C654    1.406   .     A
C653   C670    1.489   .     S
C653   C1083   1.377   1_545 S
C654   C655    1.404   .     A
C654   C663    1.413   .     S
C655   O703    1.384   .     S
C655   C1088   1.399   1_545 S
C656   C672    1.493   .     S
C656   C657    1.406   .     A
C656   C871    1.399   .     S
C658   C673    1.479   .     S
C658   N701    1.389   .     A
C658   C731    1.418   .     S
C659   N700    1.355   .     A
C659   H692    1.083   .     S
C659   C802    1.418   1_455 S
C660   C671    1.408   .     A
C660   C21     1.429   1_556 S
C660   C30     1.418   1_556 S
C661   N700    1.375   .     A
C661   O706    1.376   .     S
C661   C806    1.430   1_455 S
C662   N701    1.384   .     A
C662   C674    1.496   .     S
C662   C733    1.430   .     S
C663   O715    1.288   .     A
C663   O714    1.287   .     A
C664   O716    1.296   .     A
C664   C666    1.443   .     S
C664   O717    1.299   .     A
C665   C683    1.402   .     A
C666   C682    1.388   .     A
C666   C683    1.399   .     A
C667   C668    1.400   .     A
C667   C676    1.486   .     S
C668   C21     1.398   1_556 S
C668   H47     1.084   1_556 S
C669   C677    1.486   .     S
C670   H698    1.080   .     S
C670   O718    1.222   .     D
C671   C681    1.419   .     A
C672   O704    1.221   .     D
C672   H685    1.083   .     S
C673   O705    1.214   .     D
C673   H758    1.086   .     S
C674   H688    1.065   .     S
C674   O707    1.221   .     D
C675   H689    1.082   .     S
C675   C17     1.486   1_556 S
C675   O60     1.221   1_556 S
C676   O709    1.221   .     D
C676   H690    1.083   .     S
C677   H691    1.085   .     S
C677   O710    1.221   .     D
C678   C682    1.378   .     A
C679   C680    1.390   .     A
C679   C17     1.416   1_556 S
C679   C30     1.417   1_556 S
C680   H693    1.081   .     S
C680   C681    1.384   .     A
C681   H696    1.080   .     S
C682   H694    1.082   .     S
C683   H684    1.084   .     S
H686   C817    1.086   1_455 S
H687   O706    0.978   .     S
H699   O703    0.990   .     S
N700   Zn719   2.031   .     S
N701   Zn720   2.030   .     S
O702   Zn719   1.990   .     S
O711   Zn720   1.980   .     S
O712   Zn719   1.989   .     S
O713   Zn720   1.953   .     S
O714   Zn719   1.980   .     S
O715   Zn720   1.990   .     S
O716   Zn719   1.953   .     S
O717   Zn720   1.989   .     S
C721   O774    1.287   .     A
C721   O783    1.287   .     A
C721   C729    1.408   .     S
C722   C724    1.484   .     S
C722   C743    1.423   .     A
C722   C739    1.412   .     A
C723   H769    1.086   .     S
C723   C729    1.389   .     A
C723   C941    1.377   .     S
C724   O784    1.317   .     A
C724   O785    1.294   .     A
C725   C726    1.406   .     A
C725   C742    1.489   .     S
C725   C1155   1.377   1_545 S
C726   C727    1.404   .     A
C726   C735    1.413   .     S
C727   O775    1.384   .     S
C727   C1160   1.399   1_545 S
C728   C744    1.493   .     S
C728   C729    1.406   .     A
C728   C943    1.399   .     S
C730   C745    1.479   .     S
C730   N773    1.389   .     A
C730   C803    1.418   .     S
C731   N772    1.355   .     A
C731   H764    1.083   .     S
C732   C743    1.408   .     A
C732   C93     1.429   1_556 S
C732   C102    1.418   1_556 S
C733   N772    1.375   .     A
C733   O778    1.376   .     S
C734   N773    1.384   .     A
C734   C746    1.496   .     S
C734   C805    1.430   .     S
C735   O787    1.288   .     A
C735   O786    1.287   .     A
C736   O788    1.296   .     A
C736   C738    1.443   .     S
C736   O789    1.299   .     A
C737   C755    1.402   .     A
C738   C754    1.388   .     A
C738   C755    1.399   .     A
C739   C740    1.400   .     A
C739   C748    1.486   .     S
C740   C93     1.398   1_556 S
C740   H119    1.084   1_556 S
C741   C749    1.486   .     S
C742   H770    1.080   .     S
C742   O790    1.222   .     D
C743   C753    1.419   .     A
C744   O776    1.221   .     D
C744   H757    1.083   .     S
C745   O777    1.214   .     D
C745   H830    1.086   .     S
C746   H760    1.065   .     S
C746   O779    1.221   .     D
C747   H761    1.082   .     S
C747   C89     1.486   1_556 S
C747   O132    1.221   1_556 S
C748   O781    1.221   .     D
C748   H762    1.083   .     S
C749   H763    1.085   .     S
C749   O782    1.221   .     D
C750   C754    1.378   .     A
C751   C752    1.390   .     A
C751   C89     1.416   1_556 S
C751   C102    1.417   1_556 S
C752   H765    1.081   .     S
C752   C753    1.384   .     A
C753   H768    1.080   .     S
C754   H766    1.082   .     S
C755   H756    1.084   .     S
H759   O778    0.978   .     S
H771   O775    0.990   .     S
N772   Zn791   2.031   .     S
N773   Zn792   2.030   .     S
O774   Zn791   1.990   .     S
O783   Zn792   1.980   .     S
O784   Zn791   1.989   .     S
O785   Zn792   1.953   .     S
O786   Zn791   1.980   .     S
O787   Zn792   1.990   .     S
O788   Zn791   1.953   .     S
O789   Zn792   1.989   .     S
C793   O846    1.287   .     A
C793   O855    1.287   .     A
C793   C801    1.408   .     S
C794   C796    1.484   .     S
C794   C815    1.423   .     A
C794   C811    1.412   .     A
C795   H841    1.086   .     S
C795   C801    1.389   .     A
C795   C1013   1.377   .     S
C796   O856    1.317   .     A
C796   O857    1.294   .     A
C797   C798    1.406   .     A
C797   C814    1.489   .     S
C797   C1227   1.377   1_545 S
C798   C799    1.404   .     A
C798   C807    1.413   .     S
C799   O847    1.384   .     S
C799   C1232   1.399   1_545 S
C800   C816    1.493   .     S
C800   C801    1.406   .     A
C800   C1015   1.399   .     S
C802   C817    1.479   .     S
C802   N845    1.389   .     A
C802   C659    1.418   1_655 S
C803   N844    1.355   .     A
C803   H836    1.083   .     S
C804   C815    1.408   .     A
C804   C165    1.429   1_556 S
C804   C174    1.418   1_556 S
C805   N844    1.375   .     A
C805   O850    1.376   .     S
C806   N845    1.384   .     A
C806   C818    1.496   .     S
C806   C661    1.430   1_655 S
C807   O859    1.288   .     A
C807   O858    1.287   .     A
C808   O860    1.296   .     A
C808   C810    1.443   .     S
C808   O861    1.299   .     A
C809   C827    1.402   .     A
C810   C826    1.388   .     A
C810   C827    1.399   .     A
C811   C812    1.400   .     A
C811   C820    1.486   .     S
C812   C165    1.398   1_556 S
C812   H191    1.084   1_556 S
C813   C821    1.486   .     S
C814   H842    1.080   .     S
C814   O862    1.222   .     D
C815   C825    1.419   .     A
C816   O848    1.221   .     D
C816   H829    1.083   .     S
C817   O849    1.214   .     D
C817   H686    1.086   1_655 S
C818   H832    1.065   .     S
C818   O851    1.221   .     D
C819   H833    1.082   .     S
C819   C161    1.486   1_556 S
C819   O204    1.221   1_556 S
C820   O853    1.221   .     D
C820   H834    1.083   .     S
C821   H835    1.085   .     S
C821   O854    1.221   .     D
C822   C826    1.378   .     A
C823   C824    1.390   .     A
C823   C161    1.416   1_556 S
C823   C174    1.417   1_556 S
C824   H837    1.081   .     S
C824   C825    1.384   .     A
C825   H840    1.080   .     S
C826   H838    1.082   .     S
C827   H828    1.084   .     S
H831   O850    0.978   .     S
H843   O847    0.990   .     S
N844   Zn863   2.031   .     S
N845   Zn864   2.030   .     S
O846   Zn863   1.990   .     S
O855   Zn864   1.980   .     S
O856   Zn863   1.989   .     S
O857   Zn864   1.953   .     S
O858   Zn863   1.980   .     S
O859   Zn864   1.990   .     S
O860   Zn863   1.953   .     S
O861   Zn864   1.989   .     S
C865   O918    1.287   .     A
C865   O927    1.287   .     A
C865   C873    1.408   .     S
C866   C868    1.484   .     S
C866   C887    1.423   .     A
C866   C883    1.412   .     A
C867   H913    1.086   .     S
C867   C873    1.389   .     A
C867   C1085   1.377   .     S
C868   O928    1.317   .     A
C868   O929    1.294   .     A
C869   C870    1.406   .     A
C869   C886    1.489   .     S
C870   C871    1.404   .     A
C870   C879    1.413   .     S
C871   O919    1.384   .     S
C872   C888    1.493   .     S
C872   C873    1.406   .     A
C872   C1087   1.399   .     S
C874   C889    1.479   .     S
C874   N917    1.389   .     A
C874   C947    1.418   .     S
C875   N916    1.355   .     A
C875   H908    1.083   .     S
C875   C1018   1.418   1_455 S
C876   C887    1.408   .     A
C876   C237    1.429   1_556 S
C876   C246    1.418   1_556 S
C877   N916    1.375   .     A
C877   O922    1.376   .     S
C877   C1022   1.430   1_455 S
C878   N917    1.384   .     A
C878   C890    1.496   .     S
C878   C949    1.430   .     S
C879   O931    1.288   .     A
C879   O930    1.287   .     A
C880   O932    1.296   .     A
C880   C882    1.443   .     S
C880   O933    1.299   .     A
C881   C899    1.402   .     A
C882   C898    1.388   .     A
C882   C899    1.399   .     A
C883   C884    1.400   .     A
C883   C892    1.486   .     S
C884   C237    1.398   1_556 S
C884   H263    1.084   1_556 S
C885   C893    1.486   .     S
C886   H914    1.080   .     S
C886   O934    1.222   .     D
C887   C897    1.419   .     A
C888   O920    1.221   .     D
C888   H901    1.083   .     S
C889   O921    1.214   .     D
C889   H974    1.086   .     S
C890   H904    1.065   .     S
C890   O923    1.221   .     D
C891   H905    1.082   .     S
C891   C233    1.486   1_556 S
C891   O276    1.221   1_556 S
C892   O925    1.221   .     D
C892   H906    1.083   .     S
C893   H907    1.085   .     S
C893   O926    1.221   .     D
C894   C898    1.378   .     A
C895   C896    1.390   .     A
C895   C233    1.416   1_556 S
C895   C246    1.417   1_556 S
C896   H909    1.081   .     S
C896   C897    1.384   .     A
C897   H912    1.080   .     S
C898   H910    1.082   .     S
C899   H900    1.084   .     S
H902   C1033   1.086   1_455 S
H903   O922    0.978   .     S
H915   O919    0.990   .     S
N916   Zn935   2.031   .     S
N917   Zn936   2.030   .     S
O918   Zn935   1.990   .     S
O927   Zn936   1.980   .     S
O928   Zn935   1.989   .     S
O929   Zn936   1.953   .     S
O930   Zn935   1.980   .     S
O931   Zn936   1.990   .     S
O932   Zn935   1.953   .     S
O933   Zn936   1.989   .     S
C937   O990    1.287   .     A
C937   O999    1.287   .     A
C937   C945    1.408   .     S
C938   C940    1.484   .     S
C938   C959    1.423   .     A
C938   C955    1.412   .     A
C939   H985    1.086   .     S
C939   C945    1.389   .     A
C939   C1157   1.377   .     S
C940   O1000   1.317   .     A
C940   O1001   1.294   .     A
C941   C942    1.406   .     A
C941   C958    1.489   .     S
C942   C943    1.404   .     A
C942   C951    1.413   .     S
C943   O991    1.384   .     S
C944   C960    1.493   .     S
C944   C945    1.406   .     A
C944   C1159   1.399   .     S
C946   C961    1.479   .     S
C946   N989    1.389   .     A
C946   C1019   1.418   .     S
C947   N988    1.355   .     A
C947   H980    1.083   .     S
C948   C959    1.408   .     A
C948   C309    1.429   1_556 S
C948   C318    1.418   1_556 S
C949   N988    1.375   .     A
C949   O994    1.376   .     S
C950   N989    1.384   .     A
C950   C962    1.496   .     S
C950   C1021   1.430   .     S
C951   O1003   1.288   .     A
C951   O1002   1.287   .     A
C952   O1004   1.296   .     A
C952   C954    1.443   .     S
C952   O1005   1.299   .     A
C953   C971    1.402   .     A
C954   C970    1.388   .     A
C954   C971    1.399   .     A
C955   C956    1.400   .     A
C955   C964    1.486   .     S
C956   C309    1.398   1_556 S
C956   H335    1.084   1_556 S
C957   C965    1.486   .     S
C958   H986    1.080   .     S
C958   O1006   1.222   .     D
C959   C969    1.419   .     A
C960   O992    1.221   .     D
C960   H973    1.083   .     S
C961   O993    1.214   .     D
C961   H1046   1.086   .     S
C962   H976    1.065   .     S
C962   O995    1.221   .     D
C963   H977    1.082   .     S
C963   C305    1.486   1_556 S
C963   O348    1.221   1_556 S
C964   O997    1.221   .     D
C964   H978    1.083   .     S
C965   H979    1.085   .     S
C965   O998    1.221   .     D
C966   C970    1.378   .     A
C967   C968    1.390   .     A
C967   C305    1.416   1_556 S
C967   C318    1.417   1_556 S
C968   H981    1.081   .     S
C968   C969    1.384   .     A
C969   H984    1.080   .     S
C970   H982    1.082   .     S
C971   H972    1.084   .     S
H975   O994    0.978   .     S
H987   O991    0.990   .     S
N988   Zn1007  2.031   .     S
N989   Zn1008  2.030   .     S
O990   Zn1007  1.990   .     S
O999   Zn1008  1.980   .     S
O1000  Zn1007  1.989   .     S
O1001  Zn1008  1.953   .     S
O1002  Zn1007  1.980   .     S
O1003  Zn1008  1.990   .     S
O1004  Zn1007  1.953   .     S
O1005  Zn1008  1.989   .     S
C1009  O1062   1.287   .     A
C1009  O1071   1.287   .     A
C1009  C1017   1.408   .     S
C1010  C1012   1.484   .     S
C1010  C1031   1.423   .     A
C1010  C1027   1.412   .     A
C1011  H1057   1.086   .     S
C1011  C1017   1.389   .     A
C1011  C1229   1.377   .     S
C1012  O1072   1.317   .     A
C1012  O1073   1.294   .     A
C1013  C1014   1.406   .     A
C1013  C1030   1.489   .     S
C1014  C1015   1.404   .     A
C1014  C1023   1.413   .     S
C1015  O1063   1.384   .     S
C1016  C1032   1.493   .     S
C1016  C1017   1.406   .     A
C1016  C1231   1.399   .     S
C1018  C1033   1.479   .     S
C1018  N1061   1.389   .     A
C1018  C875    1.418   1_655 S
C1019  N1060   1.355   .     A
C1019  H1052   1.083   .     S
C1020  C1031   1.408   .     A
C1020  C381    1.429   1_556 S
C1020  C390    1.418   1_556 S
C1021  N1060   1.375   .     A
C1021  O1066   1.376   .     S
C1022  N1061   1.384   .     A
C1022  C1034   1.496   .     S
C1022  C877    1.430   1_655 S
C1023  O1075   1.288   .     A
C1023  O1074   1.287   .     A
C1024  O1076   1.296   .     A
C1024  C1026   1.443   .     S
C1024  O1077   1.299   .     A
C1025  C1043   1.402   .     A
C1026  C1042   1.388   .     A
C1026  C1043   1.399   .     A
C1027  C1028   1.400   .     A
C1027  C1036   1.486   .     S
C1028  C381    1.398   1_556 S
C1028  H407    1.084   1_556 S
C1029  C1037   1.486   .     S
C1030  H1058   1.080   .     S
C1030  O1078   1.222   .     D
C1031  C1041   1.419   .     A
C1032  O1064   1.221   .     D
C1032  H1045   1.083   .     S
C1033  O1065   1.214   .     D
C1033  H902    1.086   1_655 S
C1034  H1048   1.065   .     S
C1034  O1067   1.221   .     D
C1035  H1049   1.082   .     S
C1035  C377    1.486   1_556 S
C1035  O420    1.221   1_556 S
C1036  O1069   1.221   .     D
C1036  H1050   1.083   .     S
C1037  H1051   1.085   .     S
C1037  O1070   1.221   .     D
C1038  C1042   1.378   .     A
C1039  C1040   1.390   .     A
C1039  C377    1.416   1_556 S
C1039  C390    1.417   1_556 S
C1040  H1053   1.081   .     S
C1040  C1041   1.384   .     A
C1041  H1056   1.080   .     S
C1042  H1054   1.082   .     S
C1043  H1044   1.084   .     S
H1047  O1066   0.978   .     S
H1059  O1063   0.990   .     S
N1060  Zn1079  2.031   .     S
N1061  Zn1080  2.030   .     S
O1062  Zn1079  1.990   .     S
O1071  Zn1080  1.980   .     S
O1072  Zn1079  1.989   .     S
O1073  Zn1080  1.953   .     S
O1074  Zn1079  1.980   .     S
O1075  Zn1080  1.990   .     S
O1076  Zn1079  1.953   .     S
O1077  Zn1080  1.989   .     S
C1081  O1134   1.287   .     A
C1081  O1143   1.287   .     A
C1081  C1089   1.408   .     S
C1082  C1084   1.484   .     S
C1082  C1103   1.423   .     A
C1082  C1099   1.412   .     A
C1083  H1129   1.086   .     S
C1083  C1089   1.389   .     A
C1083  C653    1.377   1_565 S
C1084  O1144   1.317   .     A
C1084  O1145   1.294   .     A
C1085  C1086   1.406   .     A
C1085  C1102   1.489   .     S
C1086  C1087   1.404   .     A
C1086  C1095   1.413   .     S
C1087  O1135   1.384   .     S
C1088  C1104   1.493   .     S
C1088  C1089   1.406   .     A
C1088  C655    1.399   1_565 S
C1090  C1105   1.479   .     S
C1090  N1133   1.389   .     A
C1090  C1163   1.418   .     S
C1091  N1132   1.355   .     A
C1091  H1124   1.083   .     S
C1091  C1234   1.418   1_455 S
C1092  C1103   1.408   .     A
C1092  C453    1.429   1_556 S
C1092  C462    1.418   1_556 S
C1093  N1132   1.375   .     A
C1093  O1138   1.376   .     S
C1093  C1238   1.430   1_455 S
C1094  N1133   1.384   .     A
C1094  C1106   1.496   .     S
C1094  C1165   1.430   .     S
C1095  O1147   1.288   .     A
C1095  O1146   1.287   .     A
C1096  O1148   1.296   .     A
C1096  C1098   1.443   .     S
C1096  O1149   1.299   .     A
C1097  C1115   1.402   .     A
C1098  C1114   1.388   .     A
C1098  C1115   1.399   .     A
C1099  C1100   1.400   .     A
C1099  C1108   1.486   .     S
C1100  C453    1.398   1_556 S
C1100  H479    1.084   1_556 S
C1101  C1109   1.486   .     S
C1102  H1130   1.080   .     S
C1102  O1150   1.222   .     D
C1103  C1113   1.419   .     A
C1104  O1136   1.221   .     D
C1104  H1117   1.083   .     S
C1105  O1137   1.214   .     D
C1105  H1190   1.086   .     S
C1106  H1120   1.065   .     S
C1106  O1139   1.221   .     D
C1107  H1121   1.082   .     S
C1107  C449    1.486   1_556 S
C1107  O492    1.221   1_556 S
C1108  O1141   1.221   .     D
C1108  H1122   1.083   .     S
C1109  H1123   1.085   .     S
C1109  O1142   1.221   .     D
C1110  C1114   1.378   .     A
C1111  C1112   1.390   .     A
C1111  C449    1.416   1_556 S
C1111  C462    1.417   1_556 S
C1112  H1125   1.081   .     S
C1112  C1113   1.384   .     A
C1113  H1128   1.080   .     S
C1114  H1126   1.082   .     S
C1115  H1116   1.084   .     S
H1118  C1249   1.086   1_455 S
H1119  O1138   0.978   .     S
H1131  O1135   0.990   .     S
N1132  Zn1151  2.031   .     S
N1133  Zn1152  2.030   .     S
O1134  Zn1151  1.990   .     S
O1143  Zn1152  1.980   .     S
O1144  Zn1151  1.989   .     S
O1145  Zn1152  1.953   .     S
O1146  Zn1151  1.980   .     S
O1147  Zn1152  1.990   .     S
O1148  Zn1151  1.953   .     S
O1149  Zn1152  1.989   .     S
C1153  O1206   1.287   .     A
C1153  O1215   1.287   .     A
C1153  C1161   1.408   .     S
C1154  C1156   1.484   .     S
C1154  C1175   1.423   .     A
C1154  C1171   1.412   .     A
C1155  H1201   1.086   .     S
C1155  C1161   1.389   .     A
C1155  C725    1.377   1_565 S
C1156  O1216   1.317   .     A
C1156  O1217   1.294   .     A
C1157  C1158   1.406   .     A
C1157  C1174   1.489   .     S
C1158  C1159   1.404   .     A
C1158  C1167   1.413   .     S
C1159  O1207   1.384   .     S
C1160  C1176   1.493   .     S
C1160  C1161   1.406   .     A
C1160  C727    1.399   1_565 S
C1162  C1177   1.479   .     S
C1162  N1205   1.389   .     A
C1162  C1235   1.418   .     S
C1163  N1204   1.355   .     A
C1163  H1196   1.083   .     S
C1164  C1175   1.408   .     A
C1164  C525    1.429   1_556 S
C1164  C534    1.418   1_556 S
C1165  N1204   1.375   .     A
C1165  O1210   1.376   .     S
C1166  N1205   1.384   .     A
C1166  C1178   1.496   .     S
C1166  C1237   1.430   .     S
C1167  O1219   1.288   .     A
C1167  O1218   1.287   .     A
C1168  O1220   1.296   .     A
C1168  C1170   1.443   .     S
C1168  O1221   1.299   .     A
C1169  C1187   1.402   .     A
C1170  C1186   1.388   .     A
C1170  C1187   1.399   .     A
C1171  C1172   1.400   .     A
C1171  C1180   1.486   .     S
C1172  C525    1.398   1_556 S
C1172  H551    1.084   1_556 S
C1173  C1181   1.486   .     S
C1174  H1202   1.080   .     S
C1174  O1222   1.222   .     D
C1175  C1185   1.419   .     A
C1176  O1208   1.221   .     D
C1176  H1189   1.083   .     S
C1177  O1209   1.214   .     D
C1177  H1262   1.086   .     S
C1178  H1192   1.065   .     S
C1178  O1211   1.221   .     D
C1179  H1193   1.082   .     S
C1179  C521    1.486   1_556 S
C1179  O564    1.221   1_556 S
C1180  O1213   1.221   .     D
C1180  H1194   1.083   .     S
C1181  H1195   1.085   .     S
C1181  O1214   1.221   .     D
C1182  C1186   1.378   .     A
C1183  C1184   1.390   .     A
C1183  C521    1.416   1_556 S
C1183  C534    1.417   1_556 S
C1184  H1197   1.081   .     S
C1184  C1185   1.384   .     A
C1185  H1200   1.080   .     S
C1186  H1198   1.082   .     S
C1187  H1188   1.084   .     S
H1191  O1210   0.978   .     S
H1203  O1207   0.990   .     S
N1204  Zn1223  2.031   .     S
N1205  Zn1224  2.030   .     S
O1206  Zn1223  1.990   .     S
O1215  Zn1224  1.980   .     S
O1216  Zn1223  1.989   .     S
O1217  Zn1224  1.953   .     S
O1218  Zn1223  1.980   .     S
O1219  Zn1224  1.990   .     S
O1220  Zn1223  1.953   .     S
O1221  Zn1224  1.989   .     S
C1225  O1278   1.287   .     A
C1225  O1287   1.287   .     A
C1225  C1233   1.408   .     S
C1226  C1228   1.484   .     S
C1226  C1247   1.423   .     A
C1226  C1243   1.412   .     A
C1227  H1273   1.086   .     S
C1227  C1233   1.389   .     A
C1227  C797    1.377   1_565 S
C1228  O1288   1.317   .     A
C1228  O1289   1.294   .     A
C1229  C1230   1.406   .     A
C1229  C1246   1.489   .     S
C1230  C1231   1.404   .     A
C1230  C1239   1.413   .     S
C1231  O1279   1.384   .     S
C1232  C1248   1.493   .     S
C1232  C1233   1.406   .     A
C1232  C799    1.399   1_565 S
C1234  C1249   1.479   .     S
C1234  N1277   1.389   .     A
C1234  C1091   1.418   1_655 S
C1235  N1276   1.355   .     A
C1235  H1268   1.083   .     S
C1236  C1247   1.408   .     A
C1236  C597    1.429   1_556 S
C1236  C606    1.418   1_556 S
C1237  N1276   1.375   .     A
C1237  O1282   1.376   .     S
C1238  N1277   1.384   .     A
C1238  C1250   1.496   .     S
C1238  C1093   1.430   1_655 S
C1239  O1291   1.288   .     A
C1239  O1290   1.287   .     A
C1240  O1292   1.296   .     A
C1240  C1242   1.443   .     S
C1240  O1293   1.299   .     A
C1241  C1259   1.402   .     A
C1242  C1258   1.388   .     A
C1242  C1259   1.399   .     A
C1243  C1244   1.400   .     A
C1243  C1252   1.486   .     S
C1244  C597    1.398   1_556 S
C1244  H623    1.084   1_556 S
C1245  C1253   1.486   .     S
C1246  H1274   1.080   .     S
C1246  O1294   1.222   .     D
C1247  C1257   1.419   .     A
C1248  O1280   1.221   .     D
C1248  H1261   1.083   .     S
C1249  O1281   1.214   .     D
C1249  H1118   1.086   1_655 S
C1250  H1264   1.065   .     S
C1250  O1283   1.221   .     D
C1251  H1265   1.082   .     S
C1251  C593    1.486   1_556 S
C1251  O636    1.221   1_556 S
C1252  O1285   1.221   .     D
C1252  H1266   1.083   .     S
C1253  H1267   1.085   .     S
C1253  O1286   1.221   .     D
C1254  C1258   1.378   .     A
C1255  C1256   1.390   .     A
C1255  C593    1.416   1_556 S
C1255  C606    1.417   1_556 S
C1256  H1269   1.081   .     S
C1256  C1257   1.384   .     A
C1257  H1272   1.080   .     S
C1258  H1270   1.082   .     S
C1259  H1260   1.084   .     S
H1263  O1282   0.978   .     S
H1275  O1279   0.990   .     S
N1276  Zn1295  2.031   .     S
N1277  Zn1296  2.030   .     S
O1278  Zn1295  1.990   .     S
O1287  Zn1296  1.980   .     S
O1288  Zn1295  1.989   .     S
O1289  Zn1296  1.953   .     S
O1290  Zn1295  1.980   .     S
O1291  Zn1296  1.990   .     S
O1292  Zn1295  1.953   .     S
O1293  Zn1296  1.989   .     S
