data_str_m3_o2_o10_pcu_sym.251
_audit_creation_date              2020-01-03
_audit_creation_method            'Materials Studio'
_symmetry_space_group_name_H-M    'P1'
_symmetry_Int_Tables_number       1
_symmetry_cell_setting            triclinic
loop_
_symmetry_equiv_pos_as_xyz
  x,y,z
_cell_length_a                    25.8358
_cell_length_b                    29.6845
_cell_length_c                    28.6133
_cell_angle_alpha                 91.3055
_cell_angle_beta                  98.7630
_cell_angle_gamma                 90.7531
loop_
_atom_site_label
_atom_site_type_symbol
_atom_site_fract_x
_atom_site_fract_y
_atom_site_fract_z
_atom_site_U_iso_or_equiv
_atom_site_adp_type
_atom_site_occupancy
O1     O     0.16667   0.18453   0.28974   0.00000  Uiso   1.00
O2     O     0.16666   0.31546   0.21026   0.00000  Uiso   1.00
O3     O     0.16667   0.18453   0.21026   0.00000  Uiso   1.00
O4     O     0.16666   0.31547   0.28974   0.00000  Uiso   1.00
C5     C     0.16631   0.16389   0.24944   0.00000  Uiso   1.00
C6     C     0.16508   0.33629   0.25033   0.00000  Uiso   1.00
O7     O     0.09058   0.25000   0.28045   0.00000  Uiso   1.00
O8     O     0.24275   0.25000   0.21956   0.00000  Uiso   1.00
O9     O     0.09058   0.24999   0.20097   0.00000  Uiso   1.00
O10    O     0.24275   0.25000   0.29904   0.00000  Uiso   1.00
C11    C     0.06721   0.25025   0.23768   0.00000  Uiso   1.00
C12    C     0.26619   0.25090   0.26207   0.00000  Uiso   1.00
Zn13   Zn    0.16667   0.25000   0.30307   0.00000  Uiso   1.00
Zn14   Zn    0.16667   0.24999   0.19693   0.00000  Uiso   1.00
C15    C     0.01273   0.24388   0.23183   0.00000  Uiso   1.00
C16    C     0.32040   0.25967   0.26632   0.00000  Uiso   1.00
C17    C     0.10661   0.05131   0.25868   0.00000  Uiso   1.00
C18    C     0.11625   0.44731   0.20677   0.00000  Uiso   1.00
C19    C     0.11635   0.09718   0.26318   0.00000  Uiso   1.00
C20    C     0.12498   0.40156   0.20985   0.00000  Uiso   1.00
H21    H     0.09005   0.11840   0.27963   0.00000  Uiso   1.00
H22    H     0.10815   0.37948   0.18063   0.00000  Uiso   1.00
C23    C     0.15995   0.11578   0.24689   0.00000  Uiso   1.00
C24    C     0.15548   0.38427   0.24997   0.00000  Uiso   1.00
C25    C     0.19379   0.08906   0.22446   0.00000  Uiso   1.00
C26    C     0.17463   0.41272   0.28897   0.00000  Uiso   1.00
C27    C     0.18325   0.04283   0.21836   0.00000  Uiso   1.00
C28    C     0.16708   0.45904   0.28563   0.00000  Uiso   1.00
C29    C     0.14040   0.02415   0.23691   0.00000  Uiso   1.00
C30    C     0.13942   0.47609   0.24364   0.00000  Uiso   1.00
C31    C     0.14784   0.21142   0.04913   0.00000  Uiso   1.00
C32    C     0.21177   0.26293   0.45455   0.00000  Uiso   1.00
C33    C     0.14695   0.21321   0.09871   0.00000  Uiso   1.00
C34    C     0.21030   0.26420   0.40476   0.00000  Uiso   1.00
N35    N     0.16667   0.24999   0.12624   0.00000  Uiso   1.00
N36    N     0.16667   0.25001   0.37377   0.00000  Uiso   1.00
C37    C     0.18790   0.28525   0.10475   0.00000  Uiso   1.00
C38    C     0.12459   0.23316   0.39256   0.00000  Uiso   1.00
C39    C     0.18445   0.28641   0.05534   0.00000  Uiso   1.00
C40    C     0.12270   0.23627   0.44138   0.00000  Uiso   1.00
H41    H     0.19888   0.31601   0.03968   0.00000  Uiso   1.00
H42    H     0.08741   0.22535   0.45423   0.00000  Uiso   1.00
C43    C     0.16565   0.24917   0.02647   0.00000  Uiso   1.00
C44    C     0.16671   0.25003   0.47363   0.00000  Uiso   1.00
Br45   Br    0.31795   0.20355   0.17939   0.00000  Uiso   1.00
Br46   Br    0.01448   0.30684   0.31175   0.00000  Uiso   1.00
Br47   Br    0.04926   0.02659   0.28582   0.00000  Uiso   1.00
Br48   Br    0.07442   0.46948   0.15100   0.00000  Uiso   1.00
N49    N     0.24043   0.10833   0.21104   0.00000  Uiso   1.00
O50    O     0.27284   0.13146   0.24210   0.00000  Uiso   1.00
O51    O     0.25318   0.09927   0.16961   0.00000  Uiso   1.00
N52    N     0.20496   0.39547   0.33055   0.00000  Uiso   1.00
O53    O     0.18109   0.37956   0.36367   0.00000  Uiso   1.00
O54    O     0.25472   0.40534   0.33993   0.00000  Uiso   1.00
N55    N     0.21930   0.01416   0.19872   0.00000  Uiso   1.00
O56    O     0.26850   0.01421   0.21725   0.00000  Uiso   1.00
O57    O     0.20316   0.48816   0.16207   0.00000  Uiso   1.00
N58    N     0.18798   0.48861   0.32465   0.00000  Uiso   1.00
O59    O     0.22244   0.01972   0.31948   0.00000  Uiso   1.00
O60    O     0.17582   0.48204   0.36647   0.00000  Uiso   1.00
Br61   Br    0.12764   0.15583   0.01435   0.00000  Uiso   1.00
Br62   Br    0.27783   0.27463   0.49502   0.00000  Uiso   1.00
N63    N     0.12638   0.17538   0.12010   0.00000  Uiso   1.00
O64    O     0.15085   0.13729   0.12176   0.00000  Uiso   1.00
O65    O     0.07896   0.17647   0.12987   0.00000  Uiso   1.00
N66    N     0.25688   0.27723   0.38745   0.00000  Uiso   1.00
O67    O     0.26767   0.31988   0.38499   0.00000  Uiso   1.00
O68    O     0.29472   0.24852   0.38916   0.00000  Uiso   1.00
Br69   Br    0.22980   0.33206   0.13952   0.00000  Uiso   1.00
Br70   Br    0.07078   0.19631   0.35660   0.00000  Uiso   1.00
O71    O     0.50000   0.18453   0.28974   0.00000  Uiso   1.00
O72    O     0.50000   0.31546   0.21026   0.00000  Uiso   1.00
O73    O     0.50000   0.18453   0.21026   0.00000  Uiso   1.00
O74    O     0.50000   0.31547   0.28974   0.00000  Uiso   1.00
C75    C     0.49964   0.16389   0.24944   0.00000  Uiso   1.00
C76    C     0.49842   0.33629   0.25033   0.00000  Uiso   1.00
O77    O     0.42392   0.25000   0.28045   0.00000  Uiso   1.00
O78    O     0.57608   0.25000   0.21956   0.00000  Uiso   1.00
O79    O     0.42392   0.24999   0.20097   0.00000  Uiso   1.00
O80    O     0.57608   0.25000   0.29904   0.00000  Uiso   1.00
C81    C     0.40054   0.25025   0.23768   0.00000  Uiso   1.00
C82    C     0.59952   0.25090   0.26207   0.00000  Uiso   1.00
Zn83   Zn    0.50000   0.25000   0.30307   0.00000  Uiso   1.00
Zn84   Zn    0.50000   0.24999   0.19693   0.00000  Uiso   1.00
C85    C     0.34606   0.24388   0.23183   0.00000  Uiso   1.00
C86    C     0.65374   0.25967   0.26632   0.00000  Uiso   1.00
C87    C     0.43994   0.05131   0.25868   0.00000  Uiso   1.00
C88    C     0.44958   0.44731   0.20677   0.00000  Uiso   1.00
C89    C     0.44968   0.09718   0.26318   0.00000  Uiso   1.00
C90    C     0.45832   0.40156   0.20985   0.00000  Uiso   1.00
H91    H     0.42338   0.11840   0.27963   0.00000  Uiso   1.00
H92    H     0.44148   0.37948   0.18063   0.00000  Uiso   1.00
C93    C     0.49328   0.11578   0.24689   0.00000  Uiso   1.00
C94    C     0.48881   0.38427   0.24997   0.00000  Uiso   1.00
C95    C     0.52712   0.08906   0.22446   0.00000  Uiso   1.00
C96    C     0.50797   0.41272   0.28897   0.00000  Uiso   1.00
C97    C     0.51659   0.04283   0.21836   0.00000  Uiso   1.00
C98    C     0.50041   0.45904   0.28563   0.00000  Uiso   1.00
C99    C     0.47374   0.02415   0.23691   0.00000  Uiso   1.00
C100   C     0.47276   0.47609   0.24364   0.00000  Uiso   1.00
C101   C     0.48117   0.21142   0.04913   0.00000  Uiso   1.00
C102   C     0.54510   0.26293   0.45455   0.00000  Uiso   1.00
C103   C     0.48028   0.21321   0.09871   0.00000  Uiso   1.00
C104   C     0.54363   0.26420   0.40476   0.00000  Uiso   1.00
N105   N     0.50000   0.24999   0.12624   0.00000  Uiso   1.00
N106   N     0.50000   0.25001   0.37377   0.00000  Uiso   1.00
C107   C     0.52123   0.28525   0.10475   0.00000  Uiso   1.00
C108   C     0.45792   0.23316   0.39256   0.00000  Uiso   1.00
C109   C     0.51778   0.28641   0.05534   0.00000  Uiso   1.00
C110   C     0.45603   0.23627   0.44138   0.00000  Uiso   1.00
H111   H     0.53221   0.31601   0.03968   0.00000  Uiso   1.00
H112   H     0.42074   0.22535   0.45423   0.00000  Uiso   1.00
C113   C     0.49899   0.24917   0.02647   0.00000  Uiso   1.00
C114   C     0.50004   0.25003   0.47363   0.00000  Uiso   1.00
Br115  Br    0.65129   0.20355   0.17939   0.00000  Uiso   1.00
Br116  Br    0.34781   0.30684   0.31175   0.00000  Uiso   1.00
Br117  Br    0.38260   0.02659   0.28582   0.00000  Uiso   1.00
Br118  Br    0.40776   0.46948   0.15100   0.00000  Uiso   1.00
N119   N     0.57377   0.10833   0.21104   0.00000  Uiso   1.00
O120   O     0.60617   0.13146   0.24210   0.00000  Uiso   1.00
O121   O     0.58652   0.09927   0.16961   0.00000  Uiso   1.00
N122   N     0.53829   0.39547   0.33055   0.00000  Uiso   1.00
O123   O     0.51442   0.37956   0.36367   0.00000  Uiso   1.00
O124   O     0.58805   0.40534   0.33993   0.00000  Uiso   1.00
N125   N     0.55263   0.01416   0.19872   0.00000  Uiso   1.00
O126   O     0.60183   0.01421   0.21725   0.00000  Uiso   1.00
O127   O     0.53649   0.48816   0.16207   0.00000  Uiso   1.00
N128   N     0.52131   0.48861   0.32465   0.00000  Uiso   1.00
O129   O     0.55578   0.01972   0.31948   0.00000  Uiso   1.00
O130   O     0.50915   0.48204   0.36647   0.00000  Uiso   1.00
Br131  Br    0.46098   0.15583   0.01435   0.00000  Uiso   1.00
Br132  Br    0.61116   0.27463   0.49502   0.00000  Uiso   1.00
N133   N     0.45971   0.17538   0.12010   0.00000  Uiso   1.00
O134   O     0.48418   0.13729   0.12176   0.00000  Uiso   1.00
O135   O     0.41229   0.17647   0.12987   0.00000  Uiso   1.00
N136   N     0.59021   0.27723   0.38745   0.00000  Uiso   1.00
O137   O     0.60101   0.31988   0.38499   0.00000  Uiso   1.00
O138   O     0.62805   0.24852   0.38916   0.00000  Uiso   1.00
Br139  Br    0.56314   0.33206   0.13952   0.00000  Uiso   1.00
Br140  Br    0.40412   0.19631   0.35660   0.00000  Uiso   1.00
O141   O     0.83334   0.18453   0.28974   0.00000  Uiso   1.00
O142   O     0.83333   0.31546   0.21026   0.00000  Uiso   1.00
O143   O     0.83334   0.18453   0.21026   0.00000  Uiso   1.00
O144   O     0.83333   0.31547   0.28974   0.00000  Uiso   1.00
C145   C     0.83298   0.16389   0.24944   0.00000  Uiso   1.00
C146   C     0.83175   0.33629   0.25033   0.00000  Uiso   1.00
O147   O     0.75725   0.25000   0.28045   0.00000  Uiso   1.00
O148   O     0.90942   0.25000   0.21956   0.00000  Uiso   1.00
O149   O     0.75725   0.24999   0.20097   0.00000  Uiso   1.00
O150   O     0.90942   0.25000   0.29904   0.00000  Uiso   1.00
C151   C     0.73388   0.25025   0.23768   0.00000  Uiso   1.00
C152   C     0.93286   0.25090   0.26207   0.00000  Uiso   1.00
Zn153  Zn    0.83333   0.25000   0.30307   0.00000  Uiso   1.00
Zn154  Zn    0.83333   0.24999   0.19693   0.00000  Uiso   1.00
C155   C     0.67940   0.24388   0.23183   0.00000  Uiso   1.00
C156   C     0.98707   0.25967   0.26632   0.00000  Uiso   1.00
C157   C     0.77327   0.05131   0.25868   0.00000  Uiso   1.00
C158   C     0.78291   0.44731   0.20677   0.00000  Uiso   1.00
C159   C     0.78301   0.09718   0.26318   0.00000  Uiso   1.00
C160   C     0.79165   0.40156   0.20985   0.00000  Uiso   1.00
H161   H     0.75672   0.11840   0.27963   0.00000  Uiso   1.00
H162   H     0.77482   0.37948   0.18063   0.00000  Uiso   1.00
C163   C     0.82662   0.11578   0.24689   0.00000  Uiso   1.00
C164   C     0.82215   0.38427   0.24997   0.00000  Uiso   1.00
C165   C     0.86046   0.08906   0.22446   0.00000  Uiso   1.00
C166   C     0.84130   0.41272   0.28897   0.00000  Uiso   1.00
C167   C     0.84992   0.04283   0.21836   0.00000  Uiso   1.00
C168   C     0.83374   0.45904   0.28563   0.00000  Uiso   1.00
C169   C     0.80707   0.02415   0.23691   0.00000  Uiso   1.00
C170   C     0.80609   0.47609   0.24364   0.00000  Uiso   1.00
C171   C     0.81451   0.21142   0.04913   0.00000  Uiso   1.00
C172   C     0.87843   0.26293   0.45455   0.00000  Uiso   1.00
C173   C     0.81362   0.21321   0.09871   0.00000  Uiso   1.00
C174   C     0.87696   0.26420   0.40476   0.00000  Uiso   1.00
N175   N     0.83333   0.24999   0.12624   0.00000  Uiso   1.00
N176   N     0.83333   0.25001   0.37377   0.00000  Uiso   1.00
C177   C     0.85457   0.28525   0.10475   0.00000  Uiso   1.00
C178   C     0.79126   0.23316   0.39256   0.00000  Uiso   1.00
C179   C     0.85112   0.28641   0.05534   0.00000  Uiso   1.00
C180   C     0.78937   0.23627   0.44138   0.00000  Uiso   1.00
H181   H     0.86555   0.31601   0.03968   0.00000  Uiso   1.00
H182   H     0.75407   0.22535   0.45423   0.00000  Uiso   1.00
C183   C     0.83232   0.24917   0.02647   0.00000  Uiso   1.00
C184   C     0.83338   0.25003   0.47363   0.00000  Uiso   1.00
Br185  Br    0.98462   0.20355   0.17939   0.00000  Uiso   1.00
Br186  Br    0.68115   0.30684   0.31175   0.00000  Uiso   1.00
Br187  Br    0.71593   0.02659   0.28582   0.00000  Uiso   1.00
Br188  Br    0.74109   0.46948   0.15100   0.00000  Uiso   1.00
N189   N     0.90710   0.10833   0.21104   0.00000  Uiso   1.00
O190   O     0.93950   0.13146   0.24210   0.00000  Uiso   1.00
O191   O     0.91985   0.09927   0.16961   0.00000  Uiso   1.00
N192   N     0.87162   0.39547   0.33055   0.00000  Uiso   1.00
O193   O     0.84775   0.37956   0.36367   0.00000  Uiso   1.00
O194   O     0.92139   0.40534   0.33993   0.00000  Uiso   1.00
N195   N     0.88597   0.01416   0.19872   0.00000  Uiso   1.00
O196   O     0.93516   0.01421   0.21725   0.00000  Uiso   1.00
O197   O     0.86982   0.48816   0.16207   0.00000  Uiso   1.00
N198   N     0.85465   0.48861   0.32465   0.00000  Uiso   1.00
O199   O     0.88911   0.01972   0.31948   0.00000  Uiso   1.00
O200   O     0.84249   0.48204   0.36647   0.00000  Uiso   1.00
Br201  Br    0.79431   0.15583   0.01435   0.00000  Uiso   1.00
Br202  Br    0.94450   0.27463   0.49502   0.00000  Uiso   1.00
N203   N     0.79304   0.17538   0.12010   0.00000  Uiso   1.00
O204   O     0.81751   0.13729   0.12176   0.00000  Uiso   1.00
O205   O     0.74562   0.17647   0.12987   0.00000  Uiso   1.00
N206   N     0.92354   0.27723   0.38745   0.00000  Uiso   1.00
O207   O     0.93434   0.31988   0.38499   0.00000  Uiso   1.00
O208   O     0.96139   0.24852   0.38916   0.00000  Uiso   1.00
Br209  Br    0.89647   0.33206   0.13952   0.00000  Uiso   1.00
Br210  Br    0.73745   0.19631   0.35660   0.00000  Uiso   1.00
O211   O     0.16667   0.68453   0.28974   0.00000  Uiso   1.00
O212   O     0.16666   0.81546   0.21026   0.00000  Uiso   1.00
O213   O     0.16667   0.68453   0.21026   0.00000  Uiso   1.00
O214   O     0.16666   0.81547   0.28974   0.00000  Uiso   1.00
C215   C     0.16631   0.66389   0.24944   0.00000  Uiso   1.00
C216   C     0.16508   0.83629   0.25033   0.00000  Uiso   1.00
O217   O     0.09058   0.75000   0.28045   0.00000  Uiso   1.00
O218   O     0.24275   0.75000   0.21956   0.00000  Uiso   1.00
O219   O     0.09058   0.74999   0.20097   0.00000  Uiso   1.00
O220   O     0.24275   0.75000   0.29904   0.00000  Uiso   1.00
C221   C     0.06721   0.75025   0.23768   0.00000  Uiso   1.00
C222   C     0.26619   0.75090   0.26207   0.00000  Uiso   1.00
Zn223  Zn    0.16667   0.75000   0.30307   0.00000  Uiso   1.00
Zn224  Zn    0.16667   0.74999   0.19693   0.00000  Uiso   1.00
C225   C     0.01273   0.74388   0.23183   0.00000  Uiso   1.00
C226   C     0.32040   0.75967   0.26632   0.00000  Uiso   1.00
C227   C     0.10661   0.55131   0.25868   0.00000  Uiso   1.00
C228   C     0.11625   0.94731   0.20677   0.00000  Uiso   1.00
C229   C     0.11635   0.59718   0.26318   0.00000  Uiso   1.00
C230   C     0.12498   0.90156   0.20985   0.00000  Uiso   1.00
H231   H     0.09005   0.61840   0.27963   0.00000  Uiso   1.00
H232   H     0.10815   0.87948   0.18063   0.00000  Uiso   1.00
C233   C     0.15995   0.61578   0.24689   0.00000  Uiso   1.00
C234   C     0.15548   0.88427   0.24997   0.00000  Uiso   1.00
C235   C     0.19379   0.58906   0.22446   0.00000  Uiso   1.00
C236   C     0.17463   0.91272   0.28897   0.00000  Uiso   1.00
C237   C     0.18325   0.54283   0.21836   0.00000  Uiso   1.00
C238   C     0.16708   0.95904   0.28563   0.00000  Uiso   1.00
C239   C     0.14040   0.52415   0.23691   0.00000  Uiso   1.00
C240   C     0.13942   0.97609   0.24364   0.00000  Uiso   1.00
C241   C     0.14784   0.71142   0.04913   0.00000  Uiso   1.00
C242   C     0.21177   0.76293   0.45455   0.00000  Uiso   1.00
C243   C     0.14695   0.71321   0.09871   0.00000  Uiso   1.00
C244   C     0.21030   0.76420   0.40476   0.00000  Uiso   1.00
N245   N     0.16667   0.74999   0.12624   0.00000  Uiso   1.00
N246   N     0.16667   0.75001   0.37377   0.00000  Uiso   1.00
C247   C     0.18790   0.78525   0.10475   0.00000  Uiso   1.00
C248   C     0.12459   0.73316   0.39256   0.00000  Uiso   1.00
C249   C     0.18445   0.78641   0.05534   0.00000  Uiso   1.00
C250   C     0.12270   0.73627   0.44138   0.00000  Uiso   1.00
H251   H     0.19888   0.81601   0.03968   0.00000  Uiso   1.00
H252   H     0.08741   0.72535   0.45423   0.00000  Uiso   1.00
C253   C     0.16565   0.74917   0.02647   0.00000  Uiso   1.00
C254   C     0.16671   0.75003   0.47363   0.00000  Uiso   1.00
Br255  Br    0.31795   0.70355   0.17939   0.00000  Uiso   1.00
Br256  Br    0.01448   0.80684   0.31175   0.00000  Uiso   1.00
Br257  Br    0.04926   0.52659   0.28582   0.00000  Uiso   1.00
Br258  Br    0.07442   0.96948   0.15100   0.00000  Uiso   1.00
N259   N     0.24043   0.60833   0.21104   0.00000  Uiso   1.00
O260   O     0.27284   0.63146   0.24210   0.00000  Uiso   1.00
O261   O     0.25318   0.59927   0.16961   0.00000  Uiso   1.00
N262   N     0.20496   0.89547   0.33055   0.00000  Uiso   1.00
O263   O     0.18109   0.87956   0.36367   0.00000  Uiso   1.00
O264   O     0.25472   0.90534   0.33993   0.00000  Uiso   1.00
N265   N     0.21930   0.51416   0.19872   0.00000  Uiso   1.00
O266   O     0.26850   0.51421   0.21725   0.00000  Uiso   1.00
O267   O     0.20316   0.98816   0.16207   0.00000  Uiso   1.00
N268   N     0.18798   0.98861   0.32465   0.00000  Uiso   1.00
O269   O     0.22244   0.51972   0.31948   0.00000  Uiso   1.00
O270   O     0.17582   0.98204   0.36647   0.00000  Uiso   1.00
Br271  Br    0.12764   0.65583   0.01435   0.00000  Uiso   1.00
Br272  Br    0.27783   0.77463   0.49502   0.00000  Uiso   1.00
N273   N     0.12638   0.67538   0.12010   0.00000  Uiso   1.00
O274   O     0.15085   0.63729   0.12176   0.00000  Uiso   1.00
O275   O     0.07896   0.67647   0.12987   0.00000  Uiso   1.00
N276   N     0.25688   0.77723   0.38745   0.00000  Uiso   1.00
O277   O     0.26767   0.81988   0.38499   0.00000  Uiso   1.00
O278   O     0.29472   0.74852   0.38916   0.00000  Uiso   1.00
Br279  Br    0.22980   0.83206   0.13952   0.00000  Uiso   1.00
Br280  Br    0.07078   0.69631   0.35660   0.00000  Uiso   1.00
O281   O     0.50000   0.68453   0.28974   0.00000  Uiso   1.00
O282   O     0.50000   0.81546   0.21026   0.00000  Uiso   1.00
O283   O     0.50000   0.68453   0.21026   0.00000  Uiso   1.00
O284   O     0.50000   0.81547   0.28974   0.00000  Uiso   1.00
C285   C     0.49964   0.66389   0.24944   0.00000  Uiso   1.00
C286   C     0.49842   0.83629   0.25033   0.00000  Uiso   1.00
O287   O     0.42392   0.75000   0.28045   0.00000  Uiso   1.00
O288   O     0.57608   0.75000   0.21956   0.00000  Uiso   1.00
O289   O     0.42392   0.74999   0.20097   0.00000  Uiso   1.00
O290   O     0.57608   0.75000   0.29904   0.00000  Uiso   1.00
C291   C     0.40054   0.75025   0.23768   0.00000  Uiso   1.00
C292   C     0.59952   0.75090   0.26207   0.00000  Uiso   1.00
Zn293  Zn    0.50000   0.75000   0.30307   0.00000  Uiso   1.00
Zn294  Zn    0.50000   0.74999   0.19693   0.00000  Uiso   1.00
C295   C     0.34606   0.74388   0.23183   0.00000  Uiso   1.00
C296   C     0.65374   0.75967   0.26632   0.00000  Uiso   1.00
C297   C     0.43994   0.55131   0.25868   0.00000  Uiso   1.00
C298   C     0.44958   0.94731   0.20677   0.00000  Uiso   1.00
C299   C     0.44968   0.59718   0.26318   0.00000  Uiso   1.00
C300   C     0.45832   0.90156   0.20985   0.00000  Uiso   1.00
H301   H     0.42338   0.61840   0.27963   0.00000  Uiso   1.00
H302   H     0.44148   0.87948   0.18063   0.00000  Uiso   1.00
C303   C     0.49328   0.61578   0.24689   0.00000  Uiso   1.00
C304   C     0.48881   0.88427   0.24997   0.00000  Uiso   1.00
C305   C     0.52712   0.58906   0.22446   0.00000  Uiso   1.00
C306   C     0.50797   0.91272   0.28897   0.00000  Uiso   1.00
C307   C     0.51659   0.54283   0.21836   0.00000  Uiso   1.00
C308   C     0.50041   0.95904   0.28563   0.00000  Uiso   1.00
C309   C     0.47374   0.52415   0.23691   0.00000  Uiso   1.00
C310   C     0.47276   0.97609   0.24364   0.00000  Uiso   1.00
C311   C     0.48117   0.71142   0.04913   0.00000  Uiso   1.00
C312   C     0.54510   0.76293   0.45455   0.00000  Uiso   1.00
C313   C     0.48028   0.71321   0.09871   0.00000  Uiso   1.00
C314   C     0.54363   0.76420   0.40476   0.00000  Uiso   1.00
N315   N     0.50000   0.74999   0.12624   0.00000  Uiso   1.00
N316   N     0.50000   0.75001   0.37377   0.00000  Uiso   1.00
C317   C     0.52123   0.78525   0.10475   0.00000  Uiso   1.00
C318   C     0.45792   0.73316   0.39256   0.00000  Uiso   1.00
C319   C     0.51778   0.78641   0.05534   0.00000  Uiso   1.00
C320   C     0.45603   0.73627   0.44138   0.00000  Uiso   1.00
H321   H     0.53221   0.81601   0.03968   0.00000  Uiso   1.00
H322   H     0.42074   0.72535   0.45423   0.00000  Uiso   1.00
C323   C     0.49899   0.74917   0.02647   0.00000  Uiso   1.00
C324   C     0.50004   0.75003   0.47363   0.00000  Uiso   1.00
Br325  Br    0.65129   0.70355   0.17939   0.00000  Uiso   1.00
Br326  Br    0.34781   0.80684   0.31175   0.00000  Uiso   1.00
Br327  Br    0.38260   0.52659   0.28582   0.00000  Uiso   1.00
Br328  Br    0.40776   0.96948   0.15100   0.00000  Uiso   1.00
N329   N     0.57377   0.60833   0.21104   0.00000  Uiso   1.00
O330   O     0.60617   0.63146   0.24210   0.00000  Uiso   1.00
O331   O     0.58652   0.59927   0.16961   0.00000  Uiso   1.00
N332   N     0.53829   0.89547   0.33055   0.00000  Uiso   1.00
O333   O     0.51442   0.87956   0.36367   0.00000  Uiso   1.00
O334   O     0.58805   0.90534   0.33993   0.00000  Uiso   1.00
N335   N     0.55263   0.51416   0.19872   0.00000  Uiso   1.00
O336   O     0.60183   0.51421   0.21725   0.00000  Uiso   1.00
O337   O     0.53649   0.98816   0.16207   0.00000  Uiso   1.00
N338   N     0.52131   0.98861   0.32465   0.00000  Uiso   1.00
O339   O     0.55578   0.51972   0.31948   0.00000  Uiso   1.00
O340   O     0.50915   0.98204   0.36647   0.00000  Uiso   1.00
Br341  Br    0.46098   0.65583   0.01435   0.00000  Uiso   1.00
Br342  Br    0.61116   0.77463   0.49502   0.00000  Uiso   1.00
N343   N     0.45971   0.67538   0.12010   0.00000  Uiso   1.00
O344   O     0.48418   0.63729   0.12176   0.00000  Uiso   1.00
O345   O     0.41229   0.67647   0.12987   0.00000  Uiso   1.00
N346   N     0.59021   0.77723   0.38745   0.00000  Uiso   1.00
O347   O     0.60101   0.81988   0.38499   0.00000  Uiso   1.00
O348   O     0.62805   0.74852   0.38916   0.00000  Uiso   1.00
Br349  Br    0.56314   0.83206   0.13952   0.00000  Uiso   1.00
Br350  Br    0.40412   0.69631   0.35660   0.00000  Uiso   1.00
O351   O     0.83334   0.68453   0.28974   0.00000  Uiso   1.00
O352   O     0.83333   0.81546   0.21026   0.00000  Uiso   1.00
O353   O     0.83334   0.68453   0.21026   0.00000  Uiso   1.00
O354   O     0.83333   0.81547   0.28974   0.00000  Uiso   1.00
C355   C     0.83298   0.66389   0.24944   0.00000  Uiso   1.00
C356   C     0.83175   0.83629   0.25033   0.00000  Uiso   1.00
O357   O     0.75725   0.75000   0.28045   0.00000  Uiso   1.00
O358   O     0.90942   0.75000   0.21956   0.00000  Uiso   1.00
O359   O     0.75725   0.74999   0.20097   0.00000  Uiso   1.00
O360   O     0.90942   0.75000   0.29904   0.00000  Uiso   1.00
C361   C     0.73388   0.75025   0.23768   0.00000  Uiso   1.00
C362   C     0.93286   0.75090   0.26207   0.00000  Uiso   1.00
Zn363  Zn    0.83333   0.75000   0.30307   0.00000  Uiso   1.00
Zn364  Zn    0.83333   0.74999   0.19693   0.00000  Uiso   1.00
C365   C     0.67940   0.74388   0.23183   0.00000  Uiso   1.00
C366   C     0.98707   0.75967   0.26632   0.00000  Uiso   1.00
C367   C     0.77327   0.55131   0.25868   0.00000  Uiso   1.00
C368   C     0.78291   0.94731   0.20677   0.00000  Uiso   1.00
C369   C     0.78301   0.59718   0.26318   0.00000  Uiso   1.00
C370   C     0.79165   0.90156   0.20985   0.00000  Uiso   1.00
H371   H     0.75672   0.61840   0.27963   0.00000  Uiso   1.00
H372   H     0.77482   0.87948   0.18063   0.00000  Uiso   1.00
C373   C     0.82662   0.61578   0.24689   0.00000  Uiso   1.00
C374   C     0.82215   0.88427   0.24997   0.00000  Uiso   1.00
C375   C     0.86046   0.58906   0.22446   0.00000  Uiso   1.00
C376   C     0.84130   0.91272   0.28897   0.00000  Uiso   1.00
C377   C     0.84992   0.54283   0.21836   0.00000  Uiso   1.00
C378   C     0.83374   0.95904   0.28563   0.00000  Uiso   1.00
C379   C     0.80707   0.52415   0.23691   0.00000  Uiso   1.00
C380   C     0.80609   0.97609   0.24364   0.00000  Uiso   1.00
C381   C     0.81451   0.71142   0.04913   0.00000  Uiso   1.00
C382   C     0.87843   0.76293   0.45455   0.00000  Uiso   1.00
C383   C     0.81362   0.71321   0.09871   0.00000  Uiso   1.00
C384   C     0.87696   0.76420   0.40476   0.00000  Uiso   1.00
N385   N     0.83333   0.74999   0.12624   0.00000  Uiso   1.00
N386   N     0.83333   0.75001   0.37377   0.00000  Uiso   1.00
C387   C     0.85457   0.78525   0.10475   0.00000  Uiso   1.00
C388   C     0.79126   0.73316   0.39256   0.00000  Uiso   1.00
C389   C     0.85112   0.78641   0.05534   0.00000  Uiso   1.00
C390   C     0.78937   0.73627   0.44138   0.00000  Uiso   1.00
H391   H     0.86555   0.81601   0.03968   0.00000  Uiso   1.00
H392   H     0.75407   0.72535   0.45423   0.00000  Uiso   1.00
C393   C     0.83232   0.74917   0.02647   0.00000  Uiso   1.00
C394   C     0.83338   0.75003   0.47363   0.00000  Uiso   1.00
Br395  Br    0.98462   0.70355   0.17939   0.00000  Uiso   1.00
Br396  Br    0.68115   0.80684   0.31175   0.00000  Uiso   1.00
Br397  Br    0.71593   0.52659   0.28582   0.00000  Uiso   1.00
Br398  Br    0.74109   0.96948   0.15100   0.00000  Uiso   1.00
N399   N     0.90710   0.60833   0.21104   0.00000  Uiso   1.00
O400   O     0.93950   0.63146   0.24210   0.00000  Uiso   1.00
O401   O     0.91985   0.59927   0.16961   0.00000  Uiso   1.00
N402   N     0.87162   0.89547   0.33055   0.00000  Uiso   1.00
O403   O     0.84775   0.87956   0.36367   0.00000  Uiso   1.00
O404   O     0.92139   0.90534   0.33993   0.00000  Uiso   1.00
N405   N     0.88597   0.51416   0.19872   0.00000  Uiso   1.00
O406   O     0.93516   0.51421   0.21725   0.00000  Uiso   1.00
O407   O     0.86982   0.98816   0.16207   0.00000  Uiso   1.00
N408   N     0.85465   0.98861   0.32465   0.00000  Uiso   1.00
O409   O     0.88911   0.51972   0.31948   0.00000  Uiso   1.00
O410   O     0.84249   0.98204   0.36647   0.00000  Uiso   1.00
Br411  Br    0.79431   0.65583   0.01435   0.00000  Uiso   1.00
Br412  Br    0.94450   0.77463   0.49502   0.00000  Uiso   1.00
N413   N     0.79304   0.67538   0.12010   0.00000  Uiso   1.00
O414   O     0.81751   0.63729   0.12176   0.00000  Uiso   1.00
O415   O     0.74562   0.67647   0.12987   0.00000  Uiso   1.00
N416   N     0.92354   0.77723   0.38745   0.00000  Uiso   1.00
O417   O     0.93434   0.81988   0.38499   0.00000  Uiso   1.00
O418   O     0.96139   0.74852   0.38916   0.00000  Uiso   1.00
Br419  Br    0.89647   0.83206   0.13952   0.00000  Uiso   1.00
Br420  Br    0.73745   0.69631   0.35660   0.00000  Uiso   1.00
O421   O     0.16667   0.18453   0.78974   0.00000  Uiso   1.00
O422   O     0.16666   0.31546   0.71026   0.00000  Uiso   1.00
O423   O     0.16667   0.18453   0.71026   0.00000  Uiso   1.00
O424   O     0.16666   0.31547   0.78974   0.00000  Uiso   1.00
C425   C     0.16631   0.16389   0.74944   0.00000  Uiso   1.00
C426   C     0.16508   0.33629   0.75033   0.00000  Uiso   1.00
O427   O     0.09058   0.25000   0.78045   0.00000  Uiso   1.00
O428   O     0.24275   0.25000   0.71956   0.00000  Uiso   1.00
O429   O     0.09058   0.24999   0.70097   0.00000  Uiso   1.00
O430   O     0.24275   0.25000   0.79904   0.00000  Uiso   1.00
C431   C     0.06721   0.25025   0.73768   0.00000  Uiso   1.00
C432   C     0.26619   0.25090   0.76207   0.00000  Uiso   1.00
Zn433  Zn    0.16667   0.25000   0.80307   0.00000  Uiso   1.00
Zn434  Zn    0.16667   0.24999   0.69693   0.00000  Uiso   1.00
C435   C     0.01273   0.24388   0.73183   0.00000  Uiso   1.00
C436   C     0.32040   0.25967   0.76632   0.00000  Uiso   1.00
C437   C     0.10661   0.05131   0.75868   0.00000  Uiso   1.00
C438   C     0.11625   0.44731   0.70677   0.00000  Uiso   1.00
C439   C     0.11635   0.09718   0.76318   0.00000  Uiso   1.00
C440   C     0.12498   0.40156   0.70985   0.00000  Uiso   1.00
H441   H     0.09005   0.11840   0.77963   0.00000  Uiso   1.00
H442   H     0.10815   0.37948   0.68063   0.00000  Uiso   1.00
C443   C     0.15995   0.11578   0.74689   0.00000  Uiso   1.00
C444   C     0.15548   0.38427   0.74997   0.00000  Uiso   1.00
C445   C     0.19379   0.08906   0.72446   0.00000  Uiso   1.00
C446   C     0.17463   0.41272   0.78897   0.00000  Uiso   1.00
C447   C     0.18325   0.04283   0.71836   0.00000  Uiso   1.00
C448   C     0.16708   0.45904   0.78563   0.00000  Uiso   1.00
C449   C     0.14040   0.02415   0.73691   0.00000  Uiso   1.00
C450   C     0.13942   0.47609   0.74364   0.00000  Uiso   1.00
C451   C     0.14784   0.21142   0.54913   0.00000  Uiso   1.00
C452   C     0.21177   0.26293   0.95455   0.00000  Uiso   1.00
C453   C     0.14695   0.21321   0.59871   0.00000  Uiso   1.00
C454   C     0.21030   0.26420   0.90476   0.00000  Uiso   1.00
N455   N     0.16667   0.24999   0.62624   0.00000  Uiso   1.00
N456   N     0.16667   0.25001   0.87377   0.00000  Uiso   1.00
C457   C     0.18790   0.28525   0.60475   0.00000  Uiso   1.00
C458   C     0.12459   0.23316   0.89256   0.00000  Uiso   1.00
C459   C     0.18445   0.28641   0.55534   0.00000  Uiso   1.00
C460   C     0.12270   0.23627   0.94138   0.00000  Uiso   1.00
H461   H     0.19888   0.31601   0.53968   0.00000  Uiso   1.00
H462   H     0.08741   0.22535   0.95423   0.00000  Uiso   1.00
C463   C     0.16565   0.24917   0.52647   0.00000  Uiso   1.00
C464   C     0.16671   0.25003   0.97363   0.00000  Uiso   1.00
Br465  Br    0.31795   0.20355   0.67939   0.00000  Uiso   1.00
Br466  Br    0.01448   0.30684   0.81175   0.00000  Uiso   1.00
Br467  Br    0.04926   0.02659   0.78582   0.00000  Uiso   1.00
Br468  Br    0.07442   0.46948   0.65100   0.00000  Uiso   1.00
N469   N     0.24043   0.10833   0.71104   0.00000  Uiso   1.00
O470   O     0.27284   0.13146   0.74210   0.00000  Uiso   1.00
O471   O     0.25318   0.09927   0.66961   0.00000  Uiso   1.00
N472   N     0.20496   0.39547   0.83055   0.00000  Uiso   1.00
O473   O     0.18109   0.37956   0.86367   0.00000  Uiso   1.00
O474   O     0.25472   0.40534   0.83993   0.00000  Uiso   1.00
N475   N     0.21930   0.01416   0.69872   0.00000  Uiso   1.00
O476   O     0.26850   0.01421   0.71725   0.00000  Uiso   1.00
O477   O     0.20316   0.48816   0.66207   0.00000  Uiso   1.00
N478   N     0.18798   0.48861   0.82465   0.00000  Uiso   1.00
O479   O     0.22244   0.01972   0.81948   0.00000  Uiso   1.00
O480   O     0.17582   0.48204   0.86647   0.00000  Uiso   1.00
Br481  Br    0.12764   0.15583   0.51435   0.00000  Uiso   1.00
Br482  Br    0.27783   0.27463   0.99502   0.00000  Uiso   1.00
N483   N     0.12638   0.17538   0.62010   0.00000  Uiso   1.00
O484   O     0.15085   0.13729   0.62176   0.00000  Uiso   1.00
O485   O     0.07896   0.17647   0.62987   0.00000  Uiso   1.00
N486   N     0.25688   0.27723   0.88745   0.00000  Uiso   1.00
O487   O     0.26767   0.31988   0.88499   0.00000  Uiso   1.00
O488   O     0.29472   0.24852   0.88916   0.00000  Uiso   1.00
Br489  Br    0.22980   0.33206   0.63952   0.00000  Uiso   1.00
Br490  Br    0.07078   0.19631   0.85660   0.00000  Uiso   1.00
O491   O     0.50000   0.18453   0.78974   0.00000  Uiso   1.00
O492   O     0.50000   0.31546   0.71026   0.00000  Uiso   1.00
O493   O     0.50000   0.18453   0.71026   0.00000  Uiso   1.00
O494   O     0.50000   0.31547   0.78974   0.00000  Uiso   1.00
C495   C     0.49964   0.16389   0.74944   0.00000  Uiso   1.00
C496   C     0.49842   0.33629   0.75033   0.00000  Uiso   1.00
O497   O     0.42392   0.25000   0.78045   0.00000  Uiso   1.00
O498   O     0.57608   0.25000   0.71956   0.00000  Uiso   1.00
O499   O     0.42392   0.24999   0.70097   0.00000  Uiso   1.00
O500   O     0.57608   0.25000   0.79904   0.00000  Uiso   1.00
C501   C     0.40054   0.25025   0.73768   0.00000  Uiso   1.00
C502   C     0.59952   0.25090   0.76207   0.00000  Uiso   1.00
Zn503  Zn    0.50000   0.25000   0.80307   0.00000  Uiso   1.00
Zn504  Zn    0.50000   0.24999   0.69693   0.00000  Uiso   1.00
C505   C     0.34606   0.24388   0.73183   0.00000  Uiso   1.00
C506   C     0.65374   0.25967   0.76632   0.00000  Uiso   1.00
C507   C     0.43994   0.05131   0.75868   0.00000  Uiso   1.00
C508   C     0.44958   0.44731   0.70677   0.00000  Uiso   1.00
C509   C     0.44968   0.09718   0.76318   0.00000  Uiso   1.00
C510   C     0.45832   0.40156   0.70985   0.00000  Uiso   1.00
H511   H     0.42338   0.11840   0.77963   0.00000  Uiso   1.00
H512   H     0.44148   0.37948   0.68063   0.00000  Uiso   1.00
C513   C     0.49328   0.11578   0.74689   0.00000  Uiso   1.00
C514   C     0.48881   0.38427   0.74997   0.00000  Uiso   1.00
C515   C     0.52712   0.08906   0.72446   0.00000  Uiso   1.00
C516   C     0.50797   0.41272   0.78897   0.00000  Uiso   1.00
C517   C     0.51659   0.04283   0.71836   0.00000  Uiso   1.00
C518   C     0.50041   0.45904   0.78563   0.00000  Uiso   1.00
C519   C     0.47374   0.02415   0.73691   0.00000  Uiso   1.00
C520   C     0.47276   0.47609   0.74364   0.00000  Uiso   1.00
C521   C     0.48117   0.21142   0.54913   0.00000  Uiso   1.00
C522   C     0.54510   0.26293   0.95455   0.00000  Uiso   1.00
C523   C     0.48028   0.21321   0.59871   0.00000  Uiso   1.00
C524   C     0.54363   0.26420   0.90476   0.00000  Uiso   1.00
N525   N     0.50000   0.24999   0.62624   0.00000  Uiso   1.00
N526   N     0.50000   0.25001   0.87377   0.00000  Uiso   1.00
C527   C     0.52123   0.28525   0.60475   0.00000  Uiso   1.00
C528   C     0.45792   0.23316   0.89256   0.00000  Uiso   1.00
C529   C     0.51778   0.28641   0.55534   0.00000  Uiso   1.00
C530   C     0.45603   0.23627   0.94138   0.00000  Uiso   1.00
H531   H     0.53221   0.31601   0.53968   0.00000  Uiso   1.00
H532   H     0.42074   0.22535   0.95423   0.00000  Uiso   1.00
C533   C     0.49899   0.24917   0.52647   0.00000  Uiso   1.00
C534   C     0.50004   0.25003   0.97363   0.00000  Uiso   1.00
Br535  Br    0.65129   0.20355   0.67939   0.00000  Uiso   1.00
Br536  Br    0.34781   0.30684   0.81175   0.00000  Uiso   1.00
Br537  Br    0.38260   0.02659   0.78582   0.00000  Uiso   1.00
Br538  Br    0.40776   0.46948   0.65100   0.00000  Uiso   1.00
N539   N     0.57377   0.10833   0.71104   0.00000  Uiso   1.00
O540   O     0.60617   0.13146   0.74210   0.00000  Uiso   1.00
O541   O     0.58652   0.09927   0.66961   0.00000  Uiso   1.00
N542   N     0.53829   0.39547   0.83055   0.00000  Uiso   1.00
O543   O     0.51442   0.37956   0.86367   0.00000  Uiso   1.00
O544   O     0.58805   0.40534   0.83993   0.00000  Uiso   1.00
N545   N     0.55263   0.01416   0.69872   0.00000  Uiso   1.00
O546   O     0.60183   0.01421   0.71725   0.00000  Uiso   1.00
O547   O     0.53649   0.48816   0.66207   0.00000  Uiso   1.00
N548   N     0.52131   0.48861   0.82465   0.00000  Uiso   1.00
O549   O     0.55578   0.01972   0.81948   0.00000  Uiso   1.00
O550   O     0.50915   0.48204   0.86647   0.00000  Uiso   1.00
Br551  Br    0.46098   0.15583   0.51435   0.00000  Uiso   1.00
Br552  Br    0.61116   0.27463   0.99502   0.00000  Uiso   1.00
N553   N     0.45971   0.17538   0.62010   0.00000  Uiso   1.00
O554   O     0.48418   0.13729   0.62176   0.00000  Uiso   1.00
O555   O     0.41229   0.17647   0.62987   0.00000  Uiso   1.00
N556   N     0.59021   0.27723   0.88745   0.00000  Uiso   1.00
O557   O     0.60101   0.31988   0.88499   0.00000  Uiso   1.00
O558   O     0.62805   0.24852   0.88916   0.00000  Uiso   1.00
Br559  Br    0.56314   0.33206   0.63952   0.00000  Uiso   1.00
Br560  Br    0.40412   0.19631   0.85660   0.00000  Uiso   1.00
O561   O     0.83334   0.18453   0.78974   0.00000  Uiso   1.00
O562   O     0.83333   0.31546   0.71026   0.00000  Uiso   1.00
O563   O     0.83334   0.18453   0.71026   0.00000  Uiso   1.00
O564   O     0.83333   0.31547   0.78974   0.00000  Uiso   1.00
C565   C     0.83298   0.16389   0.74944   0.00000  Uiso   1.00
C566   C     0.83175   0.33629   0.75033   0.00000  Uiso   1.00
O567   O     0.75725   0.25000   0.78045   0.00000  Uiso   1.00
O568   O     0.90942   0.25000   0.71956   0.00000  Uiso   1.00
O569   O     0.75725   0.24999   0.70097   0.00000  Uiso   1.00
O570   O     0.90942   0.25000   0.79904   0.00000  Uiso   1.00
C571   C     0.73388   0.25025   0.73768   0.00000  Uiso   1.00
C572   C     0.93286   0.25090   0.76207   0.00000  Uiso   1.00
Zn573  Zn    0.83333   0.25000   0.80307   0.00000  Uiso   1.00
Zn574  Zn    0.83333   0.24999   0.69693   0.00000  Uiso   1.00
C575   C     0.67940   0.24388   0.73183   0.00000  Uiso   1.00
C576   C     0.98707   0.25967   0.76632   0.00000  Uiso   1.00
C577   C     0.77327   0.05131   0.75868   0.00000  Uiso   1.00
C578   C     0.78291   0.44731   0.70677   0.00000  Uiso   1.00
C579   C     0.78301   0.09718   0.76318   0.00000  Uiso   1.00
C580   C     0.79165   0.40156   0.70985   0.00000  Uiso   1.00
H581   H     0.75672   0.11840   0.77963   0.00000  Uiso   1.00
H582   H     0.77482   0.37948   0.68063   0.00000  Uiso   1.00
C583   C     0.82662   0.11578   0.74689   0.00000  Uiso   1.00
C584   C     0.82215   0.38427   0.74997   0.00000  Uiso   1.00
C585   C     0.86046   0.08906   0.72446   0.00000  Uiso   1.00
C586   C     0.84130   0.41272   0.78897   0.00000  Uiso   1.00
C587   C     0.84992   0.04283   0.71836   0.00000  Uiso   1.00
C588   C     0.83374   0.45904   0.78563   0.00000  Uiso   1.00
C589   C     0.80707   0.02415   0.73691   0.00000  Uiso   1.00
C590   C     0.80609   0.47609   0.74364   0.00000  Uiso   1.00
C591   C     0.81451   0.21142   0.54913   0.00000  Uiso   1.00
C592   C     0.87843   0.26293   0.95455   0.00000  Uiso   1.00
C593   C     0.81362   0.21321   0.59871   0.00000  Uiso   1.00
C594   C     0.87696   0.26420   0.90476   0.00000  Uiso   1.00
N595   N     0.83333   0.24999   0.62624   0.00000  Uiso   1.00
N596   N     0.83333   0.25001   0.87377   0.00000  Uiso   1.00
C597   C     0.85457   0.28525   0.60475   0.00000  Uiso   1.00
C598   C     0.79126   0.23316   0.89256   0.00000  Uiso   1.00
C599   C     0.85112   0.28641   0.55534   0.00000  Uiso   1.00
C600   C     0.78937   0.23627   0.94138   0.00000  Uiso   1.00
H601   H     0.86555   0.31601   0.53968   0.00000  Uiso   1.00
H602   H     0.75407   0.22535   0.95423   0.00000  Uiso   1.00
C603   C     0.83232   0.24917   0.52647   0.00000  Uiso   1.00
C604   C     0.83338   0.25003   0.97363   0.00000  Uiso   1.00
Br605  Br    0.98462   0.20355   0.67939   0.00000  Uiso   1.00
Br606  Br    0.68115   0.30684   0.81175   0.00000  Uiso   1.00
Br607  Br    0.71593   0.02659   0.78582   0.00000  Uiso   1.00
Br608  Br    0.74109   0.46948   0.65100   0.00000  Uiso   1.00
N609   N     0.90710   0.10833   0.71104   0.00000  Uiso   1.00
O610   O     0.93950   0.13146   0.74210   0.00000  Uiso   1.00
O611   O     0.91985   0.09927   0.66961   0.00000  Uiso   1.00
N612   N     0.87162   0.39547   0.83055   0.00000  Uiso   1.00
O613   O     0.84775   0.37956   0.86367   0.00000  Uiso   1.00
O614   O     0.92139   0.40534   0.83993   0.00000  Uiso   1.00
N615   N     0.88597   0.01416   0.69872   0.00000  Uiso   1.00
O616   O     0.93516   0.01421   0.71725   0.00000  Uiso   1.00
O617   O     0.86982   0.48816   0.66207   0.00000  Uiso   1.00
N618   N     0.85465   0.48861   0.82465   0.00000  Uiso   1.00
O619   O     0.88911   0.01972   0.81948   0.00000  Uiso   1.00
O620   O     0.84249   0.48204   0.86647   0.00000  Uiso   1.00
Br621  Br    0.79431   0.15583   0.51435   0.00000  Uiso   1.00
Br622  Br    0.94450   0.27463   0.99502   0.00000  Uiso   1.00
N623   N     0.79304   0.17538   0.62010   0.00000  Uiso   1.00
O624   O     0.81751   0.13729   0.62176   0.00000  Uiso   1.00
O625   O     0.74562   0.17647   0.62987   0.00000  Uiso   1.00
N626   N     0.92354   0.27723   0.88745   0.00000  Uiso   1.00
O627   O     0.93434   0.31988   0.88499   0.00000  Uiso   1.00
O628   O     0.96139   0.24852   0.88916   0.00000  Uiso   1.00
Br629  Br    0.89647   0.33206   0.63952   0.00000  Uiso   1.00
Br630  Br    0.73745   0.19631   0.85660   0.00000  Uiso   1.00
O631   O     0.16667   0.68453   0.78974   0.00000  Uiso   1.00
O632   O     0.16666   0.81546   0.71026   0.00000  Uiso   1.00
O633   O     0.16667   0.68453   0.71026   0.00000  Uiso   1.00
O634   O     0.16666   0.81547   0.78974   0.00000  Uiso   1.00
C635   C     0.16631   0.66389   0.74944   0.00000  Uiso   1.00
C636   C     0.16508   0.83629   0.75033   0.00000  Uiso   1.00
O637   O     0.09058   0.75000   0.78045   0.00000  Uiso   1.00
O638   O     0.24275   0.75000   0.71956   0.00000  Uiso   1.00
O639   O     0.09058   0.74999   0.70097   0.00000  Uiso   1.00
O640   O     0.24275   0.75000   0.79904   0.00000  Uiso   1.00
C641   C     0.06721   0.75025   0.73768   0.00000  Uiso   1.00
C642   C     0.26619   0.75090   0.76207   0.00000  Uiso   1.00
Zn643  Zn    0.16667   0.75000   0.80307   0.00000  Uiso   1.00
Zn644  Zn    0.16667   0.74999   0.69693   0.00000  Uiso   1.00
C645   C     0.01273   0.74388   0.73183   0.00000  Uiso   1.00
C646   C     0.32040   0.75967   0.76632   0.00000  Uiso   1.00
C647   C     0.10661   0.55131   0.75868   0.00000  Uiso   1.00
C648   C     0.11625   0.94731   0.70677   0.00000  Uiso   1.00
C649   C     0.11635   0.59718   0.76318   0.00000  Uiso   1.00
C650   C     0.12498   0.90156   0.70985   0.00000  Uiso   1.00
H651   H     0.09005   0.61840   0.77963   0.00000  Uiso   1.00
H652   H     0.10815   0.87948   0.68063   0.00000  Uiso   1.00
C653   C     0.15995   0.61578   0.74689   0.00000  Uiso   1.00
C654   C     0.15548   0.88427   0.74997   0.00000  Uiso   1.00
C655   C     0.19379   0.58906   0.72446   0.00000  Uiso   1.00
C656   C     0.17463   0.91272   0.78897   0.00000  Uiso   1.00
C657   C     0.18325   0.54283   0.71836   0.00000  Uiso   1.00
C658   C     0.16708   0.95904   0.78563   0.00000  Uiso   1.00
C659   C     0.14040   0.52415   0.73691   0.00000  Uiso   1.00
C660   C     0.13942   0.97609   0.74364   0.00000  Uiso   1.00
C661   C     0.14784   0.71142   0.54913   0.00000  Uiso   1.00
C662   C     0.21177   0.76293   0.95455   0.00000  Uiso   1.00
C663   C     0.14695   0.71321   0.59871   0.00000  Uiso   1.00
C664   C     0.21030   0.76420   0.90476   0.00000  Uiso   1.00
N665   N     0.16667   0.74999   0.62624   0.00000  Uiso   1.00
N666   N     0.16667   0.75001   0.87377   0.00000  Uiso   1.00
C667   C     0.18790   0.78525   0.60475   0.00000  Uiso   1.00
C668   C     0.12459   0.73316   0.89256   0.00000  Uiso   1.00
C669   C     0.18445   0.78641   0.55534   0.00000  Uiso   1.00
C670   C     0.12270   0.73627   0.94138   0.00000  Uiso   1.00
H671   H     0.19888   0.81601   0.53968   0.00000  Uiso   1.00
H672   H     0.08741   0.72535   0.95423   0.00000  Uiso   1.00
C673   C     0.16565   0.74917   0.52647   0.00000  Uiso   1.00
C674   C     0.16671   0.75003   0.97363   0.00000  Uiso   1.00
Br675  Br    0.31795   0.70355   0.67939   0.00000  Uiso   1.00
Br676  Br    0.01448   0.80684   0.81175   0.00000  Uiso   1.00
Br677  Br    0.04926   0.52659   0.78582   0.00000  Uiso   1.00
Br678  Br    0.07442   0.96948   0.65100   0.00000  Uiso   1.00
N679   N     0.24043   0.60833   0.71104   0.00000  Uiso   1.00
O680   O     0.27284   0.63146   0.74210   0.00000  Uiso   1.00
O681   O     0.25318   0.59927   0.66961   0.00000  Uiso   1.00
N682   N     0.20496   0.89547   0.83055   0.00000  Uiso   1.00
O683   O     0.18109   0.87956   0.86367   0.00000  Uiso   1.00
O684   O     0.25472   0.90534   0.83993   0.00000  Uiso   1.00
N685   N     0.21930   0.51416   0.69872   0.00000  Uiso   1.00
O686   O     0.26850   0.51421   0.71725   0.00000  Uiso   1.00
O687   O     0.20316   0.98816   0.66207   0.00000  Uiso   1.00
N688   N     0.18798   0.98861   0.82465   0.00000  Uiso   1.00
O689   O     0.22244   0.51972   0.81948   0.00000  Uiso   1.00
O690   O     0.17582   0.98204   0.86647   0.00000  Uiso   1.00
Br691  Br    0.12764   0.65583   0.51435   0.00000  Uiso   1.00
Br692  Br    0.27783   0.77463   0.99502   0.00000  Uiso   1.00
N693   N     0.12638   0.67538   0.62010   0.00000  Uiso   1.00
O694   O     0.15085   0.63729   0.62176   0.00000  Uiso   1.00
O695   O     0.07896   0.67647   0.62987   0.00000  Uiso   1.00
N696   N     0.25688   0.77723   0.88745   0.00000  Uiso   1.00
O697   O     0.26767   0.81988   0.88499   0.00000  Uiso   1.00
O698   O     0.29472   0.74852   0.88916   0.00000  Uiso   1.00
Br699  Br    0.22980   0.83206   0.63952   0.00000  Uiso   1.00
Br700  Br    0.07078   0.69631   0.85660   0.00000  Uiso   1.00
O701   O     0.50000   0.68453   0.78974   0.00000  Uiso   1.00
O702   O     0.50000   0.81546   0.71026   0.00000  Uiso   1.00
O703   O     0.50000   0.68453   0.71026   0.00000  Uiso   1.00
O704   O     0.50000   0.81547   0.78974   0.00000  Uiso   1.00
C705   C     0.49964   0.66389   0.74944   0.00000  Uiso   1.00
C706   C     0.49842   0.83629   0.75033   0.00000  Uiso   1.00
O707   O     0.42392   0.75000   0.78045   0.00000  Uiso   1.00
O708   O     0.57608   0.75000   0.71956   0.00000  Uiso   1.00
O709   O     0.42392   0.74999   0.70097   0.00000  Uiso   1.00
O710   O     0.57608   0.75000   0.79904   0.00000  Uiso   1.00
C711   C     0.40054   0.75025   0.73768   0.00000  Uiso   1.00
C712   C     0.59952   0.75090   0.76207   0.00000  Uiso   1.00
Zn713  Zn    0.50000   0.75000   0.80307   0.00000  Uiso   1.00
Zn714  Zn    0.50000   0.74999   0.69693   0.00000  Uiso   1.00
C715   C     0.34606   0.74388   0.73183   0.00000  Uiso   1.00
C716   C     0.65374   0.75967   0.76632   0.00000  Uiso   1.00
C717   C     0.43994   0.55131   0.75868   0.00000  Uiso   1.00
C718   C     0.44958   0.94731   0.70677   0.00000  Uiso   1.00
C719   C     0.44968   0.59718   0.76318   0.00000  Uiso   1.00
C720   C     0.45832   0.90156   0.70985   0.00000  Uiso   1.00
H721   H     0.42338   0.61840   0.77963   0.00000  Uiso   1.00
H722   H     0.44148   0.87948   0.68063   0.00000  Uiso   1.00
C723   C     0.49328   0.61578   0.74689   0.00000  Uiso   1.00
C724   C     0.48881   0.88427   0.74997   0.00000  Uiso   1.00
C725   C     0.52712   0.58906   0.72446   0.00000  Uiso   1.00
C726   C     0.50797   0.91272   0.78897   0.00000  Uiso   1.00
C727   C     0.51659   0.54283   0.71836   0.00000  Uiso   1.00
C728   C     0.50041   0.95904   0.78563   0.00000  Uiso   1.00
C729   C     0.47374   0.52415   0.73691   0.00000  Uiso   1.00
C730   C     0.47276   0.97609   0.74364   0.00000  Uiso   1.00
C731   C     0.48117   0.71142   0.54913   0.00000  Uiso   1.00
C732   C     0.54510   0.76293   0.95455   0.00000  Uiso   1.00
C733   C     0.48028   0.71321   0.59871   0.00000  Uiso   1.00
C734   C     0.54363   0.76420   0.90476   0.00000  Uiso   1.00
N735   N     0.50000   0.74999   0.62624   0.00000  Uiso   1.00
N736   N     0.50000   0.75001   0.87377   0.00000  Uiso   1.00
C737   C     0.52123   0.78525   0.60475   0.00000  Uiso   1.00
C738   C     0.45792   0.73316   0.89256   0.00000  Uiso   1.00
C739   C     0.51778   0.78641   0.55534   0.00000  Uiso   1.00
C740   C     0.45603   0.73627   0.94138   0.00000  Uiso   1.00
H741   H     0.53221   0.81601   0.53968   0.00000  Uiso   1.00
H742   H     0.42074   0.72535   0.95423   0.00000  Uiso   1.00
C743   C     0.49899   0.74917   0.52647   0.00000  Uiso   1.00
C744   C     0.50004   0.75003   0.97363   0.00000  Uiso   1.00
Br745  Br    0.65129   0.70355   0.67939   0.00000  Uiso   1.00
Br746  Br    0.34781   0.80684   0.81175   0.00000  Uiso   1.00
Br747  Br    0.38260   0.52659   0.78582   0.00000  Uiso   1.00
Br748  Br    0.40776   0.96948   0.65100   0.00000  Uiso   1.00
N749   N     0.57377   0.60833   0.71104   0.00000  Uiso   1.00
O750   O     0.60617   0.63146   0.74210   0.00000  Uiso   1.00
O751   O     0.58652   0.59927   0.66961   0.00000  Uiso   1.00
N752   N     0.53829   0.89547   0.83055   0.00000  Uiso   1.00
O753   O     0.51442   0.87956   0.86367   0.00000  Uiso   1.00
O754   O     0.58805   0.90534   0.83993   0.00000  Uiso   1.00
N755   N     0.55263   0.51416   0.69872   0.00000  Uiso   1.00
O756   O     0.60183   0.51421   0.71725   0.00000  Uiso   1.00
O757   O     0.53649   0.98816   0.66207   0.00000  Uiso   1.00
N758   N     0.52131   0.98861   0.82465   0.00000  Uiso   1.00
O759   O     0.55578   0.51972   0.81948   0.00000  Uiso   1.00
O760   O     0.50915   0.98204   0.86647   0.00000  Uiso   1.00
Br761  Br    0.46098   0.65583   0.51435   0.00000  Uiso   1.00
Br762  Br    0.61116   0.77463   0.99502   0.00000  Uiso   1.00
N763   N     0.45971   0.67538   0.62010   0.00000  Uiso   1.00
O764   O     0.48418   0.63729   0.62176   0.00000  Uiso   1.00
O765   O     0.41229   0.67647   0.62987   0.00000  Uiso   1.00
N766   N     0.59021   0.77723   0.88745   0.00000  Uiso   1.00
O767   O     0.60101   0.81988   0.88499   0.00000  Uiso   1.00
O768   O     0.62805   0.74852   0.88916   0.00000  Uiso   1.00
Br769  Br    0.56314   0.83206   0.63952   0.00000  Uiso   1.00
Br770  Br    0.40412   0.69631   0.85660   0.00000  Uiso   1.00
O771   O     0.83334   0.68453   0.78974   0.00000  Uiso   1.00
O772   O     0.83333   0.81546   0.71026   0.00000  Uiso   1.00
O773   O     0.83334   0.68453   0.71026   0.00000  Uiso   1.00
O774   O     0.83333   0.81547   0.78974   0.00000  Uiso   1.00
C775   C     0.83298   0.66389   0.74944   0.00000  Uiso   1.00
C776   C     0.83175   0.83629   0.75033   0.00000  Uiso   1.00
O777   O     0.75725   0.75000   0.78045   0.00000  Uiso   1.00
O778   O     0.90942   0.75000   0.71956   0.00000  Uiso   1.00
O779   O     0.75725   0.74999   0.70097   0.00000  Uiso   1.00
O780   O     0.90942   0.75000   0.79904   0.00000  Uiso   1.00
C781   C     0.73388   0.75025   0.73768   0.00000  Uiso   1.00
C782   C     0.93286   0.75090   0.76207   0.00000  Uiso   1.00
Zn783  Zn    0.83333   0.75000   0.80307   0.00000  Uiso   1.00
Zn784  Zn    0.83333   0.74999   0.69693   0.00000  Uiso   1.00
C785   C     0.67940   0.74388   0.73183   0.00000  Uiso   1.00
C786   C     0.98707   0.75967   0.76632   0.00000  Uiso   1.00
C787   C     0.77327   0.55131   0.75868   0.00000  Uiso   1.00
C788   C     0.78291   0.94731   0.70677   0.00000  Uiso   1.00
C789   C     0.78301   0.59718   0.76318   0.00000  Uiso   1.00
C790   C     0.79165   0.90156   0.70985   0.00000  Uiso   1.00
H791   H     0.75672   0.61840   0.77963   0.00000  Uiso   1.00
H792   H     0.77482   0.87948   0.68063   0.00000  Uiso   1.00
C793   C     0.82662   0.61578   0.74689   0.00000  Uiso   1.00
C794   C     0.82215   0.88427   0.74997   0.00000  Uiso   1.00
C795   C     0.86046   0.58906   0.72446   0.00000  Uiso   1.00
C796   C     0.84130   0.91272   0.78897   0.00000  Uiso   1.00
C797   C     0.84992   0.54283   0.71836   0.00000  Uiso   1.00
C798   C     0.83374   0.95904   0.78563   0.00000  Uiso   1.00
C799   C     0.80707   0.52415   0.73691   0.00000  Uiso   1.00
C800   C     0.80609   0.97609   0.74364   0.00000  Uiso   1.00
C801   C     0.81451   0.71142   0.54913   0.00000  Uiso   1.00
C802   C     0.87843   0.76293   0.95455   0.00000  Uiso   1.00
C803   C     0.81362   0.71321   0.59871   0.00000  Uiso   1.00
C804   C     0.87696   0.76420   0.90476   0.00000  Uiso   1.00
N805   N     0.83333   0.74999   0.62624   0.00000  Uiso   1.00
N806   N     0.83333   0.75001   0.87377   0.00000  Uiso   1.00
C807   C     0.85457   0.78525   0.60475   0.00000  Uiso   1.00
C808   C     0.79126   0.73316   0.89256   0.00000  Uiso   1.00
C809   C     0.85112   0.78641   0.55534   0.00000  Uiso   1.00
C810   C     0.78937   0.73627   0.94138   0.00000  Uiso   1.00
H811   H     0.86555   0.81601   0.53968   0.00000  Uiso   1.00
H812   H     0.75407   0.72535   0.95423   0.00000  Uiso   1.00
C813   C     0.83232   0.74917   0.52647   0.00000  Uiso   1.00
C814   C     0.83338   0.75003   0.97363   0.00000  Uiso   1.00
Br815  Br    0.98462   0.70355   0.67939   0.00000  Uiso   1.00
Br816  Br    0.68115   0.80684   0.81175   0.00000  Uiso   1.00
Br817  Br    0.71593   0.52659   0.78582   0.00000  Uiso   1.00
Br818  Br    0.74109   0.96948   0.65100   0.00000  Uiso   1.00
N819   N     0.90710   0.60833   0.71104   0.00000  Uiso   1.00
O820   O     0.93950   0.63146   0.74210   0.00000  Uiso   1.00
O821   O     0.91985   0.59927   0.66961   0.00000  Uiso   1.00
N822   N     0.87162   0.89547   0.83055   0.00000  Uiso   1.00
O823   O     0.84775   0.87956   0.86367   0.00000  Uiso   1.00
O824   O     0.92139   0.90534   0.83993   0.00000  Uiso   1.00
N825   N     0.88597   0.51416   0.69872   0.00000  Uiso   1.00
O826   O     0.93516   0.51421   0.71725   0.00000  Uiso   1.00
O827   O     0.86982   0.98816   0.66207   0.00000  Uiso   1.00
N828   N     0.85465   0.98861   0.82465   0.00000  Uiso   1.00
O829   O     0.88911   0.51972   0.81948   0.00000  Uiso   1.00
O830   O     0.84249   0.98204   0.86647   0.00000  Uiso   1.00
Br831  Br    0.79431   0.65583   0.51435   0.00000  Uiso   1.00
Br832  Br    0.94450   0.77463   0.99502   0.00000  Uiso   1.00
N833   N     0.79304   0.67538   0.62010   0.00000  Uiso   1.00
O834   O     0.81751   0.63729   0.62176   0.00000  Uiso   1.00
O835   O     0.74562   0.67647   0.62987   0.00000  Uiso   1.00
N836   N     0.92354   0.77723   0.88745   0.00000  Uiso   1.00
O837   O     0.93434   0.81988   0.88499   0.00000  Uiso   1.00
O838   O     0.96139   0.74852   0.88916   0.00000  Uiso   1.00
Br839  Br    0.89647   0.83206   0.63952   0.00000  Uiso   1.00
Br840  Br    0.73745   0.69631   0.85660   0.00000  Uiso   1.00
loop_
_geom_bond_atom_site_label_1
_geom_bond_atom_site_label_2
_geom_bond_distance
_geom_bond_site_symmetry_2
_ccdc_geom_bond_type
O1     C5      1.292   .     A
O1     Zn13    1.972   .     S
O2     C6      1.297   .     A
O2     Zn14    1.972   .     S
O3     Zn14    1.989   .     S
O3     C5      1.291   .     A
O4     C6      1.294   .     A
O4     Zn13    1.989   .     S
C5     C23     1.435   .     S
C6     C24     1.449   .     S
O7     C11     1.280   .     A
O7     Zn13    1.974   .     S
O8     C12     1.273   .     A
O8     Zn14    1.974   .     S
O9     Zn14    1.987   .     S
O9     C11     1.289   .     A
O10    C12     1.297   .     A
O10    Zn13    1.987   .     S
C11    C15     1.402   .     S
C12    C16     1.408   .     S
Zn13   N36     2.023   .     S
Zn14   N35     2.023   .     S
C15    C156    1.349   1_455 S
C15    Br185   1.943   1_455 S
C16    C85     1.349   .     S
C16    Br116   1.940   .     S
C17    C29     1.401   .     A
C17    C19     1.381   .     A
C17    Br47    1.919   .     S
C18    C30     1.398   .     A
C18    Br48    1.921   .     S
C18    C20     1.382   .     A
C19    H21     1.084   .     S
C19    C23     1.395   .     A
C20    H22     1.084   .     S
C20    C24     1.401   .     A
C23    C25     1.404   .     A
C24    C26     1.408   .     A
C25    C27     1.398   .     A
C25    N49     1.435   .     S
C26    C28     1.395   .     A
C26    N52     1.430   .     S
C27    N55     1.437   .     S
C27    C29     1.411   .     A
C28    N58     1.438   .     S
C28    C30     1.409   .     A
C29    C240    1.444   1_545 S
C30    C239    1.444   .     S
C31    Br61    1.931   .     S
C31    C33     1.422   .     A
C31    C43     1.414   .     A
C32    C44     1.411   .     A
C32    Br62    1.934   .     S
C32    C34     1.421   .     A
C33    N63     1.426   .     S
C33    N35     1.377   .     A
C34    N66     1.422   .     S
C34    N36     1.379   .     A
N35    C37     1.375   .     A
N36    C38     1.377   .     A
C37    Br69    1.914   .     S
C37    C39     1.404   .     A
C38    C40     1.406   .     A
C38    Br70    1.913   .     S
C39    C43     1.401   .     A
C39    H41     1.083   .     S
C40    C44     1.401   .     A
C40    H42     1.083   .     S
C43    C464    1.517   1_554 S
C44    C463    1.517   .     S
Br45   C85     1.943   .     S
Br46   C156    1.940   1_455 S
N49    O50     1.301   .     A
N49    O51     1.301   .     A
N52    O54     1.301   .     A
N52    O53     1.301   .     A
N55    O56     1.300   .     A
N55    O267    1.300   1_545 S
O57    N265    1.300   .     S
N58    O60     1.301   .     A
N58    O269    1.301   .     S
O59    N268    1.301   1_545 S
N63    O65     1.298   .     A
N63    O64     1.301   .     A
N66    O68     1.301   .     A
N66    O67     1.299   .     A
O71    C75     1.292   .     A
O71    Zn83    1.972   .     S
O72    C76     1.297   .     A
O72    Zn84    1.972   .     S
O73    Zn84    1.989   .     S
O73    C75     1.291   .     A
O74    C76     1.294   .     A
O74    Zn83    1.989   .     S
C75    C93     1.435   .     S
C76    C94     1.449   .     S
O77    C81     1.280   .     A
O77    Zn83    1.974   .     S
O78    C82     1.273   .     A
O78    Zn84    1.974   .     S
O79    Zn84    1.987   .     S
O79    C81     1.289   .     A
O80    C82     1.297   .     A
O80    Zn83    1.987   .     S
C81    C85     1.402   .     S
C82    C86     1.408   .     S
Zn83   N106    2.023   .     S
Zn84   N105    2.023   .     S
C86    C155    1.349   .     S
C86    Br186   1.940   .     S
C87    C99     1.401   .     A
C87    C89     1.381   .     A
C87    Br117   1.919   .     S
C88    C100    1.398   .     A
C88    Br118   1.921   .     S
C88    C90     1.382   .     A
C89    H91     1.084   .     S
C89    C93     1.395   .     A
C90    H92     1.084   .     S
C90    C94     1.401   .     A
C93    C95     1.404   .     A
C94    C96     1.408   .     A
C95    C97     1.398   .     A
C95    N119    1.435   .     S
C96    C98     1.395   .     A
C96    N122    1.430   .     S
C97    N125    1.437   .     S
C97    C99     1.411   .     A
C98    N128    1.438   .     S
C98    C100    1.409   .     A
C99    C310    1.444   1_545 S
C100   C309    1.444   .     S
C101   Br131   1.931   .     S
C101   C103    1.422   .     A
C101   C113    1.414   .     A
C102   C114    1.411   .     A
C102   Br132   1.934   .     S
C102   C104    1.421   .     A
C103   N133    1.426   .     S
C103   N105    1.377   .     A
C104   N136    1.422   .     S
C104   N106    1.379   .     A
N105   C107    1.375   .     A
N106   C108    1.377   .     A
C107   Br139   1.914   .     S
C107   C109    1.404   .     A
C108   C110    1.406   .     A
C108   Br140   1.913   .     S
C109   C113    1.401   .     A
C109   H111    1.083   .     S
C110   C114    1.401   .     A
C110   H112    1.083   .     S
C113   C534    1.517   1_554 S
C114   C533    1.517   .     S
Br115  C155    1.943   .     S
N119   O120    1.301   .     A
N119   O121    1.301   .     A
N122   O124    1.301   .     A
N122   O123    1.301   .     A
N125   O126    1.300   .     A
N125   O337    1.300   1_545 S
O127   N335    1.300   .     S
N128   O130    1.301   .     A
N128   O339    1.301   .     S
O129   N338    1.301   1_545 S
N133   O135    1.298   .     A
N133   O134    1.301   .     A
N136   O138    1.301   .     A
N136   O137    1.299   .     A
O141   C145    1.292   .     A
O141   Zn153   1.972   .     S
O142   C146    1.297   .     A
O142   Zn154   1.972   .     S
O143   Zn154   1.989   .     S
O143   C145    1.291   .     A
O144   C146    1.294   .     A
O144   Zn153   1.989   .     S
C145   C163    1.435   .     S
C146   C164    1.449   .     S
O147   C151    1.280   .     A
O147   Zn153   1.974   .     S
O148   C152    1.273   .     A
O148   Zn154   1.974   .     S
O149   Zn154   1.987   .     S
O149   C151    1.289   .     A
O150   C152    1.297   .     A
O150   Zn153   1.987   .     S
C151   C155    1.402   .     S
C152   C156    1.408   .     S
Zn153  N176    2.023   .     S
Zn154  N175    2.023   .     S
C156   C15     1.349   1_655 S
C156   Br46    1.940   1_655 S
C157   C169    1.401   .     A
C157   C159    1.381   .     A
C157   Br187   1.919   .     S
C158   C170    1.398   .     A
C158   Br188   1.921   .     S
C158   C160    1.382   .     A
C159   H161    1.084   .     S
C159   C163    1.395   .     A
C160   H162    1.084   .     S
C160   C164    1.401   .     A
C163   C165    1.404   .     A
C164   C166    1.408   .     A
C165   C167    1.398   .     A
C165   N189    1.435   .     S
C166   C168    1.395   .     A
C166   N192    1.430   .     S
C167   N195    1.437   .     S
C167   C169    1.411   .     A
C168   N198    1.438   .     S
C168   C170    1.409   .     A
C169   C380    1.444   1_545 S
C170   C379    1.444   .     S
C171   Br201   1.931   .     S
C171   C173    1.422   .     A
C171   C183    1.414   .     A
C172   C184    1.411   .     A
C172   Br202   1.934   .     S
C172   C174    1.421   .     A
C173   N203    1.426   .     S
C173   N175    1.377   .     A
C174   N206    1.422   .     S
C174   N176    1.379   .     A
N175   C177    1.375   .     A
N176   C178    1.377   .     A
C177   Br209   1.914   .     S
C177   C179    1.404   .     A
C178   C180    1.406   .     A
C178   Br210   1.913   .     S
C179   C183    1.401   .     A
C179   H181    1.083   .     S
C180   C184    1.401   .     A
C180   H182    1.083   .     S
C183   C604    1.517   1_554 S
C184   C603    1.517   .     S
Br185  C15     1.943   1_655 S
N189   O190    1.301   .     A
N189   O191    1.301   .     A
N192   O194    1.301   .     A
N192   O193    1.301   .     A
N195   O196    1.300   .     A
N195   O407    1.300   1_545 S
O197   N405    1.300   .     S
N198   O200    1.301   .     A
N198   O409    1.301   .     S
O199   N408    1.301   1_545 S
N203   O205    1.298   .     A
N203   O204    1.301   .     A
N206   O208    1.301   .     A
N206   O207    1.299   .     A
O211   C215    1.292   .     A
O211   Zn223   1.972   .     S
O212   C216    1.297   .     A
O212   Zn224   1.972   .     S
O213   Zn224   1.989   .     S
O213   C215    1.291   .     A
O214   C216    1.294   .     A
O214   Zn223   1.989   .     S
C215   C233    1.435   .     S
C216   C234    1.449   .     S
O217   C221    1.280   .     A
O217   Zn223   1.974   .     S
O218   C222    1.273   .     A
O218   Zn224   1.974   .     S
O219   Zn224   1.987   .     S
O219   C221    1.289   .     A
O220   C222    1.297   .     A
O220   Zn223   1.987   .     S
C221   C225    1.402   .     S
C222   C226    1.408   .     S
Zn223  N246    2.023   .     S
Zn224  N245    2.023   .     S
C225   C366    1.349   1_455 S
C225   Br395   1.943   1_455 S
C226   C295    1.349   .     S
C226   Br326   1.940   .     S
C227   C239    1.401   .     A
C227   C229    1.381   .     A
C227   Br257   1.919   .     S
C228   C240    1.398   .     A
C228   Br258   1.921   .     S
C228   C230    1.382   .     A
C229   H231    1.084   .     S
C229   C233    1.395   .     A
C230   H232    1.084   .     S
C230   C234    1.401   .     A
C233   C235    1.404   .     A
C234   C236    1.408   .     A
C235   C237    1.398   .     A
C235   N259    1.435   .     S
C236   C238    1.395   .     A
C236   N262    1.430   .     S
C237   N265    1.437   .     S
C237   C239    1.411   .     A
C238   N268    1.438   .     S
C238   C240    1.409   .     A
C240   C29     1.444   1_565 S
C241   Br271   1.931   .     S
C241   C243    1.422   .     A
C241   C253    1.414   .     A
C242   C254    1.411   .     A
C242   Br272   1.934   .     S
C242   C244    1.421   .     A
C243   N273    1.426   .     S
C243   N245    1.377   .     A
C244   N276    1.422   .     S
C244   N246    1.379   .     A
N245   C247    1.375   .     A
N246   C248    1.377   .     A
C247   Br279   1.914   .     S
C247   C249    1.404   .     A
C248   C250    1.406   .     A
C248   Br280   1.913   .     S
C249   C253    1.401   .     A
C249   H251    1.083   .     S
C250   C254    1.401   .     A
C250   H252    1.083   .     S
C253   C674    1.517   1_554 S
C254   C673    1.517   .     S
Br255  C295    1.943   .     S
Br256  C366    1.940   1_455 S
N259   O260    1.301   .     A
N259   O261    1.301   .     A
N262   O264    1.301   .     A
N262   O263    1.301   .     A
N265   O266    1.300   .     A
O267   N55     1.300   1_565 S
N268   O270    1.301   .     A
N268   O59     1.301   1_565 S
N273   O275    1.298   .     A
N273   O274    1.301   .     A
N276   O278    1.301   .     A
N276   O277    1.299   .     A
O281   C285    1.292   .     A
O281   Zn293   1.972   .     S
O282   C286    1.297   .     A
O282   Zn294   1.972   .     S
O283   Zn294   1.989   .     S
O283   C285    1.291   .     A
O284   C286    1.294   .     A
O284   Zn293   1.989   .     S
C285   C303    1.435   .     S
C286   C304    1.449   .     S
O287   C291    1.280   .     A
O287   Zn293   1.974   .     S
O288   C292    1.273   .     A
O288   Zn294   1.974   .     S
O289   Zn294   1.987   .     S
O289   C291    1.289   .     A
O290   C292    1.297   .     A
O290   Zn293   1.987   .     S
C291   C295    1.402   .     S
C292   C296    1.408   .     S
Zn293  N316    2.023   .     S
Zn294  N315    2.023   .     S
C296   C365    1.349   .     S
C296   Br396   1.940   .     S
C297   C309    1.401   .     A
C297   C299    1.381   .     A
C297   Br327   1.919   .     S
C298   C310    1.398   .     A
C298   Br328   1.921   .     S
C298   C300    1.382   .     A
C299   H301    1.084   .     S
C299   C303    1.395   .     A
C300   H302    1.084   .     S
C300   C304    1.401   .     A
C303   C305    1.404   .     A
C304   C306    1.408   .     A
C305   C307    1.398   .     A
C305   N329    1.435   .     S
C306   C308    1.395   .     A
C306   N332    1.430   .     S
C307   N335    1.437   .     S
C307   C309    1.411   .     A
C308   N338    1.438   .     S
C308   C310    1.409   .     A
C310   C99     1.444   1_565 S
C311   Br341   1.931   .     S
C311   C313    1.422   .     A
C311   C323    1.414   .     A
C312   C324    1.411   .     A
C312   Br342   1.934   .     S
C312   C314    1.421   .     A
C313   N343    1.426   .     S
C313   N315    1.377   .     A
C314   N346    1.422   .     S
C314   N316    1.379   .     A
N315   C317    1.375   .     A
N316   C318    1.377   .     A
C317   Br349   1.914   .     S
C317   C319    1.404   .     A
C318   C320    1.406   .     A
C318   Br350   1.913   .     S
C319   C323    1.401   .     A
C319   H321    1.083   .     S
C320   C324    1.401   .     A
C320   H322    1.083   .     S
C323   C744    1.517   1_554 S
C324   C743    1.517   .     S
Br325  C365    1.943   .     S
N329   O330    1.301   .     A
N329   O331    1.301   .     A
N332   O334    1.301   .     A
N332   O333    1.301   .     A
N335   O336    1.300   .     A
O337   N125    1.300   1_565 S
N338   O340    1.301   .     A
N338   O129    1.301   1_565 S
N343   O345    1.298   .     A
N343   O344    1.301   .     A
N346   O348    1.301   .     A
N346   O347    1.299   .     A
O351   C355    1.292   .     A
O351   Zn363   1.972   .     S
O352   C356    1.297   .     A
O352   Zn364   1.972   .     S
O353   Zn364   1.989   .     S
O353   C355    1.291   .     A
O354   C356    1.294   .     A
O354   Zn363   1.989   .     S
C355   C373    1.435   .     S
C356   C374    1.449   .     S
O357   C361    1.280   .     A
O357   Zn363   1.974   .     S
O358   C362    1.273   .     A
O358   Zn364   1.974   .     S
O359   Zn364   1.987   .     S
O359   C361    1.289   .     A
O360   C362    1.297   .     A
O360   Zn363   1.987   .     S
C361   C365    1.402   .     S
C362   C366    1.408   .     S
Zn363  N386    2.023   .     S
Zn364  N385    2.023   .     S
C366   C225    1.349   1_655 S
C366   Br256   1.940   1_655 S
C367   C379    1.401   .     A
C367   C369    1.381   .     A
C367   Br397   1.919   .     S
C368   C380    1.398   .     A
C368   Br398   1.921   .     S
C368   C370    1.382   .     A
C369   H371    1.084   .     S
C369   C373    1.395   .     A
C370   H372    1.084   .     S
C370   C374    1.401   .     A
C373   C375    1.404   .     A
C374   C376    1.408   .     A
C375   C377    1.398   .     A
C375   N399    1.435   .     S
C376   C378    1.395   .     A
C376   N402    1.430   .     S
C377   N405    1.437   .     S
C377   C379    1.411   .     A
C378   N408    1.438   .     S
C378   C380    1.409   .     A
C380   C169    1.444   1_565 S
C381   Br411   1.931   .     S
C381   C383    1.422   .     A
C381   C393    1.414   .     A
C382   C394    1.411   .     A
C382   Br412   1.934   .     S
C382   C384    1.421   .     A
C383   N413    1.426   .     S
C383   N385    1.377   .     A
C384   N416    1.422   .     S
C384   N386    1.379   .     A
N385   C387    1.375   .     A
N386   C388    1.377   .     A
C387   Br419   1.914   .     S
C387   C389    1.404   .     A
C388   C390    1.406   .     A
C388   Br420   1.913   .     S
C389   C393    1.401   .     A
C389   H391    1.083   .     S
C390   C394    1.401   .     A
C390   H392    1.083   .     S
C393   C814    1.517   1_554 S
C394   C813    1.517   .     S
Br395  C225    1.943   1_655 S
N399   O400    1.301   .     A
N399   O401    1.301   .     A
N402   O404    1.301   .     A
N402   O403    1.301   .     A
N405   O406    1.300   .     A
O407   N195    1.300   1_565 S
N408   O410    1.301   .     A
N408   O199    1.301   1_565 S
N413   O415    1.298   .     A
N413   O414    1.301   .     A
N416   O418    1.301   .     A
N416   O417    1.299   .     A
O421   C425    1.292   .     A
O421   Zn433   1.972   .     S
O422   C426    1.297   .     A
O422   Zn434   1.972   .     S
O423   Zn434   1.989   .     S
O423   C425    1.291   .     A
O424   C426    1.294   .     A
O424   Zn433   1.989   .     S
C425   C443    1.435   .     S
C426   C444    1.449   .     S
O427   C431    1.280   .     A
O427   Zn433   1.974   .     S
O428   C432    1.273   .     A
O428   Zn434   1.974   .     S
O429   Zn434   1.987   .     S
O429   C431    1.289   .     A
O430   C432    1.297   .     A
O430   Zn433   1.987   .     S
C431   C435    1.402   .     S
C432   C436    1.408   .     S
Zn433  N456    2.023   .     S
Zn434  N455    2.023   .     S
C435   C576    1.349   1_455 S
C435   Br605   1.943   1_455 S
C436   C505    1.349   .     S
C436   Br536   1.940   .     S
C437   C449    1.401   .     A
C437   C439    1.381   .     A
C437   Br467   1.919   .     S
C438   C450    1.398   .     A
C438   Br468   1.921   .     S
C438   C440    1.382   .     A
C439   H441    1.084   .     S
C439   C443    1.395   .     A
C440   H442    1.084   .     S
C440   C444    1.401   .     A
C443   C445    1.404   .     A
C444   C446    1.408   .     A
C445   C447    1.398   .     A
C445   N469    1.435   .     S
C446   C448    1.395   .     A
C446   N472    1.430   .     S
C447   N475    1.437   .     S
C447   C449    1.411   .     A
C448   N478    1.438   .     S
C448   C450    1.409   .     A
C449   C660    1.444   1_545 S
C450   C659    1.444   .     S
C451   Br481   1.931   .     S
C451   C453    1.422   .     A
C451   C463    1.414   .     A
C452   C464    1.411   .     A
C452   Br482   1.934   .     S
C452   C454    1.421   .     A
C453   N483    1.426   .     S
C453   N455    1.377   .     A
C454   N486    1.422   .     S
C454   N456    1.379   .     A
N455   C457    1.375   .     A
N456   C458    1.377   .     A
C457   Br489   1.914   .     S
C457   C459    1.404   .     A
C458   C460    1.406   .     A
C458   Br490   1.913   .     S
C459   C463    1.401   .     A
C459   H461    1.083   .     S
C460   C464    1.401   .     A
C460   H462    1.083   .     S
C464   C43     1.517   1_556 S
Br465  C505    1.943   .     S
Br466  C576    1.940   1_455 S
N469   O470    1.301   .     A
N469   O471    1.301   .     A
N472   O474    1.301   .     A
N472   O473    1.301   .     A
N475   O476    1.300   .     A
N475   O687    1.300   1_545 S
O477   N685    1.300   .     S
N478   O480    1.301   .     A
N478   O689    1.301   .     S
O479   N688    1.301   1_545 S
N483   O485    1.298   .     A
N483   O484    1.301   .     A
N486   O488    1.301   .     A
N486   O487    1.299   .     A
O491   C495    1.292   .     A
O491   Zn503   1.972   .     S
O492   C496    1.297   .     A
O492   Zn504   1.972   .     S
O493   Zn504   1.989   .     S
O493   C495    1.291   .     A
O494   C496    1.294   .     A
O494   Zn503   1.989   .     S
C495   C513    1.435   .     S
C496   C514    1.449   .     S
O497   C501    1.280   .     A
O497   Zn503   1.974   .     S
O498   C502    1.273   .     A
O498   Zn504   1.974   .     S
O499   Zn504   1.987   .     S
O499   C501    1.289   .     A
O500   C502    1.297   .     A
O500   Zn503   1.987   .     S
C501   C505    1.402   .     S
C502   C506    1.408   .     S
Zn503  N526    2.023   .     S
Zn504  N525    2.023   .     S
C506   C575    1.349   .     S
C506   Br606   1.940   .     S
C507   C519    1.401   .     A
C507   C509    1.381   .     A
C507   Br537   1.919   .     S
C508   C520    1.398   .     A
C508   Br538   1.921   .     S
C508   C510    1.382   .     A
C509   H511    1.084   .     S
C509   C513    1.395   .     A
C510   H512    1.084   .     S
C510   C514    1.401   .     A
C513   C515    1.404   .     A
C514   C516    1.408   .     A
C515   C517    1.398   .     A
C515   N539    1.435   .     S
C516   C518    1.395   .     A
C516   N542    1.430   .     S
C517   N545    1.437   .     S
C517   C519    1.411   .     A
C518   N548    1.438   .     S
C518   C520    1.409   .     A
C519   C730    1.444   1_545 S
C520   C729    1.444   .     S
C521   Br551   1.931   .     S
C521   C523    1.422   .     A
C521   C533    1.414   .     A
C522   C534    1.411   .     A
C522   Br552   1.934   .     S
C522   C524    1.421   .     A
C523   N553    1.426   .     S
C523   N525    1.377   .     A
C524   N556    1.422   .     S
C524   N526    1.379   .     A
N525   C527    1.375   .     A
N526   C528    1.377   .     A
C527   Br559   1.914   .     S
C527   C529    1.404   .     A
C528   C530    1.406   .     A
C528   Br560   1.913   .     S
C529   C533    1.401   .     A
C529   H531    1.083   .     S
C530   C534    1.401   .     A
C530   H532    1.083   .     S
C534   C113    1.517   1_556 S
Br535  C575    1.943   .     S
N539   O540    1.301   .     A
N539   O541    1.301   .     A
N542   O544    1.301   .     A
N542   O543    1.301   .     A
N545   O546    1.300   .     A
N545   O757    1.300   1_545 S
O547   N755    1.300   .     S
N548   O550    1.301   .     A
N548   O759    1.301   .     S
O549   N758    1.301   1_545 S
N553   O555    1.298   .     A
N553   O554    1.301   .     A
N556   O558    1.301   .     A
N556   O557    1.299   .     A
O561   C565    1.292   .     A
O561   Zn573   1.972   .     S
O562   C566    1.297   .     A
O562   Zn574   1.972   .     S
O563   Zn574   1.989   .     S
O563   C565    1.291   .     A
O564   C566    1.294   .     A
O564   Zn573   1.989   .     S
C565   C583    1.435   .     S
C566   C584    1.449   .     S
O567   C571    1.280   .     A
O567   Zn573   1.974   .     S
O568   C572    1.273   .     A
O568   Zn574   1.974   .     S
O569   Zn574   1.987   .     S
O569   C571    1.289   .     A
O570   C572    1.297   .     A
O570   Zn573   1.987   .     S
C571   C575    1.402   .     S
C572   C576    1.408   .     S
Zn573  N596    2.023   .     S
Zn574  N595    2.023   .     S
C576   C435    1.349   1_655 S
C576   Br466   1.940   1_655 S
C577   C589    1.401   .     A
C577   C579    1.381   .     A
C577   Br607   1.919   .     S
C578   C590    1.398   .     A
C578   Br608   1.921   .     S
C578   C580    1.382   .     A
C579   H581    1.084   .     S
C579   C583    1.395   .     A
C580   H582    1.084   .     S
C580   C584    1.401   .     A
C583   C585    1.404   .     A
C584   C586    1.408   .     A
C585   C587    1.398   .     A
C585   N609    1.435   .     S
C586   C588    1.395   .     A
C586   N612    1.430   .     S
C587   N615    1.437   .     S
C587   C589    1.411   .     A
C588   N618    1.438   .     S
C588   C590    1.409   .     A
C589   C800    1.444   1_545 S
C590   C799    1.444   .     S
C591   Br621   1.931   .     S
C591   C593    1.422   .     A
C591   C603    1.414   .     A
C592   C604    1.411   .     A
C592   Br622   1.934   .     S
C592   C594    1.421   .     A
C593   N623    1.426   .     S
C593   N595    1.377   .     A
C594   N626    1.422   .     S
C594   N596    1.379   .     A
N595   C597    1.375   .     A
N596   C598    1.377   .     A
C597   Br629   1.914   .     S
C597   C599    1.404   .     A
C598   C600    1.406   .     A
C598   Br630   1.913   .     S
C599   C603    1.401   .     A
C599   H601    1.083   .     S
C600   C604    1.401   .     A
C600   H602    1.083   .     S
C604   C183    1.517   1_556 S
Br605  C435    1.943   1_655 S
N609   O610    1.301   .     A
N609   O611    1.301   .     A
N612   O614    1.301   .     A
N612   O613    1.301   .     A
N615   O616    1.300   .     A
N615   O827    1.300   1_545 S
O617   N825    1.300   .     S
N618   O620    1.301   .     A
N618   O829    1.301   .     S
O619   N828    1.301   1_545 S
N623   O625    1.298   .     A
N623   O624    1.301   .     A
N626   O628    1.301   .     A
N626   O627    1.299   .     A
O631   C635    1.292   .     A
O631   Zn643   1.972   .     S
O632   C636    1.297   .     A
O632   Zn644   1.972   .     S
O633   Zn644   1.989   .     S
O633   C635    1.291   .     A
O634   C636    1.294   .     A
O634   Zn643   1.989   .     S
C635   C653    1.435   .     S
C636   C654    1.449   .     S
O637   C641    1.280   .     A
O637   Zn643   1.974   .     S
O638   C642    1.273   .     A
O638   Zn644   1.974   .     S
O639   Zn644   1.987   .     S
O639   C641    1.289   .     A
O640   C642    1.297   .     A
O640   Zn643   1.987   .     S
C641   C645    1.402   .     S
C642   C646    1.408   .     S
Zn643  N666    2.023   .     S
Zn644  N665    2.023   .     S
C645   C786    1.349   1_455 S
C645   Br815   1.943   1_455 S
C646   C715    1.349   .     S
C646   Br746   1.940   .     S
C647   C659    1.401   .     A
C647   C649    1.381   .     A
C647   Br677   1.919   .     S
C648   C660    1.398   .     A
C648   Br678   1.921   .     S
C648   C650    1.382   .     A
C649   H651    1.084   .     S
C649   C653    1.395   .     A
C650   H652    1.084   .     S
C650   C654    1.401   .     A
C653   C655    1.404   .     A
C654   C656    1.408   .     A
C655   C657    1.398   .     A
C655   N679    1.435   .     S
C656   C658    1.395   .     A
C656   N682    1.430   .     S
C657   N685    1.437   .     S
C657   C659    1.411   .     A
C658   N688    1.438   .     S
C658   C660    1.409   .     A
C660   C449    1.444   1_565 S
C661   Br691   1.931   .     S
C661   C663    1.422   .     A
C661   C673    1.414   .     A
C662   C674    1.411   .     A
C662   Br692   1.934   .     S
C662   C664    1.421   .     A
C663   N693    1.426   .     S
C663   N665    1.377   .     A
C664   N696    1.422   .     S
C664   N666    1.379   .     A
N665   C667    1.375   .     A
N666   C668    1.377   .     A
C667   Br699   1.914   .     S
C667   C669    1.404   .     A
C668   C670    1.406   .     A
C668   Br700   1.913   .     S
C669   C673    1.401   .     A
C669   H671    1.083   .     S
C670   C674    1.401   .     A
C670   H672    1.083   .     S
C674   C253    1.517   1_556 S
Br675  C715    1.943   .     S
Br676  C786    1.940   1_455 S
N679   O680    1.301   .     A
N679   O681    1.301   .     A
N682   O684    1.301   .     A
N682   O683    1.301   .     A
N685   O686    1.300   .     A
O687   N475    1.300   1_565 S
N688   O690    1.301   .     A
N688   O479    1.301   1_565 S
N693   O695    1.298   .     A
N693   O694    1.301   .     A
N696   O698    1.301   .     A
N696   O697    1.299   .     A
O701   C705    1.292   .     A
O701   Zn713   1.972   .     S
O702   C706    1.297   .     A
O702   Zn714   1.972   .     S
O703   Zn714   1.989   .     S
O703   C705    1.291   .     A
O704   C706    1.294   .     A
O704   Zn713   1.989   .     S
C705   C723    1.435   .     S
C706   C724    1.449   .     S
O707   C711    1.280   .     A
O707   Zn713   1.974   .     S
O708   C712    1.273   .     A
O708   Zn714   1.974   .     S
O709   Zn714   1.987   .     S
O709   C711    1.289   .     A
O710   C712    1.297   .     A
O710   Zn713   1.987   .     S
C711   C715    1.402   .     S
C712   C716    1.408   .     S
Zn713  N736    2.023   .     S
Zn714  N735    2.023   .     S
C716   C785    1.349   .     S
C716   Br816   1.940   .     S
C717   C729    1.401   .     A
C717   C719    1.381   .     A
C717   Br747   1.919   .     S
C718   C730    1.398   .     A
C718   Br748   1.921   .     S
C718   C720    1.382   .     A
C719   H721    1.084   .     S
C719   C723    1.395   .     A
C720   H722    1.084   .     S
C720   C724    1.401   .     A
C723   C725    1.404   .     A
C724   C726    1.408   .     A
C725   C727    1.398   .     A
C725   N749    1.435   .     S
C726   C728    1.395   .     A
C726   N752    1.430   .     S
C727   N755    1.437   .     S
C727   C729    1.411   .     A
C728   N758    1.438   .     S
C728   C730    1.409   .     A
C730   C519    1.444   1_565 S
C731   Br761   1.931   .     S
C731   C733    1.422   .     A
C731   C743    1.414   .     A
C732   C744    1.411   .     A
C732   Br762   1.934   .     S
C732   C734    1.421   .     A
C733   N763    1.426   .     S
C733   N735    1.377   .     A
C734   N766    1.422   .     S
C734   N736    1.379   .     A
N735   C737    1.375   .     A
N736   C738    1.377   .     A
C737   Br769   1.914   .     S
C737   C739    1.404   .     A
C738   C740    1.406   .     A
C738   Br770   1.913   .     S
C739   C743    1.401   .     A
C739   H741    1.083   .     S
C740   C744    1.401   .     A
C740   H742    1.083   .     S
C744   C323    1.517   1_556 S
Br745  C785    1.943   .     S
N749   O750    1.301   .     A
N749   O751    1.301   .     A
N752   O754    1.301   .     A
N752   O753    1.301   .     A
N755   O756    1.300   .     A
O757   N545    1.300   1_565 S
N758   O760    1.301   .     A
N758   O549    1.301   1_565 S
N763   O765    1.298   .     A
N763   O764    1.301   .     A
N766   O768    1.301   .     A
N766   O767    1.299   .     A
O771   C775    1.292   .     A
O771   Zn783   1.972   .     S
O772   C776    1.297   .     A
O772   Zn784   1.972   .     S
O773   Zn784   1.989   .     S
O773   C775    1.291   .     A
O774   C776    1.294   .     A
O774   Zn783   1.989   .     S
C775   C793    1.435   .     S
C776   C794    1.449   .     S
O777   C781    1.280   .     A
O777   Zn783   1.974   .     S
O778   C782    1.273   .     A
O778   Zn784   1.974   .     S
O779   Zn784   1.987   .     S
O779   C781    1.289   .     A
O780   C782    1.297   .     A
O780   Zn783   1.987   .     S
C781   C785    1.402   .     S
C782   C786    1.408   .     S
Zn783  N806    2.023   .     S
Zn784  N805    2.023   .     S
C786   C645    1.349   1_655 S
C786   Br676   1.940   1_655 S
C787   C799    1.401   .     A
C787   C789    1.381   .     A
C787   Br817   1.919   .     S
C788   C800    1.398   .     A
C788   Br818   1.921   .     S
C788   C790    1.382   .     A
C789   H791    1.084   .     S
C789   C793    1.395   .     A
C790   H792    1.084   .     S
C790   C794    1.401   .     A
C793   C795    1.404   .     A
C794   C796    1.408   .     A
C795   C797    1.398   .     A
C795   N819    1.435   .     S
C796   C798    1.395   .     A
C796   N822    1.430   .     S
C797   N825    1.437   .     S
C797   C799    1.411   .     A
C798   N828    1.438   .     S
C798   C800    1.409   .     A
C800   C589    1.444   1_565 S
C801   Br831   1.931   .     S
C801   C803    1.422   .     A
C801   C813    1.414   .     A
C802   C814    1.411   .     A
C802   Br832   1.934   .     S
C802   C804    1.421   .     A
C803   N833    1.426   .     S
C803   N805    1.377   .     A
C804   N836    1.422   .     S
C804   N806    1.379   .     A
N805   C807    1.375   .     A
N806   C808    1.377   .     A
C807   Br839   1.914   .     S
C807   C809    1.404   .     A
C808   C810    1.406   .     A
C808   Br840   1.913   .     S
C809   C813    1.401   .     A
C809   H811    1.083   .     S
C810   C814    1.401   .     A
C810   H812    1.083   .     S
C814   C393    1.517   1_556 S
Br815  C645    1.943   1_655 S
N819   O820    1.301   .     A
N819   O821    1.301   .     A
N822   O824    1.301   .     A
N822   O823    1.301   .     A
N825   O826    1.300   .     A
O827   N615    1.300   1_565 S
N828   O830    1.301   .     A
N828   O619    1.301   1_565 S
N833   O835    1.298   .     A
N833   O834    1.301   .     A
N836   O838    1.301   .     A
N836   O837    1.299   .     A
