data_str_m3_o10_o18_pcu_sym.146
_audit_creation_date              2020-01-03
_audit_creation_method            'Materials Studio'
_symmetry_space_group_name_H-M    'P1'
_symmetry_Int_Tables_number       1
_symmetry_cell_setting            triclinic
loop_
_symmetry_equiv_pos_as_xyz
  x,y,z
_cell_length_a                    23.7719
_cell_length_b                    25.6825
_cell_length_c                    27.4966
_cell_angle_alpha                 92.9072
_cell_angle_beta                  92.5206
_cell_angle_gamma                 93.4611
loop_
_atom_site_label
_atom_site_type_symbol
_atom_site_fract_x
_atom_site_fract_y
_atom_site_fract_z
_atom_site_U_iso_or_equiv
_atom_site_adp_type
_atom_site_occupancy
O1     O     0.29719   0.24631   0.25309   0.00000  Uiso   1.00
O2     O     0.03614   0.08702   0.24690   0.00000  Uiso   1.00
O3     O     0.05822   0.23702   0.24501   0.00000  Uiso   1.00
O4     O     0.27512   0.09632   0.25498   0.00000  Uiso   1.00
C5     C     0.01459   0.26468   0.24995   0.00000  Uiso   1.00
C6     C     0.31846   0.06857   0.24867   0.00000  Uiso   1.00
O7     O     0.30328   0.17397   0.32247   0.00000  Uiso   1.00
O8     O     0.03005   0.15937   0.17753   0.00000  Uiso   1.00
O9     O     0.06431   0.16467   0.31439   0.00000  Uiso   1.00
O10    O     0.26902   0.16866   0.18561   0.00000  Uiso   1.00
C11    C     0.02069   0.17009   0.34130   0.00000  Uiso   1.00
C12    C     0.31240   0.16193   0.15892   0.00000  Uiso   1.00
Zn13   Zn    0.27033   0.17287   0.25539   0.00000  Uiso   1.00
Zn14   Zn    0.06300   0.16046   0.24460   0.00000  Uiso   1.00
C15    C     0.02976   0.17221   0.39467   0.00000  Uiso   1.00
C16    C     0.30087   0.15024   0.10675   0.00000  Uiso   1.00
C17    C     0.00865   0.20412   0.47582   0.00000  Uiso   1.00
C18    C     0.30014   0.08936   0.03720   0.00000  Uiso   1.00
C19    C     0.32507   0.19443   0.42681   0.00000  Uiso   1.00
C20    C     0.32474   0.10834   0.08180   0.00000  Uiso   1.00
C21    C     0.08045   0.15465   0.41364   0.00000  Uiso   1.00
C22    C     0.25470   0.17317   0.08550   0.00000  Uiso   1.00
C23    C     0.09503   0.15963   0.46364   0.00000  Uiso   1.00
C24    C     0.22392   0.14892   0.04487   0.00000  Uiso   1.00
C25    C     0.06088   0.18898   0.49360   0.00000  Uiso   1.00
C26    C     0.24926   0.10778   0.01970   0.00000  Uiso   1.00
C27    C     0.14505   0.13979   0.48372   0.00000  Uiso   1.00
C28    C     0.16893   0.16289   0.02900   0.00000  Uiso   1.00
C29    C     0.13493   0.19622   0.05725   0.00000  Uiso   1.00
C30    C     0.16952   0.09592   0.46102   0.00000  Uiso   1.00
C31    C     0.07987   0.20450   0.04056   0.00000  Uiso   1.00
C32    C     0.22265   0.08235   0.47886   0.00000  Uiso   1.00
H33    H     0.05280   0.22597   0.06394   0.00000  Uiso   1.00
H34    H     0.24409   0.05059   0.46244   0.00000  Uiso   1.00
H35    H     0.24324   0.20888   0.10306   0.00000  Uiso   1.00
H36    H     0.11031   0.14003   0.38859   0.00000  Uiso   1.00
H37    H     0.31458   0.22435   0.49990   0.00000  Uiso   1.00
H38    H     0.31892   0.05743   0.01780   0.00000  Uiso   1.00
C39    C     0.02013   0.31927   0.25845   0.00000  Uiso   1.00
C40    C     0.31273   0.01387   0.23874   0.00000  Uiso   1.00
N41    N     0.14695   0.15216   0.23739   0.00000  Uiso   1.00
N42    N     0.18638   0.18117   0.26260   0.00000  Uiso   1.00
N43    N     0.03747   0.08197   0.10231   0.00000  Uiso   1.00
O44    O     0.08584   0.10745   0.11188   0.00000  Uiso   1.00
O45    O     0.03532   0.03117   0.10004   0.00000  Uiso   1.00
N46    N     0.27081   0.20981   0.41037   0.00000  Uiso   1.00
O47    O     0.25566   0.25635   0.42248   0.00000  Uiso   1.00
O48    O     0.23246   0.17428   0.39382   0.00000  Uiso   1.00
O49    O     0.15076   0.21410   0.10440   0.00000  Uiso   1.00
C50    C     0.15074   0.26942   0.10923   0.00000  Uiso   1.00
H51    H     0.13553   0.28889   0.07614   0.00000  Uiso   1.00
H52    H     0.19465   0.28533   0.11720   0.00000  Uiso   1.00
C53    C     0.11512   0.28488   0.15149   0.00000  Uiso   1.00
H54    H     0.13164   0.26792   0.18497   0.00000  Uiso   1.00
H55    H     0.11679   0.32802   0.15721   0.00000  Uiso   1.00
H56    H     0.07065   0.26999   0.14397   0.00000  Uiso   1.00
O57    O     0.13709   0.06565   0.42495   0.00000  Uiso   1.00
C58    C     0.16131   0.02036   0.40603   0.00000  Uiso   1.00
H59    H     0.12649   0.32764   0.38888   0.00000  Uiso   1.00
H60    H     0.17887   0.32958   0.43472   0.00000  Uiso   1.00
C61    C     0.20330   0.03383   0.36701   0.00000  Uiso   1.00
H62    H     0.21705   0.33071   0.34908   0.00000  Uiso   1.00
H63    H     0.18317   0.05745   0.33920   0.00000  Uiso   1.00
H64    H     0.24134   0.05691   0.38249   0.00000  Uiso   1.00
N65    N     0.05723   0.00621   0.29847   0.00000  Uiso   1.00
O66    O     0.03799   0.03267   0.33514   0.00000  Uiso   1.00
O67    O     0.10804   0.32422   0.30172   0.00000  Uiso   1.00
N68    N     0.27704   0.32723   0.19731   0.00000  Uiso   1.00
O69    O     0.29655   0.29652   0.16376   0.00000  Uiso   1.00
O70    O     0.22894   0.01364   0.18864   0.00000  Uiso   1.00
N71    N     0.16439   0.10560   0.21788   0.00000  Uiso   1.00
O72    O     0.15036   0.06276   0.23867   0.00000  Uiso   1.00
O73    O     0.17836   0.10284   0.17272   0.00000  Uiso   1.00
N74    N     0.16972   0.22808   0.28218   0.00000  Uiso   1.00
O75    O     0.18898   0.27086   0.26387   0.00000  Uiso   1.00
O76    O     0.15458   0.23044   0.32704   0.00000  Uiso   1.00
O77    O     0.63052   0.24631   0.25309   0.00000  Uiso   1.00
O78    O     0.36948   0.08702   0.24690   0.00000  Uiso   1.00
O79    O     0.39155   0.23702   0.24501   0.00000  Uiso   1.00
O80    O     0.60845   0.09632   0.25498   0.00000  Uiso   1.00
C81    C     0.34793   0.26468   0.24995   0.00000  Uiso   1.00
C82    C     0.65179   0.06857   0.24867   0.00000  Uiso   1.00
O83    O     0.63662   0.17397   0.32247   0.00000  Uiso   1.00
O84    O     0.36338   0.15937   0.17753   0.00000  Uiso   1.00
O85    O     0.39764   0.16467   0.31439   0.00000  Uiso   1.00
O86    O     0.60236   0.16866   0.18561   0.00000  Uiso   1.00
C87    C     0.35403   0.17009   0.34130   0.00000  Uiso   1.00
C88    C     0.64573   0.16193   0.15892   0.00000  Uiso   1.00
Zn89   Zn    0.60366   0.17287   0.25539   0.00000  Uiso   1.00
Zn90   Zn    0.39634   0.16046   0.24460   0.00000  Uiso   1.00
C91    C     0.36309   0.17221   0.39467   0.00000  Uiso   1.00
C92    C     0.63420   0.15024   0.10675   0.00000  Uiso   1.00
C93    C     0.34198   0.20412   0.47582   0.00000  Uiso   1.00
C94    C     0.63347   0.08936   0.03720   0.00000  Uiso   1.00
C95    C     0.65841   0.19443   0.42681   0.00000  Uiso   1.00
C96    C     0.65807   0.10834   0.08180   0.00000  Uiso   1.00
C97    C     0.41379   0.15465   0.41364   0.00000  Uiso   1.00
C98    C     0.58803   0.17317   0.08550   0.00000  Uiso   1.00
C99    C     0.42837   0.15963   0.46364   0.00000  Uiso   1.00
C100   C     0.55725   0.14892   0.04487   0.00000  Uiso   1.00
C101   C     0.39421   0.18898   0.49360   0.00000  Uiso   1.00
C102   C     0.58259   0.10778   0.01970   0.00000  Uiso   1.00
C103   C     0.47838   0.13979   0.48372   0.00000  Uiso   1.00
C104   C     0.50226   0.16289   0.02900   0.00000  Uiso   1.00
C105   C     0.46826   0.19622   0.05725   0.00000  Uiso   1.00
C106   C     0.50286   0.09592   0.46102   0.00000  Uiso   1.00
C107   C     0.41320   0.20450   0.04056   0.00000  Uiso   1.00
C108   C     0.55598   0.08235   0.47886   0.00000  Uiso   1.00
H109   H     0.38613   0.22597   0.06394   0.00000  Uiso   1.00
H110   H     0.57743   0.05059   0.46244   0.00000  Uiso   1.00
H111   H     0.57657   0.20888   0.10306   0.00000  Uiso   1.00
H112   H     0.44364   0.14003   0.38859   0.00000  Uiso   1.00
H113   H     0.64792   0.22435   0.49990   0.00000  Uiso   1.00
H114   H     0.65226   0.05743   0.01780   0.00000  Uiso   1.00
C115   C     0.35346   0.31927   0.25845   0.00000  Uiso   1.00
C116   C     0.64606   0.01387   0.23874   0.00000  Uiso   1.00
N117   N     0.48029   0.15216   0.23739   0.00000  Uiso   1.00
N118   N     0.51971   0.18117   0.26260   0.00000  Uiso   1.00
N119   N     0.37081   0.08197   0.10231   0.00000  Uiso   1.00
O120   O     0.41917   0.10745   0.11188   0.00000  Uiso   1.00
O121   O     0.36865   0.03117   0.10004   0.00000  Uiso   1.00
N122   N     0.60415   0.20981   0.41037   0.00000  Uiso   1.00
O123   O     0.58899   0.25635   0.42248   0.00000  Uiso   1.00
O124   O     0.56580   0.17428   0.39382   0.00000  Uiso   1.00
O125   O     0.48409   0.21410   0.10440   0.00000  Uiso   1.00
C126   C     0.48407   0.26942   0.10923   0.00000  Uiso   1.00
H127   H     0.46886   0.28889   0.07614   0.00000  Uiso   1.00
H128   H     0.52798   0.28533   0.11720   0.00000  Uiso   1.00
C129   C     0.44845   0.28488   0.15149   0.00000  Uiso   1.00
H130   H     0.46497   0.26792   0.18497   0.00000  Uiso   1.00
H131   H     0.45013   0.32802   0.15721   0.00000  Uiso   1.00
H132   H     0.40398   0.26999   0.14397   0.00000  Uiso   1.00
O133   O     0.47042   0.06565   0.42495   0.00000  Uiso   1.00
C134   C     0.49464   0.02036   0.40603   0.00000  Uiso   1.00
H135   H     0.45983   0.32764   0.38888   0.00000  Uiso   1.00
H136   H     0.51221   0.32958   0.43472   0.00000  Uiso   1.00
C137   C     0.53663   0.03383   0.36701   0.00000  Uiso   1.00
H138   H     0.55039   0.33071   0.34908   0.00000  Uiso   1.00
H139   H     0.51650   0.05745   0.33920   0.00000  Uiso   1.00
H140   H     0.57467   0.05691   0.38249   0.00000  Uiso   1.00
N141   N     0.39056   0.00621   0.29847   0.00000  Uiso   1.00
O142   O     0.37133   0.03267   0.33514   0.00000  Uiso   1.00
O143   O     0.44138   0.32422   0.30172   0.00000  Uiso   1.00
N144   N     0.61037   0.32723   0.19731   0.00000  Uiso   1.00
O145   O     0.62988   0.29652   0.16376   0.00000  Uiso   1.00
O146   O     0.56227   0.01364   0.18864   0.00000  Uiso   1.00
N147   N     0.49772   0.10560   0.21788   0.00000  Uiso   1.00
O148   O     0.48369   0.06276   0.23867   0.00000  Uiso   1.00
O149   O     0.51170   0.10284   0.17272   0.00000  Uiso   1.00
N150   N     0.50305   0.22808   0.28218   0.00000  Uiso   1.00
O151   O     0.52232   0.27086   0.26387   0.00000  Uiso   1.00
O152   O     0.48792   0.23044   0.32704   0.00000  Uiso   1.00
O153   O     0.96386   0.24631   0.25309   0.00000  Uiso   1.00
O154   O     0.70281   0.08702   0.24690   0.00000  Uiso   1.00
O155   O     0.72488   0.23702   0.24501   0.00000  Uiso   1.00
O156   O     0.94178   0.09632   0.25498   0.00000  Uiso   1.00
C157   C     0.68126   0.26468   0.24995   0.00000  Uiso   1.00
C158   C     0.98513   0.06857   0.24867   0.00000  Uiso   1.00
O159   O     0.96995   0.17397   0.32247   0.00000  Uiso   1.00
O160   O     0.69672   0.15937   0.17753   0.00000  Uiso   1.00
O161   O     0.73098   0.16467   0.31439   0.00000  Uiso   1.00
O162   O     0.93569   0.16866   0.18561   0.00000  Uiso   1.00
C163   C     0.68736   0.17009   0.34130   0.00000  Uiso   1.00
C164   C     0.97907   0.16193   0.15892   0.00000  Uiso   1.00
Zn165  Zn    0.93700   0.17287   0.25539   0.00000  Uiso   1.00
Zn166  Zn    0.72967   0.16046   0.24460   0.00000  Uiso   1.00
C167   C     0.69643   0.17221   0.39467   0.00000  Uiso   1.00
C168   C     0.96753   0.15024   0.10675   0.00000  Uiso   1.00
C169   C     0.67532   0.20412   0.47582   0.00000  Uiso   1.00
C170   C     0.96680   0.08936   0.03720   0.00000  Uiso   1.00
C171   C     0.99174   0.19443   0.42681   0.00000  Uiso   1.00
C172   C     0.99141   0.10834   0.08180   0.00000  Uiso   1.00
C173   C     0.74712   0.15465   0.41364   0.00000  Uiso   1.00
C174   C     0.92136   0.17317   0.08550   0.00000  Uiso   1.00
C175   C     0.76170   0.15963   0.46364   0.00000  Uiso   1.00
C176   C     0.89058   0.14892   0.04487   0.00000  Uiso   1.00
C177   C     0.72755   0.18898   0.49360   0.00000  Uiso   1.00
C178   C     0.91593   0.10778   0.01970   0.00000  Uiso   1.00
C179   C     0.81172   0.13979   0.48372   0.00000  Uiso   1.00
C180   C     0.83560   0.16289   0.02900   0.00000  Uiso   1.00
C181   C     0.80159   0.19622   0.05725   0.00000  Uiso   1.00
C182   C     0.83619   0.09592   0.46102   0.00000  Uiso   1.00
C183   C     0.74654   0.20450   0.04056   0.00000  Uiso   1.00
C184   C     0.88932   0.08235   0.47886   0.00000  Uiso   1.00
H185   H     0.71947   0.22597   0.06394   0.00000  Uiso   1.00
H186   H     0.91076   0.05059   0.46244   0.00000  Uiso   1.00
H187   H     0.90990   0.20888   0.10306   0.00000  Uiso   1.00
H188   H     0.77697   0.14003   0.38859   0.00000  Uiso   1.00
H189   H     0.98125   0.22435   0.49990   0.00000  Uiso   1.00
H190   H     0.98559   0.05743   0.01780   0.00000  Uiso   1.00
C191   C     0.68680   0.31927   0.25845   0.00000  Uiso   1.00
C192   C     0.97939   0.01387   0.23874   0.00000  Uiso   1.00
N193   N     0.81362   0.15216   0.23739   0.00000  Uiso   1.00
N194   N     0.85305   0.18117   0.26260   0.00000  Uiso   1.00
N195   N     0.70414   0.08197   0.10231   0.00000  Uiso   1.00
O196   O     0.75251   0.10745   0.11188   0.00000  Uiso   1.00
O197   O     0.70198   0.03117   0.10004   0.00000  Uiso   1.00
N198   N     0.93748   0.20981   0.41037   0.00000  Uiso   1.00
O199   O     0.92232   0.25635   0.42248   0.00000  Uiso   1.00
O200   O     0.89913   0.17428   0.39382   0.00000  Uiso   1.00
O201   O     0.81743   0.21410   0.10440   0.00000  Uiso   1.00
C202   C     0.81740   0.26942   0.10923   0.00000  Uiso   1.00
H203   H     0.80220   0.28889   0.07614   0.00000  Uiso   1.00
H204   H     0.86132   0.28533   0.11720   0.00000  Uiso   1.00
C205   C     0.78178   0.28488   0.15149   0.00000  Uiso   1.00
H206   H     0.79831   0.26792   0.18497   0.00000  Uiso   1.00
H207   H     0.78346   0.32802   0.15721   0.00000  Uiso   1.00
H208   H     0.73731   0.26999   0.14397   0.00000  Uiso   1.00
O209   O     0.80376   0.06565   0.42495   0.00000  Uiso   1.00
C210   C     0.82798   0.02036   0.40603   0.00000  Uiso   1.00
H211   H     0.79316   0.32764   0.38888   0.00000  Uiso   1.00
H212   H     0.84554   0.32958   0.43472   0.00000  Uiso   1.00
C213   C     0.86997   0.03383   0.36701   0.00000  Uiso   1.00
H214   H     0.88372   0.33071   0.34908   0.00000  Uiso   1.00
H215   H     0.84984   0.05745   0.33920   0.00000  Uiso   1.00
H216   H     0.90800   0.05691   0.38249   0.00000  Uiso   1.00
N217   N     0.72390   0.00621   0.29847   0.00000  Uiso   1.00
O218   O     0.70466   0.03267   0.33514   0.00000  Uiso   1.00
O219   O     0.77471   0.32422   0.30172   0.00000  Uiso   1.00
N220   N     0.94371   0.32723   0.19731   0.00000  Uiso   1.00
O221   O     0.96322   0.29652   0.16376   0.00000  Uiso   1.00
O222   O     0.89561   0.01364   0.18864   0.00000  Uiso   1.00
N223   N     0.83106   0.10560   0.21788   0.00000  Uiso   1.00
O224   O     0.81702   0.06276   0.23867   0.00000  Uiso   1.00
O225   O     0.84503   0.10284   0.17272   0.00000  Uiso   1.00
N226   N     0.83638   0.22808   0.28218   0.00000  Uiso   1.00
O227   O     0.85565   0.27086   0.26387   0.00000  Uiso   1.00
O228   O     0.82125   0.23044   0.32704   0.00000  Uiso   1.00
O229   O     0.29719   0.57964   0.25309   0.00000  Uiso   1.00
O230   O     0.03614   0.42036   0.24690   0.00000  Uiso   1.00
O231   O     0.05822   0.57035   0.24501   0.00000  Uiso   1.00
O232   O     0.27512   0.42965   0.25498   0.00000  Uiso   1.00
C233   C     0.01459   0.59801   0.24995   0.00000  Uiso   1.00
C234   C     0.31846   0.40190   0.24867   0.00000  Uiso   1.00
O235   O     0.30328   0.50730   0.32247   0.00000  Uiso   1.00
O236   O     0.03005   0.49270   0.17753   0.00000  Uiso   1.00
O237   O     0.06431   0.49801   0.31439   0.00000  Uiso   1.00
O238   O     0.26902   0.50199   0.18561   0.00000  Uiso   1.00
C239   C     0.02069   0.50342   0.34130   0.00000  Uiso   1.00
C240   C     0.31240   0.49526   0.15892   0.00000  Uiso   1.00
Zn241  Zn    0.27033   0.50621   0.25539   0.00000  Uiso   1.00
Zn242  Zn    0.06300   0.49379   0.24460   0.00000  Uiso   1.00
C243   C     0.02976   0.50555   0.39467   0.00000  Uiso   1.00
C244   C     0.30087   0.48358   0.10675   0.00000  Uiso   1.00
C245   C     0.00865   0.53746   0.47582   0.00000  Uiso   1.00
C246   C     0.30014   0.42269   0.03720   0.00000  Uiso   1.00
C247   C     0.32507   0.52776   0.42681   0.00000  Uiso   1.00
C248   C     0.32474   0.44167   0.08180   0.00000  Uiso   1.00
C249   C     0.08045   0.48799   0.41364   0.00000  Uiso   1.00
C250   C     0.25470   0.50650   0.08550   0.00000  Uiso   1.00
C251   C     0.09503   0.49296   0.46364   0.00000  Uiso   1.00
C252   C     0.22392   0.48225   0.04487   0.00000  Uiso   1.00
C253   C     0.06088   0.52231   0.49360   0.00000  Uiso   1.00
C254   C     0.24926   0.44112   0.01970   0.00000  Uiso   1.00
C255   C     0.14505   0.47312   0.48372   0.00000  Uiso   1.00
C256   C     0.16893   0.49622   0.02900   0.00000  Uiso   1.00
C257   C     0.13493   0.52956   0.05725   0.00000  Uiso   1.00
C258   C     0.16952   0.42925   0.46102   0.00000  Uiso   1.00
C259   C     0.07987   0.53783   0.04056   0.00000  Uiso   1.00
C260   C     0.22265   0.41568   0.47886   0.00000  Uiso   1.00
H261   H     0.05280   0.55930   0.06394   0.00000  Uiso   1.00
H262   H     0.24409   0.38393   0.46244   0.00000  Uiso   1.00
H263   H     0.24324   0.54221   0.10306   0.00000  Uiso   1.00
H264   H     0.11031   0.47336   0.38859   0.00000  Uiso   1.00
H265   H     0.31458   0.55768   0.49990   0.00000  Uiso   1.00
H266   H     0.31892   0.39076   0.01780   0.00000  Uiso   1.00
C267   C     0.02013   0.65261   0.25845   0.00000  Uiso   1.00
C268   C     0.31273   0.34720   0.23874   0.00000  Uiso   1.00
N269   N     0.14695   0.48550   0.23739   0.00000  Uiso   1.00
N270   N     0.18638   0.51450   0.26260   0.00000  Uiso   1.00
N271   N     0.03747   0.41530   0.10231   0.00000  Uiso   1.00
O272   O     0.08584   0.44078   0.11188   0.00000  Uiso   1.00
O273   O     0.03532   0.36451   0.10004   0.00000  Uiso   1.00
N274   N     0.27081   0.54314   0.41037   0.00000  Uiso   1.00
O275   O     0.25566   0.58968   0.42248   0.00000  Uiso   1.00
O276   O     0.23246   0.50761   0.39382   0.00000  Uiso   1.00
O277   O     0.15076   0.54744   0.10440   0.00000  Uiso   1.00
C278   C     0.15074   0.60276   0.10923   0.00000  Uiso   1.00
H279   H     0.13553   0.62222   0.07614   0.00000  Uiso   1.00
H280   H     0.19465   0.61867   0.11720   0.00000  Uiso   1.00
C281   C     0.11512   0.61821   0.15149   0.00000  Uiso   1.00
H282   H     0.13164   0.60125   0.18497   0.00000  Uiso   1.00
H283   H     0.11679   0.66136   0.15721   0.00000  Uiso   1.00
H284   H     0.07065   0.60332   0.14397   0.00000  Uiso   1.00
O285   O     0.13709   0.39898   0.42495   0.00000  Uiso   1.00
C286   C     0.16131   0.35370   0.40603   0.00000  Uiso   1.00
H287   H     0.12649   0.66098   0.38888   0.00000  Uiso   1.00
H288   H     0.17887   0.66291   0.43472   0.00000  Uiso   1.00
C289   C     0.20330   0.36716   0.36701   0.00000  Uiso   1.00
H290   H     0.21705   0.66404   0.34908   0.00000  Uiso   1.00
H291   H     0.18317   0.39079   0.33920   0.00000  Uiso   1.00
H292   H     0.24134   0.39024   0.38249   0.00000  Uiso   1.00
N293   N     0.05723   0.33954   0.29847   0.00000  Uiso   1.00
O294   O     0.03799   0.36600   0.33514   0.00000  Uiso   1.00
O295   O     0.10804   0.65755   0.30172   0.00000  Uiso   1.00
N296   N     0.27704   0.66056   0.19731   0.00000  Uiso   1.00
O297   O     0.29655   0.62986   0.16376   0.00000  Uiso   1.00
O298   O     0.22894   0.34697   0.18864   0.00000  Uiso   1.00
N299   N     0.16439   0.43893   0.21788   0.00000  Uiso   1.00
O300   O     0.15036   0.39609   0.23867   0.00000  Uiso   1.00
O301   O     0.17836   0.43618   0.17272   0.00000  Uiso   1.00
N302   N     0.16972   0.56141   0.28218   0.00000  Uiso   1.00
O303   O     0.18898   0.60419   0.26387   0.00000  Uiso   1.00
O304   O     0.15458   0.56378   0.32704   0.00000  Uiso   1.00
O305   O     0.63052   0.57964   0.25309   0.00000  Uiso   1.00
O306   O     0.36948   0.42036   0.24690   0.00000  Uiso   1.00
O307   O     0.39155   0.57035   0.24501   0.00000  Uiso   1.00
O308   O     0.60845   0.42965   0.25498   0.00000  Uiso   1.00
C309   C     0.34793   0.59801   0.24995   0.00000  Uiso   1.00
C310   C     0.65179   0.40190   0.24867   0.00000  Uiso   1.00
O311   O     0.63662   0.50730   0.32247   0.00000  Uiso   1.00
O312   O     0.36338   0.49270   0.17753   0.00000  Uiso   1.00
O313   O     0.39764   0.49801   0.31439   0.00000  Uiso   1.00
O314   O     0.60236   0.50199   0.18561   0.00000  Uiso   1.00
C315   C     0.35403   0.50342   0.34130   0.00000  Uiso   1.00
C316   C     0.64573   0.49526   0.15892   0.00000  Uiso   1.00
Zn317  Zn    0.60366   0.50621   0.25539   0.00000  Uiso   1.00
Zn318  Zn    0.39634   0.49379   0.24460   0.00000  Uiso   1.00
C319   C     0.36309   0.50555   0.39467   0.00000  Uiso   1.00
C320   C     0.63420   0.48358   0.10675   0.00000  Uiso   1.00
C321   C     0.34198   0.53746   0.47582   0.00000  Uiso   1.00
C322   C     0.63347   0.42269   0.03720   0.00000  Uiso   1.00
C323   C     0.65841   0.52776   0.42681   0.00000  Uiso   1.00
C324   C     0.65807   0.44167   0.08180   0.00000  Uiso   1.00
C325   C     0.41379   0.48799   0.41364   0.00000  Uiso   1.00
C326   C     0.58803   0.50650   0.08550   0.00000  Uiso   1.00
C327   C     0.42837   0.49296   0.46364   0.00000  Uiso   1.00
C328   C     0.55725   0.48225   0.04487   0.00000  Uiso   1.00
C329   C     0.39421   0.52231   0.49360   0.00000  Uiso   1.00
C330   C     0.58259   0.44112   0.01970   0.00000  Uiso   1.00
C331   C     0.47838   0.47312   0.48372   0.00000  Uiso   1.00
C332   C     0.50226   0.49622   0.02900   0.00000  Uiso   1.00
C333   C     0.46826   0.52956   0.05725   0.00000  Uiso   1.00
C334   C     0.50286   0.42925   0.46102   0.00000  Uiso   1.00
C335   C     0.41320   0.53783   0.04056   0.00000  Uiso   1.00
C336   C     0.55598   0.41568   0.47886   0.00000  Uiso   1.00
H337   H     0.38613   0.55930   0.06394   0.00000  Uiso   1.00
H338   H     0.57743   0.38393   0.46244   0.00000  Uiso   1.00
H339   H     0.57657   0.54221   0.10306   0.00000  Uiso   1.00
H340   H     0.44364   0.47336   0.38859   0.00000  Uiso   1.00
H341   H     0.64792   0.55768   0.49990   0.00000  Uiso   1.00
H342   H     0.65226   0.39076   0.01780   0.00000  Uiso   1.00
C343   C     0.35346   0.65261   0.25845   0.00000  Uiso   1.00
C344   C     0.64606   0.34720   0.23874   0.00000  Uiso   1.00
N345   N     0.48029   0.48550   0.23739   0.00000  Uiso   1.00
N346   N     0.51971   0.51450   0.26260   0.00000  Uiso   1.00
N347   N     0.37081   0.41530   0.10231   0.00000  Uiso   1.00
O348   O     0.41917   0.44078   0.11188   0.00000  Uiso   1.00
O349   O     0.36865   0.36451   0.10004   0.00000  Uiso   1.00
N350   N     0.60415   0.54314   0.41037   0.00000  Uiso   1.00
O351   O     0.58899   0.58968   0.42248   0.00000  Uiso   1.00
O352   O     0.56580   0.50761   0.39382   0.00000  Uiso   1.00
O353   O     0.48409   0.54744   0.10440   0.00000  Uiso   1.00
C354   C     0.48407   0.60276   0.10923   0.00000  Uiso   1.00
H355   H     0.46886   0.62222   0.07614   0.00000  Uiso   1.00
H356   H     0.52798   0.61867   0.11720   0.00000  Uiso   1.00
C357   C     0.44845   0.61821   0.15149   0.00000  Uiso   1.00
H358   H     0.46497   0.60125   0.18497   0.00000  Uiso   1.00
H359   H     0.45013   0.66136   0.15721   0.00000  Uiso   1.00
H360   H     0.40398   0.60332   0.14397   0.00000  Uiso   1.00
O361   O     0.47042   0.39898   0.42495   0.00000  Uiso   1.00
C362   C     0.49464   0.35370   0.40603   0.00000  Uiso   1.00
H363   H     0.45983   0.66098   0.38888   0.00000  Uiso   1.00
H364   H     0.51221   0.66291   0.43472   0.00000  Uiso   1.00
C365   C     0.53663   0.36716   0.36701   0.00000  Uiso   1.00
H366   H     0.55039   0.66404   0.34908   0.00000  Uiso   1.00
H367   H     0.51650   0.39079   0.33920   0.00000  Uiso   1.00
H368   H     0.57467   0.39024   0.38249   0.00000  Uiso   1.00
N369   N     0.39056   0.33954   0.29847   0.00000  Uiso   1.00
O370   O     0.37133   0.36600   0.33514   0.00000  Uiso   1.00
O371   O     0.44138   0.65755   0.30172   0.00000  Uiso   1.00
N372   N     0.61037   0.66056   0.19731   0.00000  Uiso   1.00
O373   O     0.62988   0.62986   0.16376   0.00000  Uiso   1.00
O374   O     0.56227   0.34697   0.18864   0.00000  Uiso   1.00
N375   N     0.49772   0.43893   0.21788   0.00000  Uiso   1.00
O376   O     0.48369   0.39609   0.23867   0.00000  Uiso   1.00
O377   O     0.51170   0.43618   0.17272   0.00000  Uiso   1.00
N378   N     0.50305   0.56141   0.28218   0.00000  Uiso   1.00
O379   O     0.52232   0.60419   0.26387   0.00000  Uiso   1.00
O380   O     0.48792   0.56378   0.32704   0.00000  Uiso   1.00
O381   O     0.96386   0.57964   0.25309   0.00000  Uiso   1.00
O382   O     0.70281   0.42036   0.24690   0.00000  Uiso   1.00
O383   O     0.72488   0.57035   0.24501   0.00000  Uiso   1.00
O384   O     0.94178   0.42965   0.25498   0.00000  Uiso   1.00
C385   C     0.68126   0.59801   0.24995   0.00000  Uiso   1.00
C386   C     0.98513   0.40190   0.24867   0.00000  Uiso   1.00
O387   O     0.96995   0.50730   0.32247   0.00000  Uiso   1.00
O388   O     0.69672   0.49270   0.17753   0.00000  Uiso   1.00
O389   O     0.73098   0.49801   0.31439   0.00000  Uiso   1.00
O390   O     0.93569   0.50199   0.18561   0.00000  Uiso   1.00
C391   C     0.68736   0.50342   0.34130   0.00000  Uiso   1.00
C392   C     0.97907   0.49526   0.15892   0.00000  Uiso   1.00
Zn393  Zn    0.93700   0.50621   0.25539   0.00000  Uiso   1.00
Zn394  Zn    0.72967   0.49379   0.24460   0.00000  Uiso   1.00
C395   C     0.69643   0.50555   0.39467   0.00000  Uiso   1.00
C396   C     0.96753   0.48358   0.10675   0.00000  Uiso   1.00
C397   C     0.67532   0.53746   0.47582   0.00000  Uiso   1.00
C398   C     0.96680   0.42269   0.03720   0.00000  Uiso   1.00
C399   C     0.99174   0.52776   0.42681   0.00000  Uiso   1.00
C400   C     0.99141   0.44167   0.08180   0.00000  Uiso   1.00
C401   C     0.74712   0.48799   0.41364   0.00000  Uiso   1.00
C402   C     0.92136   0.50650   0.08550   0.00000  Uiso   1.00
C403   C     0.76170   0.49296   0.46364   0.00000  Uiso   1.00
C404   C     0.89058   0.48225   0.04487   0.00000  Uiso   1.00
C405   C     0.72755   0.52231   0.49360   0.00000  Uiso   1.00
C406   C     0.91593   0.44112   0.01970   0.00000  Uiso   1.00
C407   C     0.81172   0.47312   0.48372   0.00000  Uiso   1.00
C408   C     0.83560   0.49622   0.02900   0.00000  Uiso   1.00
C409   C     0.80159   0.52956   0.05725   0.00000  Uiso   1.00
C410   C     0.83619   0.42925   0.46102   0.00000  Uiso   1.00
C411   C     0.74654   0.53783   0.04056   0.00000  Uiso   1.00
C412   C     0.88932   0.41568   0.47886   0.00000  Uiso   1.00
H413   H     0.71947   0.55930   0.06394   0.00000  Uiso   1.00
H414   H     0.91076   0.38393   0.46244   0.00000  Uiso   1.00
H415   H     0.90990   0.54221   0.10306   0.00000  Uiso   1.00
H416   H     0.77697   0.47336   0.38859   0.00000  Uiso   1.00
H417   H     0.98125   0.55768   0.49990   0.00000  Uiso   1.00
H418   H     0.98559   0.39076   0.01780   0.00000  Uiso   1.00
C419   C     0.68680   0.65261   0.25845   0.00000  Uiso   1.00
C420   C     0.97939   0.34720   0.23874   0.00000  Uiso   1.00
N421   N     0.81362   0.48550   0.23739   0.00000  Uiso   1.00
N422   N     0.85305   0.51450   0.26260   0.00000  Uiso   1.00
N423   N     0.70414   0.41530   0.10231   0.00000  Uiso   1.00
O424   O     0.75251   0.44078   0.11188   0.00000  Uiso   1.00
O425   O     0.70198   0.36451   0.10004   0.00000  Uiso   1.00
N426   N     0.93748   0.54314   0.41037   0.00000  Uiso   1.00
O427   O     0.92232   0.58968   0.42248   0.00000  Uiso   1.00
O428   O     0.89913   0.50761   0.39382   0.00000  Uiso   1.00
O429   O     0.81743   0.54744   0.10440   0.00000  Uiso   1.00
C430   C     0.81740   0.60276   0.10923   0.00000  Uiso   1.00
H431   H     0.80220   0.62222   0.07614   0.00000  Uiso   1.00
H432   H     0.86132   0.61867   0.11720   0.00000  Uiso   1.00
C433   C     0.78178   0.61821   0.15149   0.00000  Uiso   1.00
H434   H     0.79831   0.60125   0.18497   0.00000  Uiso   1.00
H435   H     0.78346   0.66136   0.15721   0.00000  Uiso   1.00
H436   H     0.73731   0.60332   0.14397   0.00000  Uiso   1.00
O437   O     0.80376   0.39898   0.42495   0.00000  Uiso   1.00
C438   C     0.82798   0.35370   0.40603   0.00000  Uiso   1.00
H439   H     0.79316   0.66098   0.38888   0.00000  Uiso   1.00
H440   H     0.84554   0.66291   0.43472   0.00000  Uiso   1.00
C441   C     0.86997   0.36716   0.36701   0.00000  Uiso   1.00
H442   H     0.88372   0.66404   0.34908   0.00000  Uiso   1.00
H443   H     0.84984   0.39079   0.33920   0.00000  Uiso   1.00
H444   H     0.90800   0.39024   0.38249   0.00000  Uiso   1.00
N445   N     0.72390   0.33954   0.29847   0.00000  Uiso   1.00
O446   O     0.70466   0.36600   0.33514   0.00000  Uiso   1.00
O447   O     0.77471   0.65755   0.30172   0.00000  Uiso   1.00
N448   N     0.94371   0.66056   0.19731   0.00000  Uiso   1.00
O449   O     0.96322   0.62986   0.16376   0.00000  Uiso   1.00
O450   O     0.89561   0.34697   0.18864   0.00000  Uiso   1.00
N451   N     0.83106   0.43893   0.21788   0.00000  Uiso   1.00
O452   O     0.81702   0.39609   0.23867   0.00000  Uiso   1.00
O453   O     0.84503   0.43618   0.17272   0.00000  Uiso   1.00
N454   N     0.83638   0.56141   0.28218   0.00000  Uiso   1.00
O455   O     0.85565   0.60419   0.26387   0.00000  Uiso   1.00
O456   O     0.82125   0.56378   0.32704   0.00000  Uiso   1.00
O457   O     0.29719   0.91298   0.25309   0.00000  Uiso   1.00
O458   O     0.03614   0.75369   0.24690   0.00000  Uiso   1.00
O459   O     0.05822   0.90368   0.24501   0.00000  Uiso   1.00
O460   O     0.27512   0.76298   0.25498   0.00000  Uiso   1.00
C461   C     0.01459   0.93135   0.24995   0.00000  Uiso   1.00
C462   C     0.31846   0.73524   0.24867   0.00000  Uiso   1.00
O463   O     0.30328   0.84063   0.32247   0.00000  Uiso   1.00
O464   O     0.03005   0.82603   0.17753   0.00000  Uiso   1.00
O465   O     0.06431   0.83134   0.31439   0.00000  Uiso   1.00
O466   O     0.26902   0.83533   0.18561   0.00000  Uiso   1.00
C467   C     0.02069   0.83675   0.34130   0.00000  Uiso   1.00
C468   C     0.31240   0.82859   0.15892   0.00000  Uiso   1.00
Zn469  Zn    0.27033   0.83954   0.25539   0.00000  Uiso   1.00
Zn470  Zn    0.06300   0.82713   0.24460   0.00000  Uiso   1.00
C471   C     0.02976   0.83888   0.39467   0.00000  Uiso   1.00
C472   C     0.30087   0.81691   0.10675   0.00000  Uiso   1.00
C473   C     0.00865   0.87079   0.47582   0.00000  Uiso   1.00
C474   C     0.30014   0.75603   0.03720   0.00000  Uiso   1.00
C475   C     0.32507   0.86110   0.42681   0.00000  Uiso   1.00
C476   C     0.32474   0.77501   0.08180   0.00000  Uiso   1.00
C477   C     0.08045   0.82132   0.41364   0.00000  Uiso   1.00
C478   C     0.25470   0.83983   0.08550   0.00000  Uiso   1.00
C479   C     0.09503   0.82630   0.46364   0.00000  Uiso   1.00
C480   C     0.22392   0.81559   0.04487   0.00000  Uiso   1.00
C481   C     0.06088   0.85564   0.49360   0.00000  Uiso   1.00
C482   C     0.24926   0.77445   0.01970   0.00000  Uiso   1.00
C483   C     0.14505   0.80646   0.48372   0.00000  Uiso   1.00
C484   C     0.16893   0.82955   0.02900   0.00000  Uiso   1.00
C485   C     0.13493   0.86289   0.05725   0.00000  Uiso   1.00
C486   C     0.16952   0.76259   0.46102   0.00000  Uiso   1.00
C487   C     0.07987   0.87117   0.04056   0.00000  Uiso   1.00
C488   C     0.22265   0.74901   0.47886   0.00000  Uiso   1.00
H489   H     0.05280   0.89264   0.06394   0.00000  Uiso   1.00
H490   H     0.24409   0.71726   0.46244   0.00000  Uiso   1.00
H491   H     0.24324   0.87554   0.10306   0.00000  Uiso   1.00
H492   H     0.11031   0.80670   0.38859   0.00000  Uiso   1.00
H493   H     0.31458   0.89101   0.49990   0.00000  Uiso   1.00
H494   H     0.31892   0.72409   0.01780   0.00000  Uiso   1.00
C495   C     0.02013   0.98594   0.25845   0.00000  Uiso   1.00
C496   C     0.31273   0.68053   0.23874   0.00000  Uiso   1.00
N497   N     0.14695   0.81883   0.23739   0.00000  Uiso   1.00
N498   N     0.18638   0.84784   0.26260   0.00000  Uiso   1.00
N499   N     0.03747   0.74864   0.10231   0.00000  Uiso   1.00
O500   O     0.08584   0.77411   0.11188   0.00000  Uiso   1.00
O501   O     0.03532   0.69784   0.10004   0.00000  Uiso   1.00
N502   N     0.27081   0.87647   0.41037   0.00000  Uiso   1.00
O503   O     0.25566   0.92301   0.42248   0.00000  Uiso   1.00
O504   O     0.23246   0.84095   0.39382   0.00000  Uiso   1.00
O505   O     0.15076   0.88077   0.10440   0.00000  Uiso   1.00
C506   C     0.15074   0.93609   0.10923   0.00000  Uiso   1.00
H507   H     0.13553   0.95556   0.07614   0.00000  Uiso   1.00
H508   H     0.19465   0.95200   0.11720   0.00000  Uiso   1.00
C509   C     0.11512   0.95154   0.15149   0.00000  Uiso   1.00
H510   H     0.13164   0.93458   0.18497   0.00000  Uiso   1.00
H511   H     0.11679   0.99469   0.15721   0.00000  Uiso   1.00
H512   H     0.07065   0.93666   0.14397   0.00000  Uiso   1.00
O513   O     0.13709   0.73232   0.42495   0.00000  Uiso   1.00
C514   C     0.16131   0.68703   0.40603   0.00000  Uiso   1.00
H515   H     0.12649   0.99431   0.38888   0.00000  Uiso   1.00
H516   H     0.17887   0.99624   0.43472   0.00000  Uiso   1.00
C517   C     0.20330   0.70050   0.36701   0.00000  Uiso   1.00
H518   H     0.21705   0.99737   0.34908   0.00000  Uiso   1.00
H519   H     0.18317   0.72412   0.33920   0.00000  Uiso   1.00
H520   H     0.24134   0.72357   0.38249   0.00000  Uiso   1.00
N521   N     0.05723   0.67287   0.29847   0.00000  Uiso   1.00
O522   O     0.03799   0.69934   0.33514   0.00000  Uiso   1.00
O523   O     0.10804   0.99088   0.30172   0.00000  Uiso   1.00
N524   N     0.27704   0.99389   0.19731   0.00000  Uiso   1.00
O525   O     0.29655   0.96319   0.16376   0.00000  Uiso   1.00
O526   O     0.22894   0.68030   0.18864   0.00000  Uiso   1.00
N527   N     0.16439   0.77226   0.21788   0.00000  Uiso   1.00
O528   O     0.15036   0.72943   0.23867   0.00000  Uiso   1.00
O529   O     0.17836   0.76951   0.17272   0.00000  Uiso   1.00
N530   N     0.16972   0.89475   0.28218   0.00000  Uiso   1.00
O531   O     0.18898   0.93753   0.26387   0.00000  Uiso   1.00
O532   O     0.15458   0.89711   0.32704   0.00000  Uiso   1.00
O533   O     0.63052   0.91298   0.25309   0.00000  Uiso   1.00
O534   O     0.36948   0.75369   0.24690   0.00000  Uiso   1.00
O535   O     0.39155   0.90368   0.24501   0.00000  Uiso   1.00
O536   O     0.60845   0.76298   0.25498   0.00000  Uiso   1.00
C537   C     0.34793   0.93135   0.24995   0.00000  Uiso   1.00
C538   C     0.65179   0.73524   0.24867   0.00000  Uiso   1.00
O539   O     0.63662   0.84063   0.32247   0.00000  Uiso   1.00
O540   O     0.36338   0.82603   0.17753   0.00000  Uiso   1.00
O541   O     0.39764   0.83134   0.31439   0.00000  Uiso   1.00
O542   O     0.60236   0.83533   0.18561   0.00000  Uiso   1.00
C543   C     0.35403   0.83675   0.34130   0.00000  Uiso   1.00
C544   C     0.64573   0.82859   0.15892   0.00000  Uiso   1.00
Zn545  Zn    0.60366   0.83954   0.25539   0.00000  Uiso   1.00
Zn546  Zn    0.39634   0.82713   0.24460   0.00000  Uiso   1.00
C547   C     0.36309   0.83888   0.39467   0.00000  Uiso   1.00
C548   C     0.63420   0.81691   0.10675   0.00000  Uiso   1.00
C549   C     0.34198   0.87079   0.47582   0.00000  Uiso   1.00
C550   C     0.63347   0.75603   0.03720   0.00000  Uiso   1.00
C551   C     0.65841   0.86110   0.42681   0.00000  Uiso   1.00
C552   C     0.65807   0.77501   0.08180   0.00000  Uiso   1.00
C553   C     0.41379   0.82132   0.41364   0.00000  Uiso   1.00
C554   C     0.58803   0.83983   0.08550   0.00000  Uiso   1.00
C555   C     0.42837   0.82630   0.46364   0.00000  Uiso   1.00
C556   C     0.55725   0.81559   0.04487   0.00000  Uiso   1.00
C557   C     0.39421   0.85564   0.49360   0.00000  Uiso   1.00
C558   C     0.58259   0.77445   0.01970   0.00000  Uiso   1.00
C559   C     0.47838   0.80646   0.48372   0.00000  Uiso   1.00
C560   C     0.50226   0.82955   0.02900   0.00000  Uiso   1.00
C561   C     0.46826   0.86289   0.05725   0.00000  Uiso   1.00
C562   C     0.50286   0.76259   0.46102   0.00000  Uiso   1.00
C563   C     0.41320   0.87117   0.04056   0.00000  Uiso   1.00
C564   C     0.55598   0.74901   0.47886   0.00000  Uiso   1.00
H565   H     0.38613   0.89264   0.06394   0.00000  Uiso   1.00
H566   H     0.57743   0.71726   0.46244   0.00000  Uiso   1.00
H567   H     0.57657   0.87554   0.10306   0.00000  Uiso   1.00
H568   H     0.44364   0.80670   0.38859   0.00000  Uiso   1.00
H569   H     0.64792   0.89101   0.49990   0.00000  Uiso   1.00
H570   H     0.65226   0.72409   0.01780   0.00000  Uiso   1.00
C571   C     0.35346   0.98594   0.25845   0.00000  Uiso   1.00
C572   C     0.64606   0.68053   0.23874   0.00000  Uiso   1.00
N573   N     0.48029   0.81883   0.23739   0.00000  Uiso   1.00
N574   N     0.51971   0.84784   0.26260   0.00000  Uiso   1.00
N575   N     0.37081   0.74864   0.10231   0.00000  Uiso   1.00
O576   O     0.41917   0.77411   0.11188   0.00000  Uiso   1.00
O577   O     0.36865   0.69784   0.10004   0.00000  Uiso   1.00
N578   N     0.60415   0.87647   0.41037   0.00000  Uiso   1.00
O579   O     0.58899   0.92301   0.42248   0.00000  Uiso   1.00
O580   O     0.56580   0.84095   0.39382   0.00000  Uiso   1.00
O581   O     0.48409   0.88077   0.10440   0.00000  Uiso   1.00
C582   C     0.48407   0.93609   0.10923   0.00000  Uiso   1.00
H583   H     0.46886   0.95556   0.07614   0.00000  Uiso   1.00
H584   H     0.52798   0.95200   0.11720   0.00000  Uiso   1.00
C585   C     0.44845   0.95154   0.15149   0.00000  Uiso   1.00
H586   H     0.46497   0.93458   0.18497   0.00000  Uiso   1.00
H587   H     0.45013   0.99469   0.15721   0.00000  Uiso   1.00
H588   H     0.40398   0.93666   0.14397   0.00000  Uiso   1.00
O589   O     0.47042   0.73232   0.42495   0.00000  Uiso   1.00
C590   C     0.49464   0.68703   0.40603   0.00000  Uiso   1.00
H591   H     0.45983   0.99431   0.38888   0.00000  Uiso   1.00
H592   H     0.51221   0.99624   0.43472   0.00000  Uiso   1.00
C593   C     0.53663   0.70050   0.36701   0.00000  Uiso   1.00
H594   H     0.55039   0.99737   0.34908   0.00000  Uiso   1.00
H595   H     0.51650   0.72412   0.33920   0.00000  Uiso   1.00
H596   H     0.57467   0.72357   0.38249   0.00000  Uiso   1.00
N597   N     0.39056   0.67287   0.29847   0.00000  Uiso   1.00
O598   O     0.37133   0.69934   0.33514   0.00000  Uiso   1.00
O599   O     0.44138   0.99088   0.30172   0.00000  Uiso   1.00
N600   N     0.61037   0.99389   0.19731   0.00000  Uiso   1.00
O601   O     0.62988   0.96319   0.16376   0.00000  Uiso   1.00
O602   O     0.56227   0.68030   0.18864   0.00000  Uiso   1.00
N603   N     0.49772   0.77226   0.21788   0.00000  Uiso   1.00
O604   O     0.48369   0.72943   0.23867   0.00000  Uiso   1.00
O605   O     0.51170   0.76951   0.17272   0.00000  Uiso   1.00
N606   N     0.50305   0.89475   0.28218   0.00000  Uiso   1.00
O607   O     0.52232   0.93753   0.26387   0.00000  Uiso   1.00
O608   O     0.48792   0.89711   0.32704   0.00000  Uiso   1.00
O609   O     0.96386   0.91298   0.25309   0.00000  Uiso   1.00
O610   O     0.70281   0.75369   0.24690   0.00000  Uiso   1.00
O611   O     0.72488   0.90368   0.24501   0.00000  Uiso   1.00
O612   O     0.94178   0.76298   0.25498   0.00000  Uiso   1.00
C613   C     0.68126   0.93135   0.24995   0.00000  Uiso   1.00
C614   C     0.98513   0.73524   0.24867   0.00000  Uiso   1.00
O615   O     0.96995   0.84063   0.32247   0.00000  Uiso   1.00
O616   O     0.69672   0.82603   0.17753   0.00000  Uiso   1.00
O617   O     0.73098   0.83134   0.31439   0.00000  Uiso   1.00
O618   O     0.93569   0.83533   0.18561   0.00000  Uiso   1.00
C619   C     0.68736   0.83675   0.34130   0.00000  Uiso   1.00
C620   C     0.97907   0.82859   0.15892   0.00000  Uiso   1.00
Zn621  Zn    0.93700   0.83954   0.25539   0.00000  Uiso   1.00
Zn622  Zn    0.72967   0.82713   0.24460   0.00000  Uiso   1.00
C623   C     0.69643   0.83888   0.39467   0.00000  Uiso   1.00
C624   C     0.96753   0.81691   0.10675   0.00000  Uiso   1.00
C625   C     0.67532   0.87079   0.47582   0.00000  Uiso   1.00
C626   C     0.96680   0.75603   0.03720   0.00000  Uiso   1.00
C627   C     0.99174   0.86110   0.42681   0.00000  Uiso   1.00
C628   C     0.99141   0.77501   0.08180   0.00000  Uiso   1.00
C629   C     0.74712   0.82132   0.41364   0.00000  Uiso   1.00
C630   C     0.92136   0.83983   0.08550   0.00000  Uiso   1.00
C631   C     0.76170   0.82630   0.46364   0.00000  Uiso   1.00
C632   C     0.89058   0.81559   0.04487   0.00000  Uiso   1.00
C633   C     0.72755   0.85564   0.49360   0.00000  Uiso   1.00
C634   C     0.91593   0.77445   0.01970   0.00000  Uiso   1.00
C635   C     0.81172   0.80646   0.48372   0.00000  Uiso   1.00
C636   C     0.83560   0.82955   0.02900   0.00000  Uiso   1.00
C637   C     0.80159   0.86289   0.05725   0.00000  Uiso   1.00
C638   C     0.83619   0.76259   0.46102   0.00000  Uiso   1.00
C639   C     0.74654   0.87117   0.04056   0.00000  Uiso   1.00
C640   C     0.88932   0.74901   0.47886   0.00000  Uiso   1.00
H641   H     0.71947   0.89264   0.06394   0.00000  Uiso   1.00
H642   H     0.91076   0.71726   0.46244   0.00000  Uiso   1.00
H643   H     0.90990   0.87554   0.10306   0.00000  Uiso   1.00
H644   H     0.77697   0.80670   0.38859   0.00000  Uiso   1.00
H645   H     0.98125   0.89101   0.49990   0.00000  Uiso   1.00
H646   H     0.98559   0.72409   0.01780   0.00000  Uiso   1.00
C647   C     0.68680   0.98594   0.25845   0.00000  Uiso   1.00
C648   C     0.97939   0.68053   0.23874   0.00000  Uiso   1.00
N649   N     0.81362   0.81883   0.23739   0.00000  Uiso   1.00
N650   N     0.85305   0.84784   0.26260   0.00000  Uiso   1.00
N651   N     0.70414   0.74864   0.10231   0.00000  Uiso   1.00
O652   O     0.75251   0.77411   0.11188   0.00000  Uiso   1.00
O653   O     0.70198   0.69784   0.10004   0.00000  Uiso   1.00
N654   N     0.93748   0.87647   0.41037   0.00000  Uiso   1.00
O655   O     0.92232   0.92301   0.42248   0.00000  Uiso   1.00
O656   O     0.89913   0.84095   0.39382   0.00000  Uiso   1.00
O657   O     0.81743   0.88077   0.10440   0.00000  Uiso   1.00
C658   C     0.81740   0.93609   0.10923   0.00000  Uiso   1.00
H659   H     0.80220   0.95556   0.07614   0.00000  Uiso   1.00
H660   H     0.86132   0.95200   0.11720   0.00000  Uiso   1.00
C661   C     0.78178   0.95154   0.15149   0.00000  Uiso   1.00
H662   H     0.79831   0.93458   0.18497   0.00000  Uiso   1.00
H663   H     0.78346   0.99469   0.15721   0.00000  Uiso   1.00
H664   H     0.73731   0.93666   0.14397   0.00000  Uiso   1.00
O665   O     0.80376   0.73232   0.42495   0.00000  Uiso   1.00
C666   C     0.82798   0.68703   0.40603   0.00000  Uiso   1.00
H667   H     0.79316   0.99431   0.38888   0.00000  Uiso   1.00
H668   H     0.84554   0.99624   0.43472   0.00000  Uiso   1.00
C669   C     0.86997   0.70050   0.36701   0.00000  Uiso   1.00
H670   H     0.88372   0.99737   0.34908   0.00000  Uiso   1.00
H671   H     0.84984   0.72412   0.33920   0.00000  Uiso   1.00
H672   H     0.90800   0.72357   0.38249   0.00000  Uiso   1.00
N673   N     0.72390   0.67287   0.29847   0.00000  Uiso   1.00
O674   O     0.70466   0.69934   0.33514   0.00000  Uiso   1.00
O675   O     0.77471   0.99088   0.30172   0.00000  Uiso   1.00
N676   N     0.94371   0.99389   0.19731   0.00000  Uiso   1.00
O677   O     0.96322   0.96319   0.16376   0.00000  Uiso   1.00
O678   O     0.89561   0.68030   0.18864   0.00000  Uiso   1.00
N679   N     0.83106   0.77226   0.21788   0.00000  Uiso   1.00
O680   O     0.81702   0.72943   0.23867   0.00000  Uiso   1.00
O681   O     0.84503   0.76951   0.17272   0.00000  Uiso   1.00
N682   N     0.83638   0.89475   0.28218   0.00000  Uiso   1.00
O683   O     0.85565   0.93753   0.26387   0.00000  Uiso   1.00
O684   O     0.82125   0.89711   0.32704   0.00000  Uiso   1.00
O685   O     0.29719   0.24631   0.75309   0.00000  Uiso   1.00
O686   O     0.03614   0.08702   0.74690   0.00000  Uiso   1.00
O687   O     0.05822   0.23702   0.74501   0.00000  Uiso   1.00
O688   O     0.27512   0.09632   0.75498   0.00000  Uiso   1.00
C689   C     0.01459   0.26468   0.74995   0.00000  Uiso   1.00
C690   C     0.31846   0.06857   0.74867   0.00000  Uiso   1.00
O691   O     0.30328   0.17397   0.82247   0.00000  Uiso   1.00
O692   O     0.03005   0.15937   0.67753   0.00000  Uiso   1.00
O693   O     0.06431   0.16467   0.81439   0.00000  Uiso   1.00
O694   O     0.26902   0.16866   0.68561   0.00000  Uiso   1.00
C695   C     0.02069   0.17009   0.84130   0.00000  Uiso   1.00
C696   C     0.31240   0.16193   0.65892   0.00000  Uiso   1.00
Zn697  Zn    0.27033   0.17287   0.75539   0.00000  Uiso   1.00
Zn698  Zn    0.06300   0.16046   0.74460   0.00000  Uiso   1.00
C699   C     0.02976   0.17221   0.89467   0.00000  Uiso   1.00
C700   C     0.30087   0.15024   0.60675   0.00000  Uiso   1.00
C701   C     0.00865   0.20412   0.97582   0.00000  Uiso   1.00
C702   C     0.30014   0.08936   0.53720   0.00000  Uiso   1.00
C703   C     0.32507   0.19443   0.92681   0.00000  Uiso   1.00
C704   C     0.32474   0.10834   0.58180   0.00000  Uiso   1.00
C705   C     0.08045   0.15465   0.91364   0.00000  Uiso   1.00
C706   C     0.25470   0.17317   0.58550   0.00000  Uiso   1.00
C707   C     0.09503   0.15963   0.96364   0.00000  Uiso   1.00
C708   C     0.22392   0.14892   0.54487   0.00000  Uiso   1.00
C709   C     0.06088   0.18898   0.99360   0.00000  Uiso   1.00
C710   C     0.24926   0.10778   0.51970   0.00000  Uiso   1.00
C711   C     0.14505   0.13979   0.98372   0.00000  Uiso   1.00
C712   C     0.16893   0.16289   0.52900   0.00000  Uiso   1.00
C713   C     0.13493   0.19622   0.55725   0.00000  Uiso   1.00
C714   C     0.16952   0.09592   0.96102   0.00000  Uiso   1.00
C715   C     0.07987   0.20450   0.54056   0.00000  Uiso   1.00
C716   C     0.22265   0.08235   0.97886   0.00000  Uiso   1.00
H717   H     0.05280   0.22597   0.56394   0.00000  Uiso   1.00
H718   H     0.24409   0.05059   0.96244   0.00000  Uiso   1.00
H719   H     0.24324   0.20888   0.60306   0.00000  Uiso   1.00
H720   H     0.11031   0.14003   0.88859   0.00000  Uiso   1.00
H721   H     0.31458   0.22435   0.99990   0.00000  Uiso   1.00
H722   H     0.31892   0.05743   0.51780   0.00000  Uiso   1.00
C723   C     0.02013   0.31927   0.75845   0.00000  Uiso   1.00
C724   C     0.31273   0.01387   0.73874   0.00000  Uiso   1.00
N725   N     0.14695   0.15216   0.73739   0.00000  Uiso   1.00
N726   N     0.18638   0.18117   0.76260   0.00000  Uiso   1.00
N727   N     0.03747   0.08197   0.60231   0.00000  Uiso   1.00
O728   O     0.08584   0.10745   0.61188   0.00000  Uiso   1.00
O729   O     0.03532   0.03117   0.60004   0.00000  Uiso   1.00
N730   N     0.27081   0.20981   0.91037   0.00000  Uiso   1.00
O731   O     0.25566   0.25635   0.92248   0.00000  Uiso   1.00
O732   O     0.23246   0.17428   0.89382   0.00000  Uiso   1.00
O733   O     0.15076   0.21410   0.60440   0.00000  Uiso   1.00
C734   C     0.15074   0.26942   0.60923   0.00000  Uiso   1.00
H735   H     0.13553   0.28889   0.57614   0.00000  Uiso   1.00
H736   H     0.19465   0.28533   0.61720   0.00000  Uiso   1.00
C737   C     0.11512   0.28488   0.65149   0.00000  Uiso   1.00
H738   H     0.13164   0.26792   0.68497   0.00000  Uiso   1.00
H739   H     0.11679   0.32802   0.65721   0.00000  Uiso   1.00
H740   H     0.07065   0.26999   0.64397   0.00000  Uiso   1.00
O741   O     0.13709   0.06565   0.92495   0.00000  Uiso   1.00
C742   C     0.16131   0.02036   0.90603   0.00000  Uiso   1.00
H743   H     0.12649   0.32764   0.88888   0.00000  Uiso   1.00
H744   H     0.17887   0.32958   0.93472   0.00000  Uiso   1.00
C745   C     0.20330   0.03383   0.86701   0.00000  Uiso   1.00
H746   H     0.21705   0.33071   0.84908   0.00000  Uiso   1.00
H747   H     0.18317   0.05745   0.83920   0.00000  Uiso   1.00
H748   H     0.24134   0.05691   0.88249   0.00000  Uiso   1.00
N749   N     0.05723   0.00621   0.79847   0.00000  Uiso   1.00
O750   O     0.03799   0.03267   0.83514   0.00000  Uiso   1.00
O751   O     0.10804   0.32422   0.80172   0.00000  Uiso   1.00
N752   N     0.27704   0.32723   0.69731   0.00000  Uiso   1.00
O753   O     0.29655   0.29652   0.66376   0.00000  Uiso   1.00
O754   O     0.22894   0.01364   0.68864   0.00000  Uiso   1.00
N755   N     0.16439   0.10560   0.71788   0.00000  Uiso   1.00
O756   O     0.15036   0.06276   0.73867   0.00000  Uiso   1.00
O757   O     0.17836   0.10284   0.67272   0.00000  Uiso   1.00
N758   N     0.16972   0.22808   0.78218   0.00000  Uiso   1.00
O759   O     0.18898   0.27086   0.76387   0.00000  Uiso   1.00
O760   O     0.15458   0.23044   0.82704   0.00000  Uiso   1.00
O761   O     0.63052   0.24631   0.75309   0.00000  Uiso   1.00
O762   O     0.36948   0.08702   0.74690   0.00000  Uiso   1.00
O763   O     0.39155   0.23702   0.74501   0.00000  Uiso   1.00
O764   O     0.60845   0.09632   0.75498   0.00000  Uiso   1.00
C765   C     0.34793   0.26468   0.74995   0.00000  Uiso   1.00
C766   C     0.65179   0.06857   0.74867   0.00000  Uiso   1.00
O767   O     0.63662   0.17397   0.82247   0.00000  Uiso   1.00
O768   O     0.36338   0.15937   0.67753   0.00000  Uiso   1.00
O769   O     0.39764   0.16467   0.81439   0.00000  Uiso   1.00
O770   O     0.60236   0.16866   0.68561   0.00000  Uiso   1.00
C771   C     0.35403   0.17009   0.84130   0.00000  Uiso   1.00
C772   C     0.64573   0.16193   0.65892   0.00000  Uiso   1.00
Zn773  Zn    0.60366   0.17287   0.75539   0.00000  Uiso   1.00
Zn774  Zn    0.39634   0.16046   0.74460   0.00000  Uiso   1.00
C775   C     0.36309   0.17221   0.89467   0.00000  Uiso   1.00
C776   C     0.63420   0.15024   0.60675   0.00000  Uiso   1.00
C777   C     0.34198   0.20412   0.97582   0.00000  Uiso   1.00
C778   C     0.63347   0.08936   0.53720   0.00000  Uiso   1.00
C779   C     0.65841   0.19443   0.92681   0.00000  Uiso   1.00
C780   C     0.65807   0.10834   0.58180   0.00000  Uiso   1.00
C781   C     0.41379   0.15465   0.91364   0.00000  Uiso   1.00
C782   C     0.58803   0.17317   0.58550   0.00000  Uiso   1.00
C783   C     0.42837   0.15963   0.96364   0.00000  Uiso   1.00
C784   C     0.55725   0.14892   0.54487   0.00000  Uiso   1.00
C785   C     0.39421   0.18898   0.99360   0.00000  Uiso   1.00
C786   C     0.58259   0.10778   0.51970   0.00000  Uiso   1.00
C787   C     0.47838   0.13979   0.98372   0.00000  Uiso   1.00
C788   C     0.50226   0.16289   0.52900   0.00000  Uiso   1.00
C789   C     0.46826   0.19622   0.55725   0.00000  Uiso   1.00
C790   C     0.50286   0.09592   0.96102   0.00000  Uiso   1.00
C791   C     0.41320   0.20450   0.54056   0.00000  Uiso   1.00
C792   C     0.55598   0.08235   0.97886   0.00000  Uiso   1.00
H793   H     0.38613   0.22597   0.56394   0.00000  Uiso   1.00
H794   H     0.57743   0.05059   0.96244   0.00000  Uiso   1.00
H795   H     0.57657   0.20888   0.60306   0.00000  Uiso   1.00
H796   H     0.44364   0.14003   0.88859   0.00000  Uiso   1.00
H797   H     0.64792   0.22435   0.99990   0.00000  Uiso   1.00
H798   H     0.65226   0.05743   0.51780   0.00000  Uiso   1.00
C799   C     0.35346   0.31927   0.75845   0.00000  Uiso   1.00
C800   C     0.64606   0.01387   0.73874   0.00000  Uiso   1.00
N801   N     0.48029   0.15216   0.73739   0.00000  Uiso   1.00
N802   N     0.51971   0.18117   0.76260   0.00000  Uiso   1.00
N803   N     0.37081   0.08197   0.60231   0.00000  Uiso   1.00
O804   O     0.41917   0.10745   0.61188   0.00000  Uiso   1.00
O805   O     0.36865   0.03117   0.60004   0.00000  Uiso   1.00
N806   N     0.60415   0.20981   0.91037   0.00000  Uiso   1.00
O807   O     0.58899   0.25635   0.92248   0.00000  Uiso   1.00
O808   O     0.56580   0.17428   0.89382   0.00000  Uiso   1.00
O809   O     0.48409   0.21410   0.60440   0.00000  Uiso   1.00
C810   C     0.48407   0.26942   0.60923   0.00000  Uiso   1.00
H811   H     0.46886   0.28889   0.57614   0.00000  Uiso   1.00
H812   H     0.52798   0.28533   0.61720   0.00000  Uiso   1.00
C813   C     0.44845   0.28488   0.65149   0.00000  Uiso   1.00
H814   H     0.46497   0.26792   0.68497   0.00000  Uiso   1.00
H815   H     0.45013   0.32802   0.65721   0.00000  Uiso   1.00
H816   H     0.40398   0.26999   0.64397   0.00000  Uiso   1.00
O817   O     0.47042   0.06565   0.92495   0.00000  Uiso   1.00
C818   C     0.49464   0.02036   0.90603   0.00000  Uiso   1.00
H819   H     0.45983   0.32764   0.88888   0.00000  Uiso   1.00
H820   H     0.51221   0.32958   0.93472   0.00000  Uiso   1.00
C821   C     0.53663   0.03383   0.86701   0.00000  Uiso   1.00
H822   H     0.55039   0.33071   0.84908   0.00000  Uiso   1.00
H823   H     0.51650   0.05745   0.83920   0.00000  Uiso   1.00
H824   H     0.57467   0.05691   0.88249   0.00000  Uiso   1.00
N825   N     0.39056   0.00621   0.79847   0.00000  Uiso   1.00
O826   O     0.37133   0.03267   0.83514   0.00000  Uiso   1.00
O827   O     0.44138   0.32422   0.80172   0.00000  Uiso   1.00
N828   N     0.61037   0.32723   0.69731   0.00000  Uiso   1.00
O829   O     0.62988   0.29652   0.66376   0.00000  Uiso   1.00
O830   O     0.56227   0.01364   0.68864   0.00000  Uiso   1.00
N831   N     0.49772   0.10560   0.71788   0.00000  Uiso   1.00
O832   O     0.48369   0.06276   0.73867   0.00000  Uiso   1.00
O833   O     0.51170   0.10284   0.67272   0.00000  Uiso   1.00
N834   N     0.50305   0.22808   0.78218   0.00000  Uiso   1.00
O835   O     0.52232   0.27086   0.76387   0.00000  Uiso   1.00
O836   O     0.48792   0.23044   0.82704   0.00000  Uiso   1.00
O837   O     0.96386   0.24631   0.75309   0.00000  Uiso   1.00
O838   O     0.70281   0.08702   0.74690   0.00000  Uiso   1.00
O839   O     0.72488   0.23702   0.74501   0.00000  Uiso   1.00
O840   O     0.94178   0.09632   0.75498   0.00000  Uiso   1.00
C841   C     0.68126   0.26468   0.74995   0.00000  Uiso   1.00
C842   C     0.98513   0.06857   0.74867   0.00000  Uiso   1.00
O843   O     0.96995   0.17397   0.82247   0.00000  Uiso   1.00
O844   O     0.69672   0.15937   0.67753   0.00000  Uiso   1.00
O845   O     0.73098   0.16467   0.81439   0.00000  Uiso   1.00
O846   O     0.93569   0.16866   0.68561   0.00000  Uiso   1.00
C847   C     0.68736   0.17009   0.84130   0.00000  Uiso   1.00
C848   C     0.97907   0.16193   0.65892   0.00000  Uiso   1.00
Zn849  Zn    0.93700   0.17287   0.75539   0.00000  Uiso   1.00
Zn850  Zn    0.72967   0.16046   0.74460   0.00000  Uiso   1.00
C851   C     0.69643   0.17221   0.89467   0.00000  Uiso   1.00
C852   C     0.96753   0.15024   0.60675   0.00000  Uiso   1.00
C853   C     0.67532   0.20412   0.97582   0.00000  Uiso   1.00
C854   C     0.96680   0.08936   0.53720   0.00000  Uiso   1.00
C855   C     0.99174   0.19443   0.92681   0.00000  Uiso   1.00
C856   C     0.99141   0.10834   0.58180   0.00000  Uiso   1.00
C857   C     0.74712   0.15465   0.91364   0.00000  Uiso   1.00
C858   C     0.92136   0.17317   0.58550   0.00000  Uiso   1.00
C859   C     0.76170   0.15963   0.96364   0.00000  Uiso   1.00
C860   C     0.89058   0.14892   0.54487   0.00000  Uiso   1.00
C861   C     0.72755   0.18898   0.99360   0.00000  Uiso   1.00
C862   C     0.91593   0.10778   0.51970   0.00000  Uiso   1.00
C863   C     0.81172   0.13979   0.98372   0.00000  Uiso   1.00
C864   C     0.83560   0.16289   0.52900   0.00000  Uiso   1.00
C865   C     0.80159   0.19622   0.55725   0.00000  Uiso   1.00
C866   C     0.83619   0.09592   0.96102   0.00000  Uiso   1.00
C867   C     0.74654   0.20450   0.54056   0.00000  Uiso   1.00
C868   C     0.88932   0.08235   0.97886   0.00000  Uiso   1.00
H869   H     0.71947   0.22597   0.56394   0.00000  Uiso   1.00
H870   H     0.91076   0.05059   0.96244   0.00000  Uiso   1.00
H871   H     0.90990   0.20888   0.60306   0.00000  Uiso   1.00
H872   H     0.77697   0.14003   0.88859   0.00000  Uiso   1.00
H873   H     0.98125   0.22435   0.99990   0.00000  Uiso   1.00
H874   H     0.98559   0.05743   0.51780   0.00000  Uiso   1.00
C875   C     0.68680   0.31927   0.75845   0.00000  Uiso   1.00
C876   C     0.97939   0.01387   0.73874   0.00000  Uiso   1.00
N877   N     0.81362   0.15216   0.73739   0.00000  Uiso   1.00
N878   N     0.85305   0.18117   0.76260   0.00000  Uiso   1.00
N879   N     0.70414   0.08197   0.60231   0.00000  Uiso   1.00
O880   O     0.75251   0.10745   0.61188   0.00000  Uiso   1.00
O881   O     0.70198   0.03117   0.60004   0.00000  Uiso   1.00
N882   N     0.93748   0.20981   0.91037   0.00000  Uiso   1.00
O883   O     0.92232   0.25635   0.92248   0.00000  Uiso   1.00
O884   O     0.89913   0.17428   0.89382   0.00000  Uiso   1.00
O885   O     0.81743   0.21410   0.60440   0.00000  Uiso   1.00
C886   C     0.81740   0.26942   0.60923   0.00000  Uiso   1.00
H887   H     0.80220   0.28889   0.57614   0.00000  Uiso   1.00
H888   H     0.86132   0.28533   0.61720   0.00000  Uiso   1.00
C889   C     0.78178   0.28488   0.65149   0.00000  Uiso   1.00
H890   H     0.79831   0.26792   0.68497   0.00000  Uiso   1.00
H891   H     0.78346   0.32802   0.65721   0.00000  Uiso   1.00
H892   H     0.73731   0.26999   0.64397   0.00000  Uiso   1.00
O893   O     0.80376   0.06565   0.92495   0.00000  Uiso   1.00
C894   C     0.82798   0.02036   0.90603   0.00000  Uiso   1.00
H895   H     0.79316   0.32764   0.88888   0.00000  Uiso   1.00
H896   H     0.84554   0.32958   0.93472   0.00000  Uiso   1.00
C897   C     0.86997   0.03383   0.86701   0.00000  Uiso   1.00
H898   H     0.88372   0.33071   0.84908   0.00000  Uiso   1.00
H899   H     0.84984   0.05745   0.83920   0.00000  Uiso   1.00
H900   H     0.90800   0.05691   0.88249   0.00000  Uiso   1.00
N901   N     0.72390   0.00621   0.79847   0.00000  Uiso   1.00
O902   O     0.70466   0.03267   0.83514   0.00000  Uiso   1.00
O903   O     0.77471   0.32422   0.80172   0.00000  Uiso   1.00
N904   N     0.94371   0.32723   0.69731   0.00000  Uiso   1.00
O905   O     0.96322   0.29652   0.66376   0.00000  Uiso   1.00
O906   O     0.89561   0.01364   0.68864   0.00000  Uiso   1.00
N907   N     0.83106   0.10560   0.71788   0.00000  Uiso   1.00
O908   O     0.81702   0.06276   0.73867   0.00000  Uiso   1.00
O909   O     0.84503   0.10284   0.67272   0.00000  Uiso   1.00
N910   N     0.83638   0.22808   0.78218   0.00000  Uiso   1.00
O911   O     0.85565   0.27086   0.76387   0.00000  Uiso   1.00
O912   O     0.82125   0.23044   0.82704   0.00000  Uiso   1.00
O913   O     0.29719   0.57964   0.75309   0.00000  Uiso   1.00
O914   O     0.03614   0.42036   0.74690   0.00000  Uiso   1.00
O915   O     0.05822   0.57035   0.74501   0.00000  Uiso   1.00
O916   O     0.27512   0.42965   0.75498   0.00000  Uiso   1.00
C917   C     0.01459   0.59801   0.74995   0.00000  Uiso   1.00
C918   C     0.31846   0.40190   0.74867   0.00000  Uiso   1.00
O919   O     0.30328   0.50730   0.82247   0.00000  Uiso   1.00
O920   O     0.03005   0.49270   0.67753   0.00000  Uiso   1.00
O921   O     0.06431   0.49801   0.81439   0.00000  Uiso   1.00
O922   O     0.26902   0.50199   0.68561   0.00000  Uiso   1.00
C923   C     0.02069   0.50342   0.84130   0.00000  Uiso   1.00
C924   C     0.31240   0.49526   0.65892   0.00000  Uiso   1.00
Zn925  Zn    0.27033   0.50621   0.75539   0.00000  Uiso   1.00
Zn926  Zn    0.06300   0.49379   0.74460   0.00000  Uiso   1.00
C927   C     0.02976   0.50555   0.89467   0.00000  Uiso   1.00
C928   C     0.30087   0.48358   0.60675   0.00000  Uiso   1.00
C929   C     0.00865   0.53746   0.97582   0.00000  Uiso   1.00
C930   C     0.30014   0.42269   0.53720   0.00000  Uiso   1.00
C931   C     0.32507   0.52776   0.92681   0.00000  Uiso   1.00
C932   C     0.32474   0.44167   0.58180   0.00000  Uiso   1.00
C933   C     0.08045   0.48799   0.91364   0.00000  Uiso   1.00
C934   C     0.25470   0.50650   0.58550   0.00000  Uiso   1.00
C935   C     0.09503   0.49296   0.96364   0.00000  Uiso   1.00
C936   C     0.22392   0.48225   0.54487   0.00000  Uiso   1.00
C937   C     0.06088   0.52231   0.99360   0.00000  Uiso   1.00
C938   C     0.24926   0.44112   0.51970   0.00000  Uiso   1.00
C939   C     0.14505   0.47312   0.98372   0.00000  Uiso   1.00
C940   C     0.16893   0.49622   0.52900   0.00000  Uiso   1.00
C941   C     0.13493   0.52956   0.55725   0.00000  Uiso   1.00
C942   C     0.16952   0.42925   0.96102   0.00000  Uiso   1.00
C943   C     0.07987   0.53783   0.54056   0.00000  Uiso   1.00
C944   C     0.22265   0.41568   0.97886   0.00000  Uiso   1.00
H945   H     0.05280   0.55930   0.56394   0.00000  Uiso   1.00
H946   H     0.24409   0.38393   0.96244   0.00000  Uiso   1.00
H947   H     0.24324   0.54221   0.60306   0.00000  Uiso   1.00
H948   H     0.11031   0.47336   0.88859   0.00000  Uiso   1.00
H949   H     0.31458   0.55768   0.99990   0.00000  Uiso   1.00
H950   H     0.31892   0.39076   0.51780   0.00000  Uiso   1.00
C951   C     0.02013   0.65261   0.75845   0.00000  Uiso   1.00
C952   C     0.31273   0.34720   0.73874   0.00000  Uiso   1.00
N953   N     0.14695   0.48550   0.73739   0.00000  Uiso   1.00
N954   N     0.18638   0.51450   0.76260   0.00000  Uiso   1.00
N955   N     0.03747   0.41530   0.60231   0.00000  Uiso   1.00
O956   O     0.08584   0.44078   0.61188   0.00000  Uiso   1.00
O957   O     0.03532   0.36451   0.60004   0.00000  Uiso   1.00
N958   N     0.27081   0.54314   0.91037   0.00000  Uiso   1.00
O959   O     0.25566   0.58968   0.92248   0.00000  Uiso   1.00
O960   O     0.23246   0.50761   0.89382   0.00000  Uiso   1.00
O961   O     0.15076   0.54744   0.60440   0.00000  Uiso   1.00
C962   C     0.15074   0.60276   0.60923   0.00000  Uiso   1.00
H963   H     0.13553   0.62222   0.57614   0.00000  Uiso   1.00
H964   H     0.19465   0.61867   0.61720   0.00000  Uiso   1.00
C965   C     0.11512   0.61821   0.65149   0.00000  Uiso   1.00
H966   H     0.13164   0.60125   0.68497   0.00000  Uiso   1.00
H967   H     0.11679   0.66136   0.65721   0.00000  Uiso   1.00
H968   H     0.07065   0.60332   0.64397   0.00000  Uiso   1.00
O969   O     0.13709   0.39898   0.92495   0.00000  Uiso   1.00
C970   C     0.16131   0.35370   0.90603   0.00000  Uiso   1.00
H971   H     0.12649   0.66098   0.88888   0.00000  Uiso   1.00
H972   H     0.17887   0.66291   0.93472   0.00000  Uiso   1.00
C973   C     0.20330   0.36716   0.86701   0.00000  Uiso   1.00
H974   H     0.21705   0.66404   0.84908   0.00000  Uiso   1.00
H975   H     0.18317   0.39079   0.83920   0.00000  Uiso   1.00
H976   H     0.24134   0.39024   0.88249   0.00000  Uiso   1.00
N977   N     0.05723   0.33954   0.79847   0.00000  Uiso   1.00
O978   O     0.03799   0.36600   0.83514   0.00000  Uiso   1.00
O979   O     0.10804   0.65755   0.80172   0.00000  Uiso   1.00
N980   N     0.27704   0.66056   0.69731   0.00000  Uiso   1.00
O981   O     0.29655   0.62986   0.66376   0.00000  Uiso   1.00
O982   O     0.22894   0.34697   0.68864   0.00000  Uiso   1.00
N983   N     0.16439   0.43893   0.71788   0.00000  Uiso   1.00
O984   O     0.15036   0.39609   0.73867   0.00000  Uiso   1.00
O985   O     0.17836   0.43618   0.67272   0.00000  Uiso   1.00
N986   N     0.16972   0.56141   0.78218   0.00000  Uiso   1.00
O987   O     0.18898   0.60419   0.76387   0.00000  Uiso   1.00
O988   O     0.15458   0.56378   0.82704   0.00000  Uiso   1.00
O989   O     0.63052   0.57964   0.75309   0.00000  Uiso   1.00
O990   O     0.36948   0.42036   0.74690   0.00000  Uiso   1.00
O991   O     0.39155   0.57035   0.74501   0.00000  Uiso   1.00
O992   O     0.60845   0.42965   0.75498   0.00000  Uiso   1.00
C993   C     0.34793   0.59801   0.74995   0.00000  Uiso   1.00
C994   C     0.65179   0.40190   0.74867   0.00000  Uiso   1.00
O995   O     0.63662   0.50730   0.82247   0.00000  Uiso   1.00
O996   O     0.36338   0.49270   0.67753   0.00000  Uiso   1.00
O997   O     0.39764   0.49801   0.81439   0.00000  Uiso   1.00
O998   O     0.60236   0.50199   0.68561   0.00000  Uiso   1.00
C999   C     0.35403   0.50342   0.84130   0.00000  Uiso   1.00
C1000  C     0.64573   0.49526   0.65892   0.00000  Uiso   1.00
Zn1001 Zn    0.60366   0.50621   0.75539   0.00000  Uiso   1.00
Zn1002 Zn    0.39634   0.49379   0.74460   0.00000  Uiso   1.00
C1003  C     0.36309   0.50555   0.89467   0.00000  Uiso   1.00
C1004  C     0.63420   0.48358   0.60675   0.00000  Uiso   1.00
C1005  C     0.34198   0.53746   0.97582   0.00000  Uiso   1.00
C1006  C     0.63347   0.42269   0.53720   0.00000  Uiso   1.00
C1007  C     0.65841   0.52776   0.92681   0.00000  Uiso   1.00
C1008  C     0.65807   0.44167   0.58180   0.00000  Uiso   1.00
C1009  C     0.41379   0.48799   0.91364   0.00000  Uiso   1.00
C1010  C     0.58803   0.50650   0.58550   0.00000  Uiso   1.00
C1011  C     0.42837   0.49296   0.96364   0.00000  Uiso   1.00
C1012  C     0.55725   0.48225   0.54487   0.00000  Uiso   1.00
C1013  C     0.39421   0.52231   0.99360   0.00000  Uiso   1.00
C1014  C     0.58259   0.44112   0.51970   0.00000  Uiso   1.00
C1015  C     0.47838   0.47312   0.98372   0.00000  Uiso   1.00
C1016  C     0.50226   0.49622   0.52900   0.00000  Uiso   1.00
C1017  C     0.46826   0.52956   0.55725   0.00000  Uiso   1.00
C1018  C     0.50286   0.42925   0.96102   0.00000  Uiso   1.00
C1019  C     0.41320   0.53783   0.54056   0.00000  Uiso   1.00
C1020  C     0.55598   0.41568   0.97886   0.00000  Uiso   1.00
H1021  H     0.38613   0.55930   0.56394   0.00000  Uiso   1.00
H1022  H     0.57743   0.38393   0.96244   0.00000  Uiso   1.00
H1023  H     0.57657   0.54221   0.60306   0.00000  Uiso   1.00
H1024  H     0.44364   0.47336   0.88859   0.00000  Uiso   1.00
H1025  H     0.64792   0.55768   0.99990   0.00000  Uiso   1.00
H1026  H     0.65226   0.39076   0.51780   0.00000  Uiso   1.00
C1027  C     0.35346   0.65261   0.75845   0.00000  Uiso   1.00
C1028  C     0.64606   0.34720   0.73874   0.00000  Uiso   1.00
N1029  N     0.48029   0.48550   0.73739   0.00000  Uiso   1.00
N1030  N     0.51971   0.51450   0.76260   0.00000  Uiso   1.00
N1031  N     0.37081   0.41530   0.60231   0.00000  Uiso   1.00
O1032  O     0.41917   0.44078   0.61188   0.00000  Uiso   1.00
O1033  O     0.36865   0.36451   0.60004   0.00000  Uiso   1.00
N1034  N     0.60415   0.54314   0.91037   0.00000  Uiso   1.00
O1035  O     0.58899   0.58968   0.92248   0.00000  Uiso   1.00
O1036  O     0.56580   0.50761   0.89382   0.00000  Uiso   1.00
O1037  O     0.48409   0.54744   0.60440   0.00000  Uiso   1.00
C1038  C     0.48407   0.60276   0.60923   0.00000  Uiso   1.00
H1039  H     0.46886   0.62222   0.57614   0.00000  Uiso   1.00
H1040  H     0.52798   0.61867   0.61720   0.00000  Uiso   1.00
C1041  C     0.44845   0.61821   0.65149   0.00000  Uiso   1.00
H1042  H     0.46497   0.60125   0.68497   0.00000  Uiso   1.00
H1043  H     0.45013   0.66136   0.65721   0.00000  Uiso   1.00
H1044  H     0.40398   0.60332   0.64397   0.00000  Uiso   1.00
O1045  O     0.47042   0.39898   0.92495   0.00000  Uiso   1.00
C1046  C     0.49464   0.35370   0.90603   0.00000  Uiso   1.00
H1047  H     0.45983   0.66098   0.88888   0.00000  Uiso   1.00
H1048  H     0.51221   0.66291   0.93472   0.00000  Uiso   1.00
C1049  C     0.53663   0.36716   0.86701   0.00000  Uiso   1.00
H1050  H     0.55039   0.66404   0.84908   0.00000  Uiso   1.00
H1051  H     0.51650   0.39079   0.83920   0.00000  Uiso   1.00
H1052  H     0.57467   0.39024   0.88249   0.00000  Uiso   1.00
N1053  N     0.39056   0.33954   0.79847   0.00000  Uiso   1.00
O1054  O     0.37133   0.36600   0.83514   0.00000  Uiso   1.00
O1055  O     0.44138   0.65755   0.80172   0.00000  Uiso   1.00
N1056  N     0.61037   0.66056   0.69731   0.00000  Uiso   1.00
O1057  O     0.62988   0.62986   0.66376   0.00000  Uiso   1.00
O1058  O     0.56227   0.34697   0.68864   0.00000  Uiso   1.00
N1059  N     0.49772   0.43893   0.71788   0.00000  Uiso   1.00
O1060  O     0.48369   0.39609   0.73867   0.00000  Uiso   1.00
O1061  O     0.51170   0.43618   0.67272   0.00000  Uiso   1.00
N1062  N     0.50305   0.56141   0.78218   0.00000  Uiso   1.00
O1063  O     0.52232   0.60419   0.76387   0.00000  Uiso   1.00
O1064  O     0.48792   0.56378   0.82704   0.00000  Uiso   1.00
O1065  O     0.96386   0.57964   0.75309   0.00000  Uiso   1.00
O1066  O     0.70281   0.42036   0.74690   0.00000  Uiso   1.00
O1067  O     0.72488   0.57035   0.74501   0.00000  Uiso   1.00
O1068  O     0.94178   0.42965   0.75498   0.00000  Uiso   1.00
C1069  C     0.68126   0.59801   0.74995   0.00000  Uiso   1.00
C1070  C     0.98513   0.40190   0.74867   0.00000  Uiso   1.00
O1071  O     0.96995   0.50730   0.82247   0.00000  Uiso   1.00
O1072  O     0.69672   0.49270   0.67753   0.00000  Uiso   1.00
O1073  O     0.73098   0.49801   0.81439   0.00000  Uiso   1.00
O1074  O     0.93569   0.50199   0.68561   0.00000  Uiso   1.00
C1075  C     0.68736   0.50342   0.84130   0.00000  Uiso   1.00
C1076  C     0.97907   0.49526   0.65892   0.00000  Uiso   1.00
Zn1077 Zn    0.93700   0.50621   0.75539   0.00000  Uiso   1.00
Zn1078 Zn    0.72967   0.49379   0.74460   0.00000  Uiso   1.00
C1079  C     0.69643   0.50555   0.89467   0.00000  Uiso   1.00
C1080  C     0.96753   0.48358   0.60675   0.00000  Uiso   1.00
C1081  C     0.67532   0.53746   0.97582   0.00000  Uiso   1.00
C1082  C     0.96680   0.42269   0.53720   0.00000  Uiso   1.00
C1083  C     0.99174   0.52776   0.92681   0.00000  Uiso   1.00
C1084  C     0.99141   0.44167   0.58180   0.00000  Uiso   1.00
C1085  C     0.74712   0.48799   0.91364   0.00000  Uiso   1.00
C1086  C     0.92136   0.50650   0.58550   0.00000  Uiso   1.00
C1087  C     0.76170   0.49296   0.96364   0.00000  Uiso   1.00
C1088  C     0.89058   0.48225   0.54487   0.00000  Uiso   1.00
C1089  C     0.72755   0.52231   0.99360   0.00000  Uiso   1.00
C1090  C     0.91593   0.44112   0.51970   0.00000  Uiso   1.00
C1091  C     0.81172   0.47312   0.98372   0.00000  Uiso   1.00
C1092  C     0.83560   0.49622   0.52900   0.00000  Uiso   1.00
C1093  C     0.80159   0.52956   0.55725   0.00000  Uiso   1.00
C1094  C     0.83619   0.42925   0.96102   0.00000  Uiso   1.00
C1095  C     0.74654   0.53783   0.54056   0.00000  Uiso   1.00
C1096  C     0.88932   0.41568   0.97886   0.00000  Uiso   1.00
H1097  H     0.71947   0.55930   0.56394   0.00000  Uiso   1.00
H1098  H     0.91076   0.38393   0.96244   0.00000  Uiso   1.00
H1099  H     0.90990   0.54221   0.60306   0.00000  Uiso   1.00
H1100  H     0.77697   0.47336   0.88859   0.00000  Uiso   1.00
H1101  H     0.98125   0.55768   0.99990   0.00000  Uiso   1.00
H1102  H     0.98559   0.39076   0.51780   0.00000  Uiso   1.00
C1103  C     0.68680   0.65261   0.75845   0.00000  Uiso   1.00
C1104  C     0.97939   0.34720   0.73874   0.00000  Uiso   1.00
N1105  N     0.81362   0.48550   0.73739   0.00000  Uiso   1.00
N1106  N     0.85305   0.51450   0.76260   0.00000  Uiso   1.00
N1107  N     0.70414   0.41530   0.60231   0.00000  Uiso   1.00
O1108  O     0.75251   0.44078   0.61188   0.00000  Uiso   1.00
O1109  O     0.70198   0.36451   0.60004   0.00000  Uiso   1.00
N1110  N     0.93748   0.54314   0.91037   0.00000  Uiso   1.00
O1111  O     0.92232   0.58968   0.92248   0.00000  Uiso   1.00
O1112  O     0.89913   0.50761   0.89382   0.00000  Uiso   1.00
O1113  O     0.81743   0.54744   0.60440   0.00000  Uiso   1.00
C1114  C     0.81740   0.60276   0.60923   0.00000  Uiso   1.00
H1115  H     0.80220   0.62222   0.57614   0.00000  Uiso   1.00
H1116  H     0.86132   0.61867   0.61720   0.00000  Uiso   1.00
C1117  C     0.78178   0.61821   0.65149   0.00000  Uiso   1.00
H1118  H     0.79831   0.60125   0.68497   0.00000  Uiso   1.00
H1119  H     0.78346   0.66136   0.65721   0.00000  Uiso   1.00
H1120  H     0.73731   0.60332   0.64397   0.00000  Uiso   1.00
O1121  O     0.80376   0.39898   0.92495   0.00000  Uiso   1.00
C1122  C     0.82798   0.35370   0.90603   0.00000  Uiso   1.00
H1123  H     0.79316   0.66098   0.88888   0.00000  Uiso   1.00
H1124  H     0.84554   0.66291   0.93472   0.00000  Uiso   1.00
C1125  C     0.86997   0.36716   0.86701   0.00000  Uiso   1.00
H1126  H     0.88372   0.66404   0.84908   0.00000  Uiso   1.00
H1127  H     0.84984   0.39079   0.83920   0.00000  Uiso   1.00
H1128  H     0.90800   0.39024   0.88249   0.00000  Uiso   1.00
N1129  N     0.72390   0.33954   0.79847   0.00000  Uiso   1.00
O1130  O     0.70466   0.36600   0.83514   0.00000  Uiso   1.00
O1131  O     0.77471   0.65755   0.80172   0.00000  Uiso   1.00
N1132  N     0.94371   0.66056   0.69731   0.00000  Uiso   1.00
O1133  O     0.96322   0.62986   0.66376   0.00000  Uiso   1.00
O1134  O     0.89561   0.34697   0.68864   0.00000  Uiso   1.00
N1135  N     0.83106   0.43893   0.71788   0.00000  Uiso   1.00
O1136  O     0.81702   0.39609   0.73867   0.00000  Uiso   1.00
O1137  O     0.84503   0.43618   0.67272   0.00000  Uiso   1.00
N1138  N     0.83638   0.56141   0.78218   0.00000  Uiso   1.00
O1139  O     0.85565   0.60419   0.76387   0.00000  Uiso   1.00
O1140  O     0.82125   0.56378   0.82704   0.00000  Uiso   1.00
O1141  O     0.29719   0.91298   0.75309   0.00000  Uiso   1.00
O1142  O     0.03614   0.75369   0.74690   0.00000  Uiso   1.00
O1143  O     0.05822   0.90368   0.74501   0.00000  Uiso   1.00
O1144  O     0.27512   0.76298   0.75498   0.00000  Uiso   1.00
C1145  C     0.01459   0.93135   0.74995   0.00000  Uiso   1.00
C1146  C     0.31846   0.73524   0.74867   0.00000  Uiso   1.00
O1147  O     0.30328   0.84063   0.82247   0.00000  Uiso   1.00
O1148  O     0.03005   0.82603   0.67753   0.00000  Uiso   1.00
O1149  O     0.06431   0.83134   0.81439   0.00000  Uiso   1.00
O1150  O     0.26902   0.83533   0.68561   0.00000  Uiso   1.00
C1151  C     0.02069   0.83675   0.84130   0.00000  Uiso   1.00
C1152  C     0.31240   0.82859   0.65892   0.00000  Uiso   1.00
Zn1153 Zn    0.27033   0.83954   0.75539   0.00000  Uiso   1.00
Zn1154 Zn    0.06300   0.82713   0.74460   0.00000  Uiso   1.00
C1155  C     0.02976   0.83888   0.89467   0.00000  Uiso   1.00
C1156  C     0.30087   0.81691   0.60675   0.00000  Uiso   1.00
C1157  C     0.00865   0.87079   0.97582   0.00000  Uiso   1.00
C1158  C     0.30014   0.75603   0.53720   0.00000  Uiso   1.00
C1159  C     0.32507   0.86110   0.92681   0.00000  Uiso   1.00
C1160  C     0.32474   0.77501   0.58180   0.00000  Uiso   1.00
C1161  C     0.08045   0.82132   0.91364   0.00000  Uiso   1.00
C1162  C     0.25470   0.83983   0.58550   0.00000  Uiso   1.00
C1163  C     0.09503   0.82630   0.96364   0.00000  Uiso   1.00
C1164  C     0.22392   0.81559   0.54487   0.00000  Uiso   1.00
C1165  C     0.06088   0.85564   0.99360   0.00000  Uiso   1.00
C1166  C     0.24926   0.77445   0.51970   0.00000  Uiso   1.00
C1167  C     0.14505   0.80646   0.98372   0.00000  Uiso   1.00
C1168  C     0.16893   0.82955   0.52900   0.00000  Uiso   1.00
C1169  C     0.13493   0.86289   0.55725   0.00000  Uiso   1.00
C1170  C     0.16952   0.76259   0.96102   0.00000  Uiso   1.00
C1171  C     0.07987   0.87117   0.54056   0.00000  Uiso   1.00
C1172  C     0.22265   0.74901   0.97886   0.00000  Uiso   1.00
H1173  H     0.05280   0.89264   0.56394   0.00000  Uiso   1.00
H1174  H     0.24409   0.71726   0.96244   0.00000  Uiso   1.00
H1175  H     0.24324   0.87554   0.60306   0.00000  Uiso   1.00
H1176  H     0.11031   0.80670   0.88859   0.00000  Uiso   1.00
H1177  H     0.31458   0.89101   0.99990   0.00000  Uiso   1.00
H1178  H     0.31892   0.72409   0.51780   0.00000  Uiso   1.00
C1179  C     0.02013   0.98594   0.75845   0.00000  Uiso   1.00
C1180  C     0.31273   0.68053   0.73874   0.00000  Uiso   1.00
N1181  N     0.14695   0.81883   0.73739   0.00000  Uiso   1.00
N1182  N     0.18638   0.84784   0.76260   0.00000  Uiso   1.00
N1183  N     0.03747   0.74864   0.60231   0.00000  Uiso   1.00
O1184  O     0.08584   0.77411   0.61188   0.00000  Uiso   1.00
O1185  O     0.03532   0.69784   0.60004   0.00000  Uiso   1.00
N1186  N     0.27081   0.87647   0.91037   0.00000  Uiso   1.00
O1187  O     0.25566   0.92301   0.92248   0.00000  Uiso   1.00
O1188  O     0.23246   0.84095   0.89382   0.00000  Uiso   1.00
O1189  O     0.15076   0.88077   0.60440   0.00000  Uiso   1.00
C1190  C     0.15074   0.93609   0.60923   0.00000  Uiso   1.00
H1191  H     0.13553   0.95556   0.57614   0.00000  Uiso   1.00
H1192  H     0.19465   0.95200   0.61720   0.00000  Uiso   1.00
C1193  C     0.11512   0.95154   0.65149   0.00000  Uiso   1.00
H1194  H     0.13164   0.93458   0.68497   0.00000  Uiso   1.00
H1195  H     0.11679   0.99469   0.65721   0.00000  Uiso   1.00
H1196  H     0.07065   0.93666   0.64397   0.00000  Uiso   1.00
O1197  O     0.13709   0.73232   0.92495   0.00000  Uiso   1.00
C1198  C     0.16131   0.68703   0.90603   0.00000  Uiso   1.00
H1199  H     0.12649   0.99431   0.88888   0.00000  Uiso   1.00
H1200  H     0.17887   0.99624   0.93472   0.00000  Uiso   1.00
C1201  C     0.20330   0.70050   0.86701   0.00000  Uiso   1.00
H1202  H     0.21705   0.99737   0.84908   0.00000  Uiso   1.00
H1203  H     0.18317   0.72412   0.83920   0.00000  Uiso   1.00
H1204  H     0.24134   0.72357   0.88249   0.00000  Uiso   1.00
N1205  N     0.05723   0.67287   0.79847   0.00000  Uiso   1.00
O1206  O     0.03799   0.69934   0.83514   0.00000  Uiso   1.00
O1207  O     0.10804   0.99088   0.80172   0.00000  Uiso   1.00
N1208  N     0.27704   0.99389   0.69731   0.00000  Uiso   1.00
O1209  O     0.29655   0.96319   0.66376   0.00000  Uiso   1.00
O1210  O     0.22894   0.68030   0.68864   0.00000  Uiso   1.00
N1211  N     0.16439   0.77226   0.71788   0.00000  Uiso   1.00
O1212  O     0.15036   0.72943   0.73867   0.00000  Uiso   1.00
O1213  O     0.17836   0.76951   0.67272   0.00000  Uiso   1.00
N1214  N     0.16972   0.89475   0.78218   0.00000  Uiso   1.00
O1215  O     0.18898   0.93753   0.76387   0.00000  Uiso   1.00
O1216  O     0.15458   0.89711   0.82704   0.00000  Uiso   1.00
O1217  O     0.63052   0.91298   0.75309   0.00000  Uiso   1.00
O1218  O     0.36948   0.75369   0.74690   0.00000  Uiso   1.00
O1219  O     0.39155   0.90368   0.74501   0.00000  Uiso   1.00
O1220  O     0.60845   0.76298   0.75498   0.00000  Uiso   1.00
C1221  C     0.34793   0.93135   0.74995   0.00000  Uiso   1.00
C1222  C     0.65179   0.73524   0.74867   0.00000  Uiso   1.00
O1223  O     0.63662   0.84063   0.82247   0.00000  Uiso   1.00
O1224  O     0.36338   0.82603   0.67753   0.00000  Uiso   1.00
O1225  O     0.39764   0.83134   0.81439   0.00000  Uiso   1.00
O1226  O     0.60236   0.83533   0.68561   0.00000  Uiso   1.00
C1227  C     0.35403   0.83675   0.84130   0.00000  Uiso   1.00
C1228  C     0.64573   0.82859   0.65892   0.00000  Uiso   1.00
Zn1229 Zn    0.60366   0.83954   0.75539   0.00000  Uiso   1.00
Zn1230 Zn    0.39634   0.82713   0.74460   0.00000  Uiso   1.00
C1231  C     0.36309   0.83888   0.89467   0.00000  Uiso   1.00
C1232  C     0.63420   0.81691   0.60675   0.00000  Uiso   1.00
C1233  C     0.34198   0.87079   0.97582   0.00000  Uiso   1.00
C1234  C     0.63347   0.75603   0.53720   0.00000  Uiso   1.00
C1235  C     0.65841   0.86110   0.92681   0.00000  Uiso   1.00
C1236  C     0.65807   0.77501   0.58180   0.00000  Uiso   1.00
C1237  C     0.41379   0.82132   0.91364   0.00000  Uiso   1.00
C1238  C     0.58803   0.83983   0.58550   0.00000  Uiso   1.00
C1239  C     0.42837   0.82630   0.96364   0.00000  Uiso   1.00
C1240  C     0.55725   0.81559   0.54487   0.00000  Uiso   1.00
C1241  C     0.39421   0.85564   0.99360   0.00000  Uiso   1.00
C1242  C     0.58259   0.77445   0.51970   0.00000  Uiso   1.00
C1243  C     0.47838   0.80646   0.98372   0.00000  Uiso   1.00
C1244  C     0.50226   0.82955   0.52900   0.00000  Uiso   1.00
C1245  C     0.46826   0.86289   0.55725   0.00000  Uiso   1.00
C1246  C     0.50286   0.76259   0.96102   0.00000  Uiso   1.00
C1247  C     0.41320   0.87117   0.54056   0.00000  Uiso   1.00
C1248  C     0.55598   0.74901   0.97886   0.00000  Uiso   1.00
H1249  H     0.38613   0.89264   0.56394   0.00000  Uiso   1.00
H1250  H     0.57743   0.71726   0.96244   0.00000  Uiso   1.00
H1251  H     0.57657   0.87554   0.60306   0.00000  Uiso   1.00
H1252  H     0.44364   0.80670   0.88859   0.00000  Uiso   1.00
H1253  H     0.64792   0.89101   0.99990   0.00000  Uiso   1.00
H1254  H     0.65226   0.72409   0.51780   0.00000  Uiso   1.00
C1255  C     0.35346   0.98594   0.75845   0.00000  Uiso   1.00
C1256  C     0.64606   0.68053   0.73874   0.00000  Uiso   1.00
N1257  N     0.48029   0.81883   0.73739   0.00000  Uiso   1.00
N1258  N     0.51971   0.84784   0.76260   0.00000  Uiso   1.00
N1259  N     0.37081   0.74864   0.60231   0.00000  Uiso   1.00
O1260  O     0.41917   0.77411   0.61188   0.00000  Uiso   1.00
O1261  O     0.36865   0.69784   0.60004   0.00000  Uiso   1.00
N1262  N     0.60415   0.87647   0.91037   0.00000  Uiso   1.00
O1263  O     0.58899   0.92301   0.92248   0.00000  Uiso   1.00
O1264  O     0.56580   0.84095   0.89382   0.00000  Uiso   1.00
O1265  O     0.48409   0.88077   0.60440   0.00000  Uiso   1.00
C1266  C     0.48407   0.93609   0.60923   0.00000  Uiso   1.00
H1267  H     0.46886   0.95556   0.57614   0.00000  Uiso   1.00
H1268  H     0.52798   0.95200   0.61720   0.00000  Uiso   1.00
C1269  C     0.44845   0.95154   0.65149   0.00000  Uiso   1.00
H1270  H     0.46497   0.93458   0.68497   0.00000  Uiso   1.00
H1271  H     0.45013   0.99469   0.65721   0.00000  Uiso   1.00
H1272  H     0.40398   0.93666   0.64397   0.00000  Uiso   1.00
O1273  O     0.47042   0.73232   0.92495   0.00000  Uiso   1.00
C1274  C     0.49464   0.68703   0.90603   0.00000  Uiso   1.00
H1275  H     0.45983   0.99431   0.88888   0.00000  Uiso   1.00
H1276  H     0.51221   0.99624   0.93472   0.00000  Uiso   1.00
C1277  C     0.53663   0.70050   0.86701   0.00000  Uiso   1.00
H1278  H     0.55039   0.99737   0.84908   0.00000  Uiso   1.00
H1279  H     0.51650   0.72412   0.83920   0.00000  Uiso   1.00
H1280  H     0.57467   0.72357   0.88249   0.00000  Uiso   1.00
N1281  N     0.39056   0.67287   0.79847   0.00000  Uiso   1.00
O1282  O     0.37133   0.69934   0.83514   0.00000  Uiso   1.00
O1283  O     0.44138   0.99088   0.80172   0.00000  Uiso   1.00
N1284  N     0.61037   0.99389   0.69731   0.00000  Uiso   1.00
O1285  O     0.62988   0.96319   0.66376   0.00000  Uiso   1.00
O1286  O     0.56227   0.68030   0.68864   0.00000  Uiso   1.00
N1287  N     0.49772   0.77226   0.71788   0.00000  Uiso   1.00
O1288  O     0.48369   0.72943   0.73867   0.00000  Uiso   1.00
O1289  O     0.51170   0.76951   0.67272   0.00000  Uiso   1.00
N1290  N     0.50305   0.89475   0.78218   0.00000  Uiso   1.00
O1291  O     0.52232   0.93753   0.76387   0.00000  Uiso   1.00
O1292  O     0.48792   0.89711   0.82704   0.00000  Uiso   1.00
O1293  O     0.96386   0.91298   0.75309   0.00000  Uiso   1.00
O1294  O     0.70281   0.75369   0.74690   0.00000  Uiso   1.00
O1295  O     0.72488   0.90368   0.74501   0.00000  Uiso   1.00
O1296  O     0.94178   0.76298   0.75498   0.00000  Uiso   1.00
C1297  C     0.68126   0.93135   0.74995   0.00000  Uiso   1.00
C1298  C     0.98513   0.73524   0.74867   0.00000  Uiso   1.00
O1299  O     0.96995   0.84063   0.82247   0.00000  Uiso   1.00
O1300  O     0.69672   0.82603   0.67753   0.00000  Uiso   1.00
O1301  O     0.73098   0.83134   0.81439   0.00000  Uiso   1.00
O1302  O     0.93569   0.83533   0.68561   0.00000  Uiso   1.00
C1303  C     0.68736   0.83675   0.84130   0.00000  Uiso   1.00
C1304  C     0.97907   0.82859   0.65892   0.00000  Uiso   1.00
Zn1305 Zn    0.93700   0.83954   0.75539   0.00000  Uiso   1.00
Zn1306 Zn    0.72967   0.82713   0.74460   0.00000  Uiso   1.00
C1307  C     0.69643   0.83888   0.89467   0.00000  Uiso   1.00
C1308  C     0.96753   0.81691   0.60675   0.00000  Uiso   1.00
C1309  C     0.67532   0.87079   0.97582   0.00000  Uiso   1.00
C1310  C     0.96680   0.75603   0.53720   0.00000  Uiso   1.00
C1311  C     0.99174   0.86110   0.92681   0.00000  Uiso   1.00
C1312  C     0.99141   0.77501   0.58180   0.00000  Uiso   1.00
C1313  C     0.74712   0.82132   0.91364   0.00000  Uiso   1.00
C1314  C     0.92136   0.83983   0.58550   0.00000  Uiso   1.00
C1315  C     0.76170   0.82630   0.96364   0.00000  Uiso   1.00
C1316  C     0.89058   0.81559   0.54487   0.00000  Uiso   1.00
C1317  C     0.72755   0.85564   0.99360   0.00000  Uiso   1.00
C1318  C     0.91593   0.77445   0.51970   0.00000  Uiso   1.00
C1319  C     0.81172   0.80646   0.98372   0.00000  Uiso   1.00
C1320  C     0.83560   0.82955   0.52900   0.00000  Uiso   1.00
C1321  C     0.80159   0.86289   0.55725   0.00000  Uiso   1.00
C1322  C     0.83619   0.76259   0.96102   0.00000  Uiso   1.00
C1323  C     0.74654   0.87117   0.54056   0.00000  Uiso   1.00
C1324  C     0.88932   0.74901   0.97886   0.00000  Uiso   1.00
H1325  H     0.71947   0.89264   0.56394   0.00000  Uiso   1.00
H1326  H     0.91076   0.71726   0.96244   0.00000  Uiso   1.00
H1327  H     0.90990   0.87554   0.60306   0.00000  Uiso   1.00
H1328  H     0.77697   0.80670   0.88859   0.00000  Uiso   1.00
H1329  H     0.98125   0.89101   0.99990   0.00000  Uiso   1.00
H1330  H     0.98559   0.72409   0.51780   0.00000  Uiso   1.00
C1331  C     0.68680   0.98594   0.75845   0.00000  Uiso   1.00
C1332  C     0.97939   0.68053   0.73874   0.00000  Uiso   1.00
N1333  N     0.81362   0.81883   0.73739   0.00000  Uiso   1.00
N1334  N     0.85305   0.84784   0.76260   0.00000  Uiso   1.00
N1335  N     0.70414   0.74864   0.60231   0.00000  Uiso   1.00
O1336  O     0.75251   0.77411   0.61188   0.00000  Uiso   1.00
O1337  O     0.70198   0.69784   0.60004   0.00000  Uiso   1.00
N1338  N     0.93748   0.87647   0.91037   0.00000  Uiso   1.00
O1339  O     0.92232   0.92301   0.92248   0.00000  Uiso   1.00
O1340  O     0.89913   0.84095   0.89382   0.00000  Uiso   1.00
O1341  O     0.81743   0.88077   0.60440   0.00000  Uiso   1.00
C1342  C     0.81740   0.93609   0.60923   0.00000  Uiso   1.00
H1343  H     0.80220   0.95556   0.57614   0.00000  Uiso   1.00
H1344  H     0.86132   0.95200   0.61720   0.00000  Uiso   1.00
C1345  C     0.78178   0.95154   0.65149   0.00000  Uiso   1.00
H1346  H     0.79831   0.93458   0.68497   0.00000  Uiso   1.00
H1347  H     0.78346   0.99469   0.65721   0.00000  Uiso   1.00
H1348  H     0.73731   0.93666   0.64397   0.00000  Uiso   1.00
O1349  O     0.80376   0.73232   0.92495   0.00000  Uiso   1.00
C1350  C     0.82798   0.68703   0.90603   0.00000  Uiso   1.00
H1351  H     0.79316   0.99431   0.88888   0.00000  Uiso   1.00
H1352  H     0.84554   0.99624   0.93472   0.00000  Uiso   1.00
C1353  C     0.86997   0.70050   0.86701   0.00000  Uiso   1.00
H1354  H     0.88372   0.99737   0.84908   0.00000  Uiso   1.00
H1355  H     0.84984   0.72412   0.83920   0.00000  Uiso   1.00
H1356  H     0.90800   0.72357   0.88249   0.00000  Uiso   1.00
N1357  N     0.72390   0.67287   0.79847   0.00000  Uiso   1.00
O1358  O     0.70466   0.69934   0.83514   0.00000  Uiso   1.00
O1359  O     0.77471   0.99088   0.80172   0.00000  Uiso   1.00
N1360  N     0.94371   0.99389   0.69731   0.00000  Uiso   1.00
O1361  O     0.96322   0.96319   0.66376   0.00000  Uiso   1.00
O1362  O     0.89561   0.68030   0.68864   0.00000  Uiso   1.00
N1363  N     0.83106   0.77226   0.71788   0.00000  Uiso   1.00
O1364  O     0.81702   0.72943   0.73867   0.00000  Uiso   1.00
O1365  O     0.84503   0.76951   0.67272   0.00000  Uiso   1.00
N1366  N     0.83638   0.89475   0.78218   0.00000  Uiso   1.00
O1367  O     0.85565   0.93753   0.76387   0.00000  Uiso   1.00
O1368  O     0.82125   0.89711   0.82704   0.00000  Uiso   1.00
loop_
_geom_bond_atom_site_label_1
_geom_bond_atom_site_label_2
_geom_bond_distance
_geom_bond_site_symmetry_2
_ccdc_geom_bond_type
O1     Zn13    1.959   .     S
O1     C81     1.276   .     S
O2     Zn14    1.959   .     S
O2     C158    1.279   1_455 S
O3     Zn14    1.976   .     S
O3     C5      1.300   .     A
O4     C6      1.301   .     A
O4     Zn13    1.976   .     S
C5     C39     1.407   .     S
C5     O153    1.276   1_455 S
C6     C40     1.415   .     S
C6     O78     1.279   .     S
O7     Zn13    1.970   .     S
O7     C87     1.303   .     S
O8     Zn14    1.970   .     S
O8     C164    1.301   1_455 S
O9     Zn14    1.915   .     S
O9     C11     1.310   .     A
O10    C12     1.306   .     A
O10    Zn13    1.915   .     S
C11    C15     1.471   .     S
C11    O159    1.303   1_455 S
C12    C16     1.461   .     S
C12    O84     1.301   .     S
Zn13   N42     2.037   .     S
Zn14   N41     2.037   .     S
C15    C21     1.401   .     A
C15    C171    1.416   1_455 S
C16    C20     1.409   .     A
C16    C22     1.396   .     A
C17    C25     1.399   .     A
C17    C171    1.395   1_455 S
C17    H189    1.085   1_455 S
C18    C26     1.400   .     A
C18    H38     1.085   .     S
C18    C20     1.387   .     A
C19    N46     1.433   .     S
C19    C93     1.395   .     S
C19    C91     1.416   .     S
C20    N119    1.432   .     S
C21    H36     1.081   .     S
C21    C23     1.401   .     A
C22    H35     1.070   .     S
C22    C24     1.405   .     A
C23    C27     1.422   .     A
C23    C25     1.405   .     A
C24    C26     1.413   .     A
C24    C28     1.432   .     A
C25    C715    1.380   .     S
C26    C716    1.379   1_554 S
C27    C30     1.427   .     A
C27    C712    1.431   .     S
C28    C29     1.436   .     A
C28    C711    1.431   1_554 S
C29    C31     1.400   .     A
C29    O49     1.382   .     S
C30    C32     1.405   .     A
C30    O57     1.402   .     S
C31    H33     1.084   .     S
C31    C709    1.380   1_554 S
C32    H34     1.078   .     S
C32    C710    1.379   .     S
H37    C93     1.085   .     S
C39    C420    1.350   1_455 S
C39    N293    1.436   .     S
C40    C571    1.350   1_545 S
C40    N524    1.443   1_545 S
N41    N71     1.380   .     S
N41    N42     1.312   .     D
N42    N74     1.382   .     S
N43    O44     1.298   .     A
N43    O45     1.301   .     A
N43    C172    1.432   1_455 S
N46    O48     1.301   .     A
N46    O47     1.301   .     A
O49    C50     1.420   .     S
C50    H52     1.106   .     S
C50    H51     1.117   .     S
C50    C53     1.518   .     S
C53    H54     1.105   .     S
C53    H55     1.109   .     S
C53    H56     1.109   .     S
O57    C58     1.414   .     S
C58    C61     1.535   .     S
C58    H515    1.105   1_545 S
C58    H516    1.110   1_545 S
H59    C286    1.105   .     S
H60    C286    1.110   .     S
C61    H64     1.107   .     S
C61    H63     1.110   .     S
C61    H518    1.109   1_545 S
H62    C289    1.109   .     S
N65    O66     1.302   .     A
N65    C495    1.436   1_545 S
N65    O523    1.294   1_545 S
O67    N293    1.294   .     S
N68    O69     1.302   .     A
N68    C268    1.443   .     S
N68    O298    1.296   .     S
O70    N524    1.296   1_545 S
N71    O72     1.298   .     A
N71    O73     1.299   .     A
N74    O76     1.300   .     A
N74    O75     1.298   .     A
O77    Zn89    1.959   .     S
O77    C157    1.276   .     S
O78    Zn90    1.959   .     S
O79    Zn90    1.976   .     S
O79    C81     1.300   .     A
O80    C82     1.301   .     A
O80    Zn89    1.976   .     S
C81    C115    1.407   .     S
C82    C116    1.415   .     S
C82    O154    1.279   .     S
O83    Zn89    1.970   .     S
O83    C163    1.303   .     S
O84    Zn90    1.970   .     S
O85    Zn90    1.915   .     S
O85    C87     1.310   .     A
O86    C88     1.306   .     A
O86    Zn89    1.915   .     S
C87    C91     1.471   .     S
C88    C92     1.461   .     S
C88    O160    1.301   .     S
Zn89   N118    2.037   .     S
Zn90   N117    2.037   .     S
C91    C97     1.401   .     A
C92    C96     1.409   .     A
C92    C98     1.396   .     A
C93    C101    1.399   .     A
C94    C102    1.400   .     A
C94    H114    1.085   .     S
C94    C96     1.387   .     A
C95    N122    1.433   .     S
C95    C169    1.395   .     S
C95    C167    1.416   .     S
C96    N195    1.432   .     S
C97    H112    1.081   .     S
C97    C99     1.401   .     A
C98    H111    1.070   .     S
C98    C100    1.405   .     A
C99    C103    1.422   .     A
C99    C101    1.405   .     A
C100   C102    1.413   .     A
C100   C104    1.432   .     A
C101   C791    1.380   .     S
C102   C792    1.379   1_554 S
C103   C106    1.427   .     A
C103   C788    1.431   .     S
C104   C105    1.436   .     A
C104   C787    1.431   1_554 S
C105   C107    1.400   .     A
C105   O125    1.382   .     S
C106   C108    1.405   .     A
C106   O133    1.402   .     S
C107   H109    1.084   .     S
C107   C785    1.380   1_554 S
C108   H110    1.078   .     S
C108   C786    1.379   .     S
H113   C169    1.085   .     S
C115   C268    1.350   .     S
C115   N369    1.436   .     S
C116   C647    1.350   1_545 S
C116   N600    1.443   1_545 S
N117   N147    1.380   .     S
N117   N118    1.312   .     D
N118   N150    1.382   .     S
N119   O120    1.298   .     A
N119   O121    1.301   .     A
N122   O124    1.301   .     A
N122   O123    1.301   .     A
O125   C126    1.420   .     S
C126   H128    1.106   .     S
C126   H127    1.117   .     S
C126   C129    1.518   .     S
C129   H130    1.105   .     S
C129   H131    1.109   .     S
C129   H132    1.109   .     S
O133   C134    1.414   .     S
C134   C137    1.535   .     S
C134   H591    1.105   1_545 S
C134   H592    1.110   1_545 S
H135   C362    1.105   .     S
H136   C362    1.110   .     S
C137   H140    1.107   .     S
C137   H139    1.110   .     S
C137   H594    1.109   1_545 S
H138   C365    1.109   .     S
N141   O142    1.302   .     A
N141   C571    1.436   1_545 S
N141   O599    1.294   1_545 S
O143   N369    1.294   .     S
N144   O145    1.302   .     A
N144   C344    1.443   .     S
N144   O374    1.296   .     S
O146   N600    1.296   1_545 S
N147   O148    1.298   .     A
N147   O149    1.299   .     A
N150   O152    1.300   .     A
N150   O151    1.298   .     A
O153   Zn165   1.959   .     S
O153   C5      1.276   1_655 S
O154   Zn166   1.959   .     S
O155   Zn166   1.976   .     S
O155   C157    1.300   .     A
O156   C158    1.301   .     A
O156   Zn165   1.976   .     S
C157   C191    1.407   .     S
C158   C192    1.415   .     S
C158   O2      1.279   1_655 S
O159   Zn165   1.970   .     S
O159   C11     1.303   1_655 S
O160   Zn166   1.970   .     S
O161   Zn166   1.915   .     S
O161   C163    1.310   .     A
O162   C164    1.306   .     A
O162   Zn165   1.915   .     S
C163   C167    1.471   .     S
C164   C168    1.461   .     S
C164   O8      1.301   1_655 S
Zn165  N194    2.037   .     S
Zn166  N193    2.037   .     S
C167   C173    1.401   .     A
C168   C172    1.409   .     A
C168   C174    1.396   .     A
C169   C177    1.399   .     A
C170   C178    1.400   .     A
C170   H190    1.085   .     S
C170   C172    1.387   .     A
C171   N198    1.433   .     S
C171   C17     1.395   1_655 S
C171   C15     1.416   1_655 S
C172   N43     1.432   1_655 S
C173   H188    1.081   .     S
C173   C175    1.401   .     A
C174   H187    1.070   .     S
C174   C176    1.405   .     A
C175   C179    1.422   .     A
C175   C177    1.405   .     A
C176   C178    1.413   .     A
C176   C180    1.432   .     A
C177   C867    1.380   .     S
C178   C868    1.379   1_554 S
C179   C182    1.427   .     A
C179   C864    1.431   .     S
C180   C181    1.436   .     A
C180   C863    1.431   1_554 S
C181   C183    1.400   .     A
C181   O201    1.382   .     S
C182   C184    1.405   .     A
C182   O209    1.402   .     S
C183   H185    1.084   .     S
C183   C861    1.380   1_554 S
C184   H186    1.078   .     S
C184   C862    1.379   .     S
H189   C17     1.085   1_655 S
C191   C344    1.350   .     S
C191   N445    1.436   .     S
C192   C495    1.350   1_645 S
C192   N676    1.443   1_545 S
N193   N223    1.380   .     S
N193   N194    1.312   .     D
N194   N226    1.382   .     S
N195   O196    1.298   .     A
N195   O197    1.301   .     A
N198   O200    1.301   .     A
N198   O199    1.301   .     A
O201   C202    1.420   .     S
C202   H204    1.106   .     S
C202   H203    1.117   .     S
C202   C205    1.518   .     S
C205   H206    1.105   .     S
C205   H207    1.109   .     S
C205   H208    1.109   .     S
O209   C210    1.414   .     S
C210   C213    1.535   .     S
C210   H667    1.105   1_545 S
C210   H668    1.110   1_545 S
H211   C438    1.105   .     S
H212   C438    1.110   .     S
C213   H216    1.107   .     S
C213   H215    1.110   .     S
C213   H670    1.109   1_545 S
H214   C441    1.109   .     S
N217   O218    1.302   .     A
N217   C647    1.436   1_545 S
N217   O675    1.294   1_545 S
O219   N445    1.294   .     S
N220   O221    1.302   .     A
N220   C420    1.443   .     S
N220   O450    1.296   .     S
O222   N676    1.296   1_545 S
N223   O224    1.298   .     A
N223   O225    1.299   .     A
N226   O228    1.300   .     A
N226   O227    1.298   .     A
O229   Zn241   1.959   .     S
O229   C309    1.276   .     S
O230   Zn242   1.959   .     S
O230   C386    1.279   1_455 S
O231   Zn242   1.976   .     S
O231   C233    1.300   .     A
O232   C234    1.301   .     A
O232   Zn241   1.976   .     S
C233   C267    1.407   .     S
C233   O381    1.276   1_455 S
C234   C268    1.415   .     S
C234   O306    1.279   .     S
O235   Zn241   1.970   .     S
O235   C315    1.303   .     S
O236   Zn242   1.970   .     S
O236   C392    1.301   1_455 S
O237   Zn242   1.915   .     S
O237   C239    1.310   .     A
O238   C240    1.306   .     A
O238   Zn241   1.915   .     S
C239   C243    1.471   .     S
C239   O387    1.303   1_455 S
C240   C244    1.461   .     S
C240   O312    1.301   .     S
Zn241  N270    2.037   .     S
Zn242  N269    2.037   .     S
C243   C249    1.401   .     A
C243   C399    1.416   1_455 S
C244   C248    1.409   .     A
C244   C250    1.396   .     A
C245   C253    1.399   .     A
C245   C399    1.395   1_455 S
C245   H417    1.085   1_455 S
C246   C254    1.400   .     A
C246   H266    1.085   .     S
C246   C248    1.387   .     A
C247   N274    1.433   .     S
C247   C321    1.395   .     S
C247   C319    1.416   .     S
C248   N347    1.432   .     S
C249   H264    1.081   .     S
C249   C251    1.401   .     A
C250   H263    1.070   .     S
C250   C252    1.405   .     A
C251   C255    1.422   .     A
C251   C253    1.405   .     A
C252   C254    1.413   .     A
C252   C256    1.432   .     A
C253   C943    1.380   .     S
C254   C944    1.379   1_554 S
C255   C258    1.427   .     A
C255   C940    1.431   .     S
C256   C257    1.436   .     A
C256   C939    1.431   1_554 S
C257   C259    1.400   .     A
C257   O277    1.382   .     S
C258   C260    1.405   .     A
C258   O285    1.402   .     S
C259   H261    1.084   .     S
C259   C937    1.380   1_554 S
C260   H262    1.078   .     S
C260   C938    1.379   .     S
H265   C321    1.085   .     S
C267   C648    1.350   1_455 S
C267   N521    1.436   .     S
N269   N299    1.380   .     S
N269   N270    1.312   .     D
N270   N302    1.382   .     S
N271   O272    1.298   .     A
N271   O273    1.301   .     A
N271   C400    1.432   1_455 S
N274   O276    1.301   .     A
N274   O275    1.301   .     A
O277   C278    1.420   .     S
C278   H280    1.106   .     S
C278   H279    1.117   .     S
C278   C281    1.518   .     S
C281   H282    1.105   .     S
C281   H283    1.109   .     S
C281   H284    1.109   .     S
O285   C286    1.414   .     S
C286   C289    1.535   .     S
H287   C514    1.105   .     S
H288   C514    1.110   .     S
C289   H292    1.107   .     S
C289   H291    1.110   .     S
H290   C517    1.109   .     S
N293   O294    1.302   .     A
O295   N521    1.294   .     S
N296   O297    1.302   .     A
N296   C496    1.443   .     S
N296   O526    1.296   .     S
N299   O300    1.298   .     A
N299   O301    1.299   .     A
N302   O304    1.300   .     A
N302   O303    1.298   .     A
O305   Zn317   1.959   .     S
O305   C385    1.276   .     S
O306   Zn318   1.959   .     S
O307   Zn318   1.976   .     S
O307   C309    1.300   .     A
O308   C310    1.301   .     A
O308   Zn317   1.976   .     S
C309   C343    1.407   .     S
C310   C344    1.415   .     S
C310   O382    1.279   .     S
O311   Zn317   1.970   .     S
O311   C391    1.303   .     S
O312   Zn318   1.970   .     S
O313   Zn318   1.915   .     S
O313   C315    1.310   .     A
O314   C316    1.306   .     A
O314   Zn317   1.915   .     S
C315   C319    1.471   .     S
C316   C320    1.461   .     S
C316   O388    1.301   .     S
Zn317  N346    2.037   .     S
Zn318  N345    2.037   .     S
C319   C325    1.401   .     A
C320   C324    1.409   .     A
C320   C326    1.396   .     A
C321   C329    1.399   .     A
C322   C330    1.400   .     A
C322   H342    1.085   .     S
C322   C324    1.387   .     A
C323   N350    1.433   .     S
C323   C397    1.395   .     S
C323   C395    1.416   .     S
C324   N423    1.432   .     S
C325   H340    1.081   .     S
C325   C327    1.401   .     A
C326   H339    1.070   .     S
C326   C328    1.405   .     A
C327   C331    1.422   .     A
C327   C329    1.405   .     A
C328   C330    1.413   .     A
C328   C332    1.432   .     A
C329   C1019   1.380   .     S
C330   C1020   1.379   1_554 S
C331   C334    1.427   .     A
C331   C1016   1.431   .     S
C332   C333    1.436   .     A
C332   C1015   1.431   1_554 S
C333   C335    1.400   .     A
C333   O353    1.382   .     S
C334   C336    1.405   .     A
C334   O361    1.402   .     S
C335   H337    1.084   .     S
C335   C1013   1.380   1_554 S
C336   H338    1.078   .     S
C336   C1014   1.379   .     S
H341   C397    1.085   .     S
C343   C496    1.350   .     S
C343   N597    1.436   .     S
N345   N375    1.380   .     S
N345   N346    1.312   .     D
N346   N378    1.382   .     S
N347   O348    1.298   .     A
N347   O349    1.301   .     A
N350   O352    1.301   .     A
N350   O351    1.301   .     A
O353   C354    1.420   .     S
C354   H356    1.106   .     S
C354   H355    1.117   .     S
C354   C357    1.518   .     S
C357   H358    1.105   .     S
C357   H359    1.109   .     S
C357   H360    1.109   .     S
O361   C362    1.414   .     S
C362   C365    1.535   .     S
H363   C590    1.105   .     S
H364   C590    1.110   .     S
C365   H368    1.107   .     S
C365   H367    1.110   .     S
H366   C593    1.109   .     S
N369   O370    1.302   .     A
O371   N597    1.294   .     S
N372   O373    1.302   .     A
N372   C572    1.443   .     S
N372   O602    1.296   .     S
N375   O376    1.298   .     A
N375   O377    1.299   .     A
N378   O380    1.300   .     A
N378   O379    1.298   .     A
O381   Zn393   1.959   .     S
O381   C233    1.276   1_655 S
O382   Zn394   1.959   .     S
O383   Zn394   1.976   .     S
O383   C385    1.300   .     A
O384   C386    1.301   .     A
O384   Zn393   1.976   .     S
C385   C419    1.407   .     S
C386   C420    1.415   .     S
C386   O230    1.279   1_655 S
O387   Zn393   1.970   .     S
O387   C239    1.303   1_655 S
O388   Zn394   1.970   .     S
O389   Zn394   1.915   .     S
O389   C391    1.310   .     A
O390   C392    1.306   .     A
O390   Zn393   1.915   .     S
C391   C395    1.471   .     S
C392   C396    1.461   .     S
C392   O236    1.301   1_655 S
Zn393  N422    2.037   .     S
Zn394  N421    2.037   .     S
C395   C401    1.401   .     A
C396   C400    1.409   .     A
C396   C402    1.396   .     A
C397   C405    1.399   .     A
C398   C406    1.400   .     A
C398   H418    1.085   .     S
C398   C400    1.387   .     A
C399   N426    1.433   .     S
C399   C245    1.395   1_655 S
C399   C243    1.416   1_655 S
C400   N271    1.432   1_655 S
C401   H416    1.081   .     S
C401   C403    1.401   .     A
C402   H415    1.070   .     S
C402   C404    1.405   .     A
C403   C407    1.422   .     A
C403   C405    1.405   .     A
C404   C406    1.413   .     A
C404   C408    1.432   .     A
C405   C1095   1.380   .     S
C406   C1096   1.379   1_554 S
C407   C410    1.427   .     A
C407   C1092   1.431   .     S
C408   C409    1.436   .     A
C408   C1091   1.431   1_554 S
C409   C411    1.400   .     A
C409   O429    1.382   .     S
C410   C412    1.405   .     A
C410   O437    1.402   .     S
C411   H413    1.084   .     S
C411   C1089   1.380   1_554 S
C412   H414    1.078   .     S
C412   C1090   1.379   .     S
H417   C245    1.085   1_655 S
C419   C572    1.350   .     S
C419   N673    1.436   .     S
C420   C39     1.350   1_655 S
N421   N451    1.380   .     S
N421   N422    1.312   .     D
N422   N454    1.382   .     S
N423   O424    1.298   .     A
N423   O425    1.301   .     A
N426   O428    1.301   .     A
N426   O427    1.301   .     A
O429   C430    1.420   .     S
C430   H432    1.106   .     S
C430   H431    1.117   .     S
C430   C433    1.518   .     S
C433   H434    1.105   .     S
C433   H435    1.109   .     S
C433   H436    1.109   .     S
O437   C438    1.414   .     S
C438   C441    1.535   .     S
H439   C666    1.105   .     S
H440   C666    1.110   .     S
C441   H444    1.107   .     S
C441   H443    1.110   .     S
H442   C669    1.109   .     S
N445   O446    1.302   .     A
O447   N673    1.294   .     S
N448   O449    1.302   .     A
N448   C648    1.443   .     S
N448   O678    1.296   .     S
N451   O452    1.298   .     A
N451   O453    1.299   .     A
N454   O456    1.300   .     A
N454   O455    1.298   .     A
O457   Zn469   1.959   .     S
O457   C537    1.276   .     S
O458   Zn470   1.959   .     S
O458   C614    1.279   1_455 S
O459   Zn470   1.976   .     S
O459   C461    1.300   .     A
O460   C462    1.301   .     A
O460   Zn469   1.976   .     S
C461   C495    1.407   .     S
C461   O609    1.276   1_455 S
C462   C496    1.415   .     S
C462   O534    1.279   .     S
O463   Zn469   1.970   .     S
O463   C543    1.303   .     S
O464   Zn470   1.970   .     S
O464   C620    1.301   1_455 S
O465   Zn470   1.915   .     S
O465   C467    1.310   .     A
O466   C468    1.306   .     A
O466   Zn469   1.915   .     S
C467   C471    1.471   .     S
C467   O615    1.303   1_455 S
C468   C472    1.461   .     S
C468   O540    1.301   .     S
Zn469  N498    2.037   .     S
Zn470  N497    2.037   .     S
C471   C477    1.401   .     A
C471   C627    1.416   1_455 S
C472   C476    1.409   .     A
C472   C478    1.396   .     A
C473   C481    1.399   .     A
C473   C627    1.395   1_455 S
C473   H645    1.085   1_455 S
C474   C482    1.400   .     A
C474   H494    1.085   .     S
C474   C476    1.387   .     A
C475   N502    1.433   .     S
C475   C549    1.395   .     S
C475   C547    1.416   .     S
C476   N575    1.432   .     S
C477   H492    1.081   .     S
C477   C479    1.401   .     A
C478   H491    1.070   .     S
C478   C480    1.405   .     A
C479   C483    1.422   .     A
C479   C481    1.405   .     A
C480   C482    1.413   .     A
C480   C484    1.432   .     A
C481   C1171   1.380   .     S
C482   C1172   1.379   1_554 S
C483   C486    1.427   .     A
C483   C1168   1.431   .     S
C484   C485    1.436   .     A
C484   C1167   1.431   1_554 S
C485   C487    1.400   .     A
C485   O505    1.382   .     S
C486   C488    1.405   .     A
C486   O513    1.402   .     S
C487   H489    1.084   .     S
C487   C1165   1.380   1_554 S
C488   H490    1.078   .     S
C488   C1166   1.379   .     S
H493   C549    1.085   .     S
C495   C192    1.350   1_465 S
C495   N65     1.436   1_565 S
N497   N527    1.380   .     S
N497   N498    1.312   .     D
N498   N530    1.382   .     S
N499   O500    1.298   .     A
N499   O501    1.301   .     A
N499   C628    1.432   1_455 S
N502   O504    1.301   .     A
N502   O503    1.301   .     A
O505   C506    1.420   .     S
C506   H508    1.106   .     S
C506   H507    1.117   .     S
C506   C509    1.518   .     S
C509   H510    1.105   .     S
C509   H511    1.109   .     S
C509   H512    1.109   .     S
O513   C514    1.414   .     S
C514   C517    1.535   .     S
H515   C58     1.105   1_565 S
H516   C58     1.110   1_565 S
C517   H520    1.107   .     S
C517   H519    1.110   .     S
H518   C61     1.109   1_565 S
N521   O522    1.302   .     A
O523   N65     1.294   1_565 S
N524   O525    1.302   .     A
N524   C40     1.443   1_565 S
N524   O70     1.296   1_565 S
N527   O528    1.298   .     A
N527   O529    1.299   .     A
N530   O532    1.300   .     A
N530   O531    1.298   .     A
O533   Zn545   1.959   .     S
O533   C613    1.276   .     S
O534   Zn546   1.959   .     S
O535   Zn546   1.976   .     S
O535   C537    1.300   .     A
O536   C538    1.301   .     A
O536   Zn545   1.976   .     S
C537   C571    1.407   .     S
C538   C572    1.415   .     S
C538   O610    1.279   .     S
O539   Zn545   1.970   .     S
O539   C619    1.303   .     S
O540   Zn546   1.970   .     S
O541   Zn546   1.915   .     S
O541   C543    1.310   .     A
O542   C544    1.306   .     A
O542   Zn545   1.915   .     S
C543   C547    1.471   .     S
C544   C548    1.461   .     S
C544   O616    1.301   .     S
Zn545  N574    2.037   .     S
Zn546  N573    2.037   .     S
C547   C553    1.401   .     A
C548   C552    1.409   .     A
C548   C554    1.396   .     A
C549   C557    1.399   .     A
C550   C558    1.400   .     A
C550   H570    1.085   .     S
C550   C552    1.387   .     A
C551   N578    1.433   .     S
C551   C625    1.395   .     S
C551   C623    1.416   .     S
C552   N651    1.432   .     S
C553   H568    1.081   .     S
C553   C555    1.401   .     A
C554   H567    1.070   .     S
C554   C556    1.405   .     A
C555   C559    1.422   .     A
C555   C557    1.405   .     A
C556   C558    1.413   .     A
C556   C560    1.432   .     A
C557   C1247   1.380   .     S
C558   C1248   1.379   1_554 S
C559   C562    1.427   .     A
C559   C1244   1.431   .     S
C560   C561    1.436   .     A
C560   C1243   1.431   1_554 S
C561   C563    1.400   .     A
C561   O581    1.382   .     S
C562   C564    1.405   .     A
C562   O589    1.402   .     S
C563   H565    1.084   .     S
C563   C1241   1.380   1_554 S
C564   H566    1.078   .     S
C564   C1242   1.379   .     S
H569   C625    1.085   .     S
C571   C40     1.350   1_565 S
C571   N141    1.436   1_565 S
N573   N603    1.380   .     S
N573   N574    1.312   .     D
N574   N606    1.382   .     S
N575   O576    1.298   .     A
N575   O577    1.301   .     A
N578   O580    1.301   .     A
N578   O579    1.301   .     A
O581   C582    1.420   .     S
C582   H584    1.106   .     S
C582   H583    1.117   .     S
C582   C585    1.518   .     S
C585   H586    1.105   .     S
C585   H587    1.109   .     S
C585   H588    1.109   .     S
O589   C590    1.414   .     S
C590   C593    1.535   .     S
H591   C134    1.105   1_565 S
H592   C134    1.110   1_565 S
C593   H596    1.107   .     S
C593   H595    1.110   .     S
H594   C137    1.109   1_565 S
N597   O598    1.302   .     A
O599   N141    1.294   1_565 S
N600   O601    1.302   .     A
N600   C116    1.443   1_565 S
N600   O146    1.296   1_565 S
N603   O604    1.298   .     A
N603   O605    1.299   .     A
N606   O608    1.300   .     A
N606   O607    1.298   .     A
O609   Zn621   1.959   .     S
O609   C461    1.276   1_655 S
O610   Zn622   1.959   .     S
O611   Zn622   1.976   .     S
O611   C613    1.300   .     A
O612   C614    1.301   .     A
O612   Zn621   1.976   .     S
C613   C647    1.407   .     S
C614   C648    1.415   .     S
C614   O458    1.279   1_655 S
O615   Zn621   1.970   .     S
O615   C467    1.303   1_655 S
O616   Zn622   1.970   .     S
O617   Zn622   1.915   .     S
O617   C619    1.310   .     A
O618   C620    1.306   .     A
O618   Zn621   1.915   .     S
C619   C623    1.471   .     S
C620   C624    1.461   .     S
C620   O464    1.301   1_655 S
Zn621  N650    2.037   .     S
Zn622  N649    2.037   .     S
C623   C629    1.401   .     A
C624   C628    1.409   .     A
C624   C630    1.396   .     A
C625   C633    1.399   .     A
C626   C634    1.400   .     A
C626   H646    1.085   .     S
C626   C628    1.387   .     A
C627   N654    1.433   .     S
C627   C473    1.395   1_655 S
C627   C471    1.416   1_655 S
C628   N499    1.432   1_655 S
C629   H644    1.081   .     S
C629   C631    1.401   .     A
C630   H643    1.070   .     S
C630   C632    1.405   .     A
C631   C635    1.422   .     A
C631   C633    1.405   .     A
C632   C634    1.413   .     A
C632   C636    1.432   .     A
C633   C1323   1.380   .     S
C634   C1324   1.379   1_554 S
C635   C638    1.427   .     A
C635   C1320   1.431   .     S
C636   C637    1.436   .     A
C636   C1319   1.431   1_554 S
C637   C639    1.400   .     A
C637   O657    1.382   .     S
C638   C640    1.405   .     A
C638   O665    1.402   .     S
C639   H641    1.084   .     S
C639   C1317   1.380   1_554 S
C640   H642    1.078   .     S
C640   C1318   1.379   .     S
H645   C473    1.085   1_655 S
C647   C116    1.350   1_565 S
C647   N217    1.436   1_565 S
C648   C267    1.350   1_655 S
N649   N679    1.380   .     S
N649   N650    1.312   .     D
N650   N682    1.382   .     S
N651   O652    1.298   .     A
N651   O653    1.301   .     A
N654   O656    1.301   .     A
N654   O655    1.301   .     A
O657   C658    1.420   .     S
C658   H660    1.106   .     S
C658   H659    1.117   .     S
C658   C661    1.518   .     S
C661   H662    1.105   .     S
C661   H663    1.109   .     S
C661   H664    1.109   .     S
O665   C666    1.414   .     S
C666   C669    1.535   .     S
H667   C210    1.105   1_565 S
H668   C210    1.110   1_565 S
C669   H672    1.107   .     S
C669   H671    1.110   .     S
H670   C213    1.109   1_565 S
N673   O674    1.302   .     A
O675   N217    1.294   1_565 S
N676   O677    1.302   .     A
N676   C192    1.443   1_565 S
N676   O222    1.296   1_565 S
N679   O680    1.298   .     A
N679   O681    1.299   .     A
N682   O684    1.300   .     A
N682   O683    1.298   .     A
O685   Zn697   1.959   .     S
O685   C765    1.276   .     S
O686   Zn698   1.959   .     S
O686   C842    1.279   1_455 S
O687   Zn698   1.976   .     S
O687   C689    1.300   .     A
O688   C690    1.301   .     A
O688   Zn697   1.976   .     S
C689   C723    1.407   .     S
C689   O837    1.276   1_455 S
C690   C724    1.415   .     S
C690   O762    1.279   .     S
O691   Zn697   1.970   .     S
O691   C771    1.303   .     S
O692   Zn698   1.970   .     S
O692   C848    1.301   1_455 S
O693   Zn698   1.915   .     S
O693   C695    1.310   .     A
O694   C696    1.306   .     A
O694   Zn697   1.915   .     S
C695   C699    1.471   .     S
C695   O843    1.303   1_455 S
C696   C700    1.461   .     S
C696   O768    1.301   .     S
Zn697  N726    2.037   .     S
Zn698  N725    2.037   .     S
C699   C705    1.401   .     A
C699   C855    1.416   1_455 S
C700   C704    1.409   .     A
C700   C706    1.396   .     A
C701   C709    1.399   .     A
C701   C855    1.395   1_455 S
C701   H873    1.085   1_455 S
C702   C710    1.400   .     A
C702   H722    1.085   .     S
C702   C704    1.387   .     A
C703   N730    1.433   .     S
C703   C777    1.395   .     S
C703   C775    1.416   .     S
C704   N803    1.432   .     S
C705   H720    1.081   .     S
C705   C707    1.401   .     A
C706   H719    1.070   .     S
C706   C708    1.405   .     A
C707   C711    1.422   .     A
C707   C709    1.405   .     A
C708   C710    1.413   .     A
C708   C712    1.432   .     A
C709   C31     1.380   1_556 S
C711   C714    1.427   .     A
C711   C28     1.431   1_556 S
C712   C713    1.436   .     A
C713   C715    1.400   .     A
C713   O733    1.382   .     S
C714   C716    1.405   .     A
C714   O741    1.402   .     S
C715   H717    1.084   .     S
C716   H718    1.078   .     S
C716   C26     1.379   1_556 S
H721   C777    1.085   .     S
C723   C1104   1.350   1_455 S
C723   N977    1.436   .     S
C724   C1255   1.350   1_545 S
C724   N1208   1.443   1_545 S
N725   N755    1.380   .     S
N725   N726    1.312   .     D
N726   N758    1.382   .     S
N727   O728    1.298   .     A
N727   O729    1.301   .     A
N727   C856    1.432   1_455 S
N730   O732    1.301   .     A
N730   O731    1.301   .     A
O733   C734    1.420   .     S
C734   H736    1.106   .     S
C734   H735    1.117   .     S
C734   C737    1.518   .     S
C737   H738    1.105   .     S
C737   H739    1.109   .     S
C737   H740    1.109   .     S
O741   C742    1.414   .     S
C742   C745    1.535   .     S
C742   H1199   1.105   1_545 S
C742   H1200   1.110   1_545 S
H743   C970    1.105   .     S
H744   C970    1.110   .     S
C745   H748    1.107   .     S
C745   H747    1.110   .     S
C745   H1202   1.109   1_545 S
H746   C973    1.109   .     S
N749   O750    1.302   .     A
N749   C1179   1.436   1_545 S
N749   O1207   1.294   1_545 S
O751   N977    1.294   .     S
N752   O753    1.302   .     A
N752   C952    1.443   .     S
N752   O982    1.296   .     S
O754   N1208   1.296   1_545 S
N755   O756    1.298   .     A
N755   O757    1.299   .     A
N758   O760    1.300   .     A
N758   O759    1.298   .     A
O761   Zn773   1.959   .     S
O761   C841    1.276   .     S
O762   Zn774   1.959   .     S
O763   Zn774   1.976   .     S
O763   C765    1.300   .     A
O764   C766    1.301   .     A
O764   Zn773   1.976   .     S
C765   C799    1.407   .     S
C766   C800    1.415   .     S
C766   O838    1.279   .     S
O767   Zn773   1.970   .     S
O767   C847    1.303   .     S
O768   Zn774   1.970   .     S
O769   Zn774   1.915   .     S
O769   C771    1.310   .     A
O770   C772    1.306   .     A
O770   Zn773   1.915   .     S
C771   C775    1.471   .     S
C772   C776    1.461   .     S
C772   O844    1.301   .     S
Zn773  N802    2.037   .     S
Zn774  N801    2.037   .     S
C775   C781    1.401   .     A
C776   C780    1.409   .     A
C776   C782    1.396   .     A
C777   C785    1.399   .     A
C778   C786    1.400   .     A
C778   H798    1.085   .     S
C778   C780    1.387   .     A
C779   N806    1.433   .     S
C779   C853    1.395   .     S
C779   C851    1.416   .     S
C780   N879    1.432   .     S
C781   H796    1.081   .     S
C781   C783    1.401   .     A
C782   H795    1.070   .     S
C782   C784    1.405   .     A
C783   C787    1.422   .     A
C783   C785    1.405   .     A
C784   C786    1.413   .     A
C784   C788    1.432   .     A
C785   C107    1.380   1_556 S
C787   C790    1.427   .     A
C787   C104    1.431   1_556 S
C788   C789    1.436   .     A
C789   C791    1.400   .     A
C789   O809    1.382   .     S
C790   C792    1.405   .     A
C790   O817    1.402   .     S
C791   H793    1.084   .     S
C792   H794    1.078   .     S
C792   C102    1.379   1_556 S
H797   C853    1.085   .     S
C799   C952    1.350   .     S
C799   N1053   1.436   .     S
C800   C1331   1.350   1_545 S
C800   N1284   1.443   1_545 S
N801   N831    1.380   .     S
N801   N802    1.312   .     D
N802   N834    1.382   .     S
N803   O804    1.298   .     A
N803   O805    1.301   .     A
N806   O808    1.301   .     A
N806   O807    1.301   .     A
O809   C810    1.420   .     S
C810   H812    1.106   .     S
C810   H811    1.117   .     S
C810   C813    1.518   .     S
C813   H814    1.105   .     S
C813   H815    1.109   .     S
C813   H816    1.109   .     S
O817   C818    1.414   .     S
C818   C821    1.535   .     S
C818   H1275   1.105   1_545 S
C818   H1276   1.110   1_545 S
H819   C1046   1.105   .     S
H820   C1046   1.110   .     S
C821   H824    1.107   .     S
C821   H823    1.110   .     S
C821   H1278   1.109   1_545 S
H822   C1049   1.109   .     S
N825   O826    1.302   .     A
N825   C1255   1.436   1_545 S
N825   O1283   1.294   1_545 S
O827   N1053   1.294   .     S
N828   O829    1.302   .     A
N828   C1028   1.443   .     S
N828   O1058   1.296   .     S
O830   N1284   1.296   1_545 S
N831   O832    1.298   .     A
N831   O833    1.299   .     A
N834   O836    1.300   .     A
N834   O835    1.298   .     A
O837   Zn849   1.959   .     S
O837   C689    1.276   1_655 S
O838   Zn850   1.959   .     S
O839   Zn850   1.976   .     S
O839   C841    1.300   .     A
O840   C842    1.301   .     A
O840   Zn849   1.976   .     S
C841   C875    1.407   .     S
C842   C876    1.415   .     S
C842   O686    1.279   1_655 S
O843   Zn849   1.970   .     S
O843   C695    1.303   1_655 S
O844   Zn850   1.970   .     S
O845   Zn850   1.915   .     S
O845   C847    1.310   .     A
O846   C848    1.306   .     A
O846   Zn849   1.915   .     S
C847   C851    1.471   .     S
C848   C852    1.461   .     S
C848   O692    1.301   1_655 S
Zn849  N878    2.037   .     S
Zn850  N877    2.037   .     S
C851   C857    1.401   .     A
C852   C856    1.409   .     A
C852   C858    1.396   .     A
C853   C861    1.399   .     A
C854   C862    1.400   .     A
C854   H874    1.085   .     S
C854   C856    1.387   .     A
C855   N882    1.433   .     S
C855   C701    1.395   1_655 S
C855   C699    1.416   1_655 S
C856   N727    1.432   1_655 S
C857   H872    1.081   .     S
C857   C859    1.401   .     A
C858   H871    1.070   .     S
C858   C860    1.405   .     A
C859   C863    1.422   .     A
C859   C861    1.405   .     A
C860   C862    1.413   .     A
C860   C864    1.432   .     A
C861   C183    1.380   1_556 S
C863   C866    1.427   .     A
C863   C180    1.431   1_556 S
C864   C865    1.436   .     A
C865   C867    1.400   .     A
C865   O885    1.382   .     S
C866   C868    1.405   .     A
C866   O893    1.402   .     S
C867   H869    1.084   .     S
C868   H870    1.078   .     S
C868   C178    1.379   1_556 S
H873   C701    1.085   1_655 S
C875   C1028   1.350   .     S
C875   N1129   1.436   .     S
C876   C1179   1.350   1_645 S
C876   N1360   1.443   1_545 S
N877   N907    1.380   .     S
N877   N878    1.312   .     D
N878   N910    1.382   .     S
N879   O880    1.298   .     A
N879   O881    1.301   .     A
N882   O884    1.301   .     A
N882   O883    1.301   .     A
O885   C886    1.420   .     S
C886   H888    1.106   .     S
C886   H887    1.117   .     S
C886   C889    1.518   .     S
C889   H890    1.105   .     S
C889   H891    1.109   .     S
C889   H892    1.109   .     S
O893   C894    1.414   .     S
C894   C897    1.535   .     S
C894   H1351   1.105   1_545 S
C894   H1352   1.110   1_545 S
H895   C1122   1.105   .     S
H896   C1122   1.110   .     S
C897   H900    1.107   .     S
C897   H899    1.110   .     S
C897   H1354   1.109   1_545 S
H898   C1125   1.109   .     S
N901   O902    1.302   .     A
N901   C1331   1.436   1_545 S
N901   O1359   1.294   1_545 S
O903   N1129   1.294   .     S
N904   O905    1.302   .     A
N904   C1104   1.443   .     S
N904   O1134   1.296   .     S
O906   N1360   1.296   1_545 S
N907   O908    1.298   .     A
N907   O909    1.299   .     A
N910   O912    1.300   .     A
N910   O911    1.298   .     A
O913   Zn925   1.959   .     S
O913   C993    1.276   .     S
O914   Zn926   1.959   .     S
O914   C1070   1.279   1_455 S
O915   Zn926   1.976   .     S
O915   C917    1.300   .     A
O916   C918    1.301   .     A
O916   Zn925   1.976   .     S
C917   C951    1.407   .     S
C917   O1065   1.276   1_455 S
C918   C952    1.415   .     S
C918   O990    1.279   .     S
O919   Zn925   1.970   .     S
O919   C999    1.303   .     S
O920   Zn926   1.970   .     S
O920   C1076   1.301   1_455 S
O921   Zn926   1.915   .     S
O921   C923    1.310   .     A
O922   C924    1.306   .     A
O922   Zn925   1.915   .     S
C923   C927    1.471   .     S
C923   O1071   1.303   1_455 S
C924   C928    1.461   .     S
C924   O996    1.301   .     S
Zn925  N954    2.037   .     S
Zn926  N953    2.037   .     S
C927   C933    1.401   .     A
C927   C1083   1.416   1_455 S
C928   C932    1.409   .     A
C928   C934    1.396   .     A
C929   C937    1.399   .     A
C929   C1083   1.395   1_455 S
C929   H1101   1.085   1_455 S
C930   C938    1.400   .     A
C930   H950    1.085   .     S
C930   C932    1.387   .     A
C931   N958    1.433   .     S
C931   C1005   1.395   .     S
C931   C1003   1.416   .     S
C932   N1031   1.432   .     S
C933   H948    1.081   .     S
C933   C935    1.401   .     A
C934   H947    1.070   .     S
C934   C936    1.405   .     A
C935   C939    1.422   .     A
C935   C937    1.405   .     A
C936   C938    1.413   .     A
C936   C940    1.432   .     A
C937   C259    1.380   1_556 S
C939   C942    1.427   .     A
C939   C256    1.431   1_556 S
C940   C941    1.436   .     A
C941   C943    1.400   .     A
C941   O961    1.382   .     S
C942   C944    1.405   .     A
C942   O969    1.402   .     S
C943   H945    1.084   .     S
C944   H946    1.078   .     S
C944   C254    1.379   1_556 S
H949   C1005   1.085   .     S
C951   C1332   1.350   1_455 S
C951   N1205   1.436   .     S
N953   N983    1.380   .     S
N953   N954    1.312   .     D
N954   N986    1.382   .     S
N955   O956    1.298   .     A
N955   O957    1.301   .     A
N955   C1084   1.432   1_455 S
N958   O960    1.301   .     A
N958   O959    1.301   .     A
O961   C962    1.420   .     S
C962   H964    1.106   .     S
C962   H963    1.117   .     S
C962   C965    1.518   .     S
C965   H966    1.105   .     S
C965   H967    1.109   .     S
C965   H968    1.109   .     S
O969   C970    1.414   .     S
C970   C973    1.535   .     S
H971   C1198   1.105   .     S
H972   C1198   1.110   .     S
C973   H976    1.107   .     S
C973   H975    1.110   .     S
H974   C1201   1.109   .     S
N977   O978    1.302   .     A
O979   N1205   1.294   .     S
N980   O981    1.302   .     A
N980   C1180   1.443   .     S
N980   O1210   1.296   .     S
N983   O984    1.298   .     A
N983   O985    1.299   .     A
N986   O988    1.300   .     A
N986   O987    1.298   .     A
O989   Zn1001  1.959   .     S
O989   C1069   1.276   .     S
O990   Zn1002  1.959   .     S
O991   Zn1002  1.976   .     S
O991   C993    1.300   .     A
O992   C994    1.301   .     A
O992   Zn1001  1.976   .     S
C993   C1027   1.407   .     S
C994   C1028   1.415   .     S
C994   O1066   1.279   .     S
O995   Zn1001  1.970   .     S
O995   C1075   1.303   .     S
O996   Zn1002  1.970   .     S
O997   Zn1002  1.915   .     S
O997   C999    1.310   .     A
O998   C1000   1.306   .     A
O998   Zn1001  1.915   .     S
C999   C1003   1.471   .     S
C1000  C1004   1.461   .     S
C1000  O1072   1.301   .     S
Zn1001 N1030   2.037   .     S
Zn1002 N1029   2.037   .     S
C1003  C1009   1.401   .     A
C1004  C1008   1.409   .     A
C1004  C1010   1.396   .     A
C1005  C1013   1.399   .     A
C1006  C1014   1.400   .     A
C1006  H1026   1.085   .     S
C1006  C1008   1.387   .     A
C1007  N1034   1.433   .     S
C1007  C1081   1.395   .     S
C1007  C1079   1.416   .     S
C1008  N1107   1.432   .     S
C1009  H1024   1.081   .     S
C1009  C1011   1.401   .     A
C1010  H1023   1.070   .     S
C1010  C1012   1.405   .     A
C1011  C1015   1.422   .     A
C1011  C1013   1.405   .     A
C1012  C1014   1.413   .     A
C1012  C1016   1.432   .     A
C1013  C335    1.380   1_556 S
C1015  C1018   1.427   .     A
C1015  C332    1.431   1_556 S
C1016  C1017   1.436   .     A
C1017  C1019   1.400   .     A
C1017  O1037   1.382   .     S
C1018  C1020   1.405   .     A
C1018  O1045   1.402   .     S
C1019  H1021   1.084   .     S
C1020  H1022   1.078   .     S
C1020  C330    1.379   1_556 S
H1025  C1081   1.085   .     S
C1027  C1180   1.350   .     S
C1027  N1281   1.436   .     S
N1029  N1059   1.380   .     S
N1029  N1030   1.312   .     D
N1030  N1062   1.382   .     S
N1031  O1032   1.298   .     A
N1031  O1033   1.301   .     A
N1034  O1036   1.301   .     A
N1034  O1035   1.301   .     A
O1037  C1038   1.420   .     S
C1038  H1040   1.106   .     S
C1038  H1039   1.117   .     S
C1038  C1041   1.518   .     S
C1041  H1042   1.105   .     S
C1041  H1043   1.109   .     S
C1041  H1044   1.109   .     S
O1045  C1046   1.414   .     S
C1046  C1049   1.535   .     S
H1047  C1274   1.105   .     S
H1048  C1274   1.110   .     S
C1049  H1052   1.107   .     S
C1049  H1051   1.110   .     S
H1050  C1277   1.109   .     S
N1053  O1054   1.302   .     A
O1055  N1281   1.294   .     S
N1056  O1057   1.302   .     A
N1056  C1256   1.443   .     S
N1056  O1286   1.296   .     S
N1059  O1060   1.298   .     A
N1059  O1061   1.299   .     A
N1062  O1064   1.300   .     A
N1062  O1063   1.298   .     A
O1065  Zn1077  1.959   .     S
O1065  C917    1.276   1_655 S
O1066  Zn1078  1.959   .     S
O1067  Zn1078  1.976   .     S
O1067  C1069   1.300   .     A
O1068  C1070   1.301   .     A
O1068  Zn1077  1.976   .     S
C1069  C1103   1.407   .     S
C1070  C1104   1.415   .     S
C1070  O914    1.279   1_655 S
O1071  Zn1077  1.970   .     S
O1071  C923    1.303   1_655 S
O1072  Zn1078  1.970   .     S
O1073  Zn1078  1.915   .     S
O1073  C1075   1.310   .     A
O1074  C1076   1.306   .     A
O1074  Zn1077  1.915   .     S
C1075  C1079   1.471   .     S
C1076  C1080   1.461   .     S
C1076  O920    1.301   1_655 S
Zn1077 N1106   2.037   .     S
Zn1078 N1105   2.037   .     S
C1079  C1085   1.401   .     A
C1080  C1084   1.409   .     A
C1080  C1086   1.396   .     A
C1081  C1089   1.399   .     A
C1082  C1090   1.400   .     A
C1082  H1102   1.085   .     S
C1082  C1084   1.387   .     A
C1083  N1110   1.433   .     S
C1083  C929    1.395   1_655 S
C1083  C927    1.416   1_655 S
C1084  N955    1.432   1_655 S
C1085  H1100   1.081   .     S
C1085  C1087   1.401   .     A
C1086  H1099   1.070   .     S
C1086  C1088   1.405   .     A
C1087  C1091   1.422   .     A
C1087  C1089   1.405   .     A
C1088  C1090   1.413   .     A
C1088  C1092   1.432   .     A
C1089  C411    1.380   1_556 S
C1091  C1094   1.427   .     A
C1091  C408    1.431   1_556 S
C1092  C1093   1.436   .     A
C1093  C1095   1.400   .     A
C1093  O1113   1.382   .     S
C1094  C1096   1.405   .     A
C1094  O1121   1.402   .     S
C1095  H1097   1.084   .     S
C1096  H1098   1.078   .     S
C1096  C406    1.379   1_556 S
H1101  C929    1.085   1_655 S
C1103  C1256   1.350   .     S
C1103  N1357   1.436   .     S
C1104  C723    1.350   1_655 S
N1105  N1135   1.380   .     S
N1105  N1106   1.312   .     D
N1106  N1138   1.382   .     S
N1107  O1108   1.298   .     A
N1107  O1109   1.301   .     A
N1110  O1112   1.301   .     A
N1110  O1111   1.301   .     A
O1113  C1114   1.420   .     S
C1114  H1116   1.106   .     S
C1114  H1115   1.117   .     S
C1114  C1117   1.518   .     S
C1117  H1118   1.105   .     S
C1117  H1119   1.109   .     S
C1117  H1120   1.109   .     S
O1121  C1122   1.414   .     S
C1122  C1125   1.535   .     S
H1123  C1350   1.105   .     S
H1124  C1350   1.110   .     S
C1125  H1128   1.107   .     S
C1125  H1127   1.110   .     S
H1126  C1353   1.109   .     S
N1129  O1130   1.302   .     A
O1131  N1357   1.294   .     S
N1132  O1133   1.302   .     A
N1132  C1332   1.443   .     S
N1132  O1362   1.296   .     S
N1135  O1136   1.298   .     A
N1135  O1137   1.299   .     A
N1138  O1140   1.300   .     A
N1138  O1139   1.298   .     A
O1141  Zn1153  1.959   .     S
O1141  C1221   1.276   .     S
O1142  Zn1154  1.959   .     S
O1142  C1298   1.279   1_455 S
O1143  Zn1154  1.976   .     S
O1143  C1145   1.300   .     A
O1144  C1146   1.301   .     A
O1144  Zn1153  1.976   .     S
C1145  C1179   1.407   .     S
C1145  O1293   1.276   1_455 S
C1146  C1180   1.415   .     S
C1146  O1218   1.279   .     S
O1147  Zn1153  1.970   .     S
O1147  C1227   1.303   .     S
O1148  Zn1154  1.970   .     S
O1148  C1304   1.301   1_455 S
O1149  Zn1154  1.915   .     S
O1149  C1151   1.310   .     A
O1150  C1152   1.306   .     A
O1150  Zn1153  1.915   .     S
C1151  C1155   1.471   .     S
C1151  O1299   1.303   1_455 S
C1152  C1156   1.461   .     S
C1152  O1224   1.301   .     S
Zn1153 N1182   2.037   .     S
Zn1154 N1181   2.037   .     S
C1155  C1161   1.401   .     A
C1155  C1311   1.416   1_455 S
C1156  C1160   1.409   .     A
C1156  C1162   1.396   .     A
C1157  C1165   1.399   .     A
C1157  C1311   1.395   1_455 S
C1157  H1329   1.085   1_455 S
C1158  C1166   1.400   .     A
C1158  H1178   1.085   .     S
C1158  C1160   1.387   .     A
C1159  N1186   1.433   .     S
C1159  C1233   1.395   .     S
C1159  C1231   1.416   .     S
C1160  N1259   1.432   .     S
C1161  H1176   1.081   .     S
C1161  C1163   1.401   .     A
C1162  H1175   1.070   .     S
C1162  C1164   1.405   .     A
C1163  C1167   1.422   .     A
C1163  C1165   1.405   .     A
C1164  C1166   1.413   .     A
C1164  C1168   1.432   .     A
C1165  C487    1.380   1_556 S
C1167  C1170   1.427   .     A
C1167  C484    1.431   1_556 S
C1168  C1169   1.436   .     A
C1169  C1171   1.400   .     A
C1169  O1189   1.382   .     S
C1170  C1172   1.405   .     A
C1170  O1197   1.402   .     S
C1171  H1173   1.084   .     S
C1172  H1174   1.078   .     S
C1172  C482    1.379   1_556 S
H1177  C1233   1.085   .     S
C1179  C876    1.350   1_465 S
C1179  N749    1.436   1_565 S
N1181  N1211   1.380   .     S
N1181  N1182   1.312   .     D
N1182  N1214   1.382   .     S
N1183  O1184   1.298   .     A
N1183  O1185   1.301   .     A
N1183  C1312   1.432   1_455 S
N1186  O1188   1.301   .     A
N1186  O1187   1.301   .     A
O1189  C1190   1.420   .     S
C1190  H1192   1.106   .     S
C1190  H1191   1.117   .     S
C1190  C1193   1.518   .     S
C1193  H1194   1.105   .     S
C1193  H1195   1.109   .     S
C1193  H1196   1.109   .     S
O1197  C1198   1.414   .     S
C1198  C1201   1.535   .     S
H1199  C742    1.105   1_565 S
H1200  C742    1.110   1_565 S
C1201  H1204   1.107   .     S
C1201  H1203   1.110   .     S
H1202  C745    1.109   1_565 S
N1205  O1206   1.302   .     A
O1207  N749    1.294   1_565 S
N1208  O1209   1.302   .     A
N1208  C724    1.443   1_565 S
N1208  O754    1.296   1_565 S
N1211  O1212   1.298   .     A
N1211  O1213   1.299   .     A
N1214  O1216   1.300   .     A
N1214  O1215   1.298   .     A
O1217  Zn1229  1.959   .     S
O1217  C1297   1.276   .     S
O1218  Zn1230  1.959   .     S
O1219  Zn1230  1.976   .     S
O1219  C1221   1.300   .     A
O1220  C1222   1.301   .     A
O1220  Zn1229  1.976   .     S
C1221  C1255   1.407   .     S
C1222  C1256   1.415   .     S
C1222  O1294   1.279   .     S
O1223  Zn1229  1.970   .     S
O1223  C1303   1.303   .     S
O1224  Zn1230  1.970   .     S
O1225  Zn1230  1.915   .     S
O1225  C1227   1.310   .     A
O1226  C1228   1.306   .     A
O1226  Zn1229  1.915   .     S
C1227  C1231   1.471   .     S
C1228  C1232   1.461   .     S
C1228  O1300   1.301   .     S
Zn1229 N1258   2.037   .     S
Zn1230 N1257   2.037   .     S
C1231  C1237   1.401   .     A
C1232  C1236   1.409   .     A
C1232  C1238   1.396   .     A
C1233  C1241   1.399   .     A
C1234  C1242   1.400   .     A
C1234  H1254   1.085   .     S
C1234  C1236   1.387   .     A
C1235  N1262   1.433   .     S
C1235  C1309   1.395   .     S
C1235  C1307   1.416   .     S
C1236  N1335   1.432   .     S
C1237  H1252   1.081   .     S
C1237  C1239   1.401   .     A
C1238  H1251   1.070   .     S
C1238  C1240   1.405   .     A
C1239  C1243   1.422   .     A
C1239  C1241   1.405   .     A
C1240  C1242   1.413   .     A
C1240  C1244   1.432   .     A
C1241  C563    1.380   1_556 S
C1243  C1246   1.427   .     A
C1243  C560    1.431   1_556 S
C1244  C1245   1.436   .     A
C1245  C1247   1.400   .     A
C1245  O1265   1.382   .     S
C1246  C1248   1.405   .     A
C1246  O1273   1.402   .     S
C1247  H1249   1.084   .     S
C1248  H1250   1.078   .     S
C1248  C558    1.379   1_556 S
H1253  C1309   1.085   .     S
C1255  C724    1.350   1_565 S
C1255  N825    1.436   1_565 S
N1257  N1287   1.380   .     S
N1257  N1258   1.312   .     D
N1258  N1290   1.382   .     S
N1259  O1260   1.298   .     A
N1259  O1261   1.301   .     A
N1262  O1264   1.301   .     A
N1262  O1263   1.301   .     A
O1265  C1266   1.420   .     S
C1266  H1268   1.106   .     S
C1266  H1267   1.117   .     S
C1266  C1269   1.518   .     S
C1269  H1270   1.105   .     S
C1269  H1271   1.109   .     S
C1269  H1272   1.109   .     S
O1273  C1274   1.414   .     S
C1274  C1277   1.535   .     S
H1275  C818    1.105   1_565 S
H1276  C818    1.110   1_565 S
C1277  H1280   1.107   .     S
C1277  H1279   1.110   .     S
H1278  C821    1.109   1_565 S
N1281  O1282   1.302   .     A
O1283  N825    1.294   1_565 S
N1284  O1285   1.302   .     A
N1284  C800    1.443   1_565 S
N1284  O830    1.296   1_565 S
N1287  O1288   1.298   .     A
N1287  O1289   1.299   .     A
N1290  O1292   1.300   .     A
N1290  O1291   1.298   .     A
O1293  Zn1305  1.959   .     S
O1293  C1145   1.276   1_655 S
O1294  Zn1306  1.959   .     S
O1295  Zn1306  1.976   .     S
O1295  C1297   1.300   .     A
O1296  C1298   1.301   .     A
O1296  Zn1305  1.976   .     S
C1297  C1331   1.407   .     S
C1298  C1332   1.415   .     S
C1298  O1142   1.279   1_655 S
O1299  Zn1305  1.970   .     S
O1299  C1151   1.303   1_655 S
O1300  Zn1306  1.970   .     S
O1301  Zn1306  1.915   .     S
O1301  C1303   1.310   .     A
O1302  C1304   1.306   .     A
O1302  Zn1305  1.915   .     S
C1303  C1307   1.471   .     S
C1304  C1308   1.461   .     S
C1304  O1148   1.301   1_655 S
Zn1305 N1334   2.037   .     S
Zn1306 N1333   2.037   .     S
C1307  C1313   1.401   .     A
C1308  C1312   1.409   .     A
C1308  C1314   1.396   .     A
C1309  C1317   1.399   .     A
C1310  C1318   1.400   .     A
C1310  H1330   1.085   .     S
C1310  C1312   1.387   .     A
C1311  N1338   1.433   .     S
C1311  C1157   1.395   1_655 S
C1311  C1155   1.416   1_655 S
C1312  N1183   1.432   1_655 S
C1313  H1328   1.081   .     S
C1313  C1315   1.401   .     A
C1314  H1327   1.070   .     S
C1314  C1316   1.405   .     A
C1315  C1319   1.422   .     A
C1315  C1317   1.405   .     A
C1316  C1318   1.413   .     A
C1316  C1320   1.432   .     A
C1317  C639    1.380   1_556 S
C1319  C1322   1.427   .     A
C1319  C636    1.431   1_556 S
C1320  C1321   1.436   .     A
C1321  C1323   1.400   .     A
C1321  O1341   1.382   .     S
C1322  C1324   1.405   .     A
C1322  O1349   1.402   .     S
C1323  H1325   1.084   .     S
C1324  H1326   1.078   .     S
C1324  C634    1.379   1_556 S
H1329  C1157   1.085   1_655 S
C1331  C800    1.350   1_565 S
C1331  N901    1.436   1_565 S
C1332  C951    1.350   1_655 S
N1333  N1363   1.380   .     S
N1333  N1334   1.312   .     D
N1334  N1366   1.382   .     S
N1335  O1336   1.298   .     A
N1335  O1337   1.301   .     A
N1338  O1340   1.301   .     A
N1338  O1339   1.301   .     A
O1341  C1342   1.420   .     S
C1342  H1344   1.106   .     S
C1342  H1343   1.117   .     S
C1342  C1345   1.518   .     S
C1345  H1346   1.105   .     S
C1345  H1347   1.109   .     S
C1345  H1348   1.109   .     S
O1349  C1350   1.414   .     S
C1350  C1353   1.535   .     S
H1351  C894    1.105   1_565 S
H1352  C894    1.110   1_565 S
C1353  H1356   1.107   .     S
C1353  H1355   1.110   .     S
H1354  C897    1.109   1_565 S
N1357  O1358   1.302   .     A
O1359  N901    1.294   1_565 S
N1360  O1361   1.302   .     A
N1360  C876    1.443   1_565 S
N1360  O906    1.296   1_565 S
N1363  O1364   1.298   .     A
N1363  O1365   1.299   .     A
N1366  O1368   1.300   .     A
N1366  O1367   1.298   .     A
