data_str_m3_o1_o16_pcu_sym.62
_audit_creation_date              2020-01-03
_audit_creation_method            'Materials Studio'
_symmetry_space_group_name_H-M    'P1'
_symmetry_Int_Tables_number       1
_symmetry_cell_setting            triclinic
loop_
_symmetry_equiv_pos_as_xyz
  x,y,z
_cell_length_a                    29.9512
_cell_length_b                    31.8511
_cell_length_c                    26.1996
_cell_angle_alpha                 90.5552
_cell_angle_beta                  71.0048
_cell_angle_gamma                 89.1962
loop_
_atom_site_label
_atom_site_type_symbol
_atom_site_fract_x
_atom_site_fract_y
_atom_site_fract_z
_atom_site_U_iso_or_equiv
_atom_site_adp_type
_atom_site_occupancy
C1     C     0.16600   0.24649   0.25155   0.00000  Uiso   1.00
C2     C     0.12703   0.14294   0.40690   0.00000  Uiso   1.00
C3     C     0.18312   0.31248   0.28893   0.00000  Uiso   1.00
C4     C     0.14125   0.15884   0.35044   0.00000  Uiso   1.00
C5     C     0.18416   0.02225   0.28707   0.00000  Uiso   1.00
C6     C     0.16682   0.04276   0.25056   0.00000  Uiso   1.00
C7     C     0.14752   0.02129   0.21639   0.00000  Uiso   1.00
C8     C     0.14679   0.31160   0.21761   0.00000  Uiso   1.00
C9     C     0.16506   0.29077   0.25325   0.00000  Uiso   1.00
C10    C     0.31866   0.13537   0.22351   0.00000  Uiso   1.00
C11    C     0.03240   0.13575   0.22454   0.00000  Uiso   1.00
C12    C     0.14764   0.14296   0.48999   0.00000  Uiso   1.00
C13    C     0.01590   0.19773   0.27580   0.00000  Uiso   1.00
C14    C     0.30156   0.19762   0.27600   0.00000  Uiso   1.00
C15    C     0.16692   0.08687   0.24975   0.00000  Uiso   1.00
C16    C     0.19280   0.16743   0.14821   0.00000  Uiso   1.00
C17    C     0.26199   0.17866   0.00018   0.00000  Uiso   1.00
C18    C     0.20838   0.16584   0.08961   0.00000  Uiso   1.00
C19    C     0.07967   0.13494   0.43722   0.00000  Uiso   1.00
C20    C     0.06576   0.13650   0.49345   0.00000  Uiso   1.00
C21    C     0.09845   0.14418   0.01987   0.00000  Uiso   1.00
C22    C     0.16128   0.13866   0.43316   0.00000  Uiso   1.00
C23    C     0.18422   0.14982   0.01250   0.00000  Uiso   1.00
C24    C     0.22990   0.15996   0.47855   0.00000  Uiso   1.00
C25    C     0.24268   0.14942   0.42413   0.00000  Uiso   1.00
C26    C     0.20955   0.13304   0.40387   0.00000  Uiso   1.00
C27    C     0.17776   0.14640   0.06692   0.00000  Uiso   1.00
C28    C     0.24992   0.18459   0.05602   0.00000  Uiso   1.00
Cl29   Cl    0.07392   0.16072   0.08781   0.00000  Uiso   1.00
Cl30   Cl    0.20218   0.28725   0.33802   0.00000  Uiso   1.00
H31    H     0.19751   0.03978   0.31456   0.00000  Uiso   1.00
H32    H     0.02868   0.13448   0.01690   0.00000  Uiso   1.00
H33    H     0.22195   0.11946   0.36360   0.00000  Uiso   1.00
H34    H     0.26964   0.26752   0.14181   0.00000  Uiso   1.00
H35    H     0.01446   0.04436   0.13190   0.00000  Uiso   1.00
H36    H     0.30928   0.08242   0.42994   0.00000  Uiso   1.00
H37    H     0.13380   0.03779   0.18850   0.00000  Uiso   1.00
H38    H     0.13289   0.29455   0.19024   0.00000  Uiso   1.00
H39    H     0.05736   0.11105   0.20491   0.00000  Uiso   1.00
H40    H     0.02723   0.22274   0.29671   0.00000  Uiso   1.00
H41    H     0.27750   0.22244   0.29715   0.00000  Uiso   1.00
H42    H     0.27783   0.15267   0.39704   0.00000  Uiso   1.00
H43    H     0.29527   0.18992   0.47369   0.00000  Uiso   1.00
H44    H     0.14907   0.12814   0.09213   0.00000  Uiso   1.00
N45    N     0.04760   0.16668   0.25001   0.00000  Uiso   1.00
N46    N     0.28573   0.16665   0.25000   0.00000  Uiso   1.00
O47    O     0.12846   0.22775   0.25000   0.00000  Uiso   1.00
O48    O     0.32145   0.23911   0.03642   0.00000  Uiso   1.00
O49    O     0.24968   0.25413   0.12289   0.00000  Uiso   1.00
O50    O     0.28327   0.05839   0.22978   0.00000  Uiso   1.00
O51    O     0.27556   0.10145   0.15570   0.00000  Uiso   1.00
O52    O     0.02379   0.07009   0.14713   0.00000  Uiso   1.00
O53    O     0.02227   0.16189   0.38653   0.00000  Uiso   1.00
O54    O     0.05870   0.09211   0.36016   0.00000  Uiso   1.00
O55    O     0.32391   0.09953   0.45179   0.00000  Uiso   1.00
O56    O     0.20490   0.22774   0.25000   0.00000  Uiso   1.00
O57    O     0.10947   0.16666   0.32681   0.00000  Uiso   1.00
O58    O     0.18591   0.16665   0.32681   0.00000  Uiso   1.00
O59    O     0.12843   0.10559   0.24999   0.00000  Uiso   1.00
O60    O     0.20488   0.10558   0.24999   0.00000  Uiso   1.00
O61    O     0.14742   0.16668   0.17319   0.00000  Uiso   1.00
O62    O     0.22387   0.16667   0.17319   0.00000  Uiso   1.00
O63    O     0.30913   0.19208   0.11298   0.00000  Uiso   1.00
S64    S     0.28490   0.21766   0.08162   0.00000  Uiso   1.00
S65    S     0.30630   0.09098   0.18902   0.00000  Uiso   1.00
S66    S     0.03728   0.12201   0.40678   0.00000  Uiso   1.00
Zn67   Zn    0.11562   0.16667   0.25000   0.00000  Uiso   1.00
Zn68   Zn    0.21771   0.16666   0.25000   0.00000  Uiso   1.00
C69    C     0.49934   0.24649   0.25155   0.00000  Uiso   1.00
C70    C     0.46036   0.14294   0.40690   0.00000  Uiso   1.00
C71    C     0.51645   0.31248   0.28893   0.00000  Uiso   1.00
C72    C     0.47458   0.15884   0.35044   0.00000  Uiso   1.00
C73    C     0.51749   0.02225   0.28707   0.00000  Uiso   1.00
C74    C     0.50016   0.04276   0.25056   0.00000  Uiso   1.00
C75    C     0.48086   0.02129   0.21639   0.00000  Uiso   1.00
C76    C     0.48012   0.31160   0.21761   0.00000  Uiso   1.00
C77    C     0.49839   0.29077   0.25325   0.00000  Uiso   1.00
C78    C     0.65199   0.13537   0.22351   0.00000  Uiso   1.00
C79    C     0.36573   0.13575   0.22454   0.00000  Uiso   1.00
C80    C     0.48098   0.14296   0.48999   0.00000  Uiso   1.00
C81    C     0.34923   0.19773   0.27580   0.00000  Uiso   1.00
C82    C     0.63490   0.19762   0.27600   0.00000  Uiso   1.00
C83    C     0.50025   0.08687   0.24975   0.00000  Uiso   1.00
C84    C     0.52614   0.16743   0.14821   0.00000  Uiso   1.00
C85    C     0.59533   0.17866   0.00018   0.00000  Uiso   1.00
C86    C     0.54171   0.16584   0.08961   0.00000  Uiso   1.00
C87    C     0.41301   0.13494   0.43722   0.00000  Uiso   1.00
C88    C     0.39909   0.13650   0.49345   0.00000  Uiso   1.00
C89    C     0.43179   0.14418   0.01987   0.00000  Uiso   1.00
C90    C     0.49461   0.13866   0.43316   0.00000  Uiso   1.00
C91    C     0.51755   0.14982   0.01250   0.00000  Uiso   1.00
C92    C     0.56323   0.15996   0.47855   0.00000  Uiso   1.00
C93    C     0.57601   0.14942   0.42413   0.00000  Uiso   1.00
C94    C     0.54288   0.13304   0.40387   0.00000  Uiso   1.00
C95    C     0.51110   0.14640   0.06692   0.00000  Uiso   1.00
C96    C     0.58325   0.18459   0.05602   0.00000  Uiso   1.00
Cl97   Cl    0.40726   0.16072   0.08781   0.00000  Uiso   1.00
Cl98   Cl    0.53552   0.28725   0.33802   0.00000  Uiso   1.00
H99    H     0.53085   0.03978   0.31456   0.00000  Uiso   1.00
H100   H     0.36201   0.13448   0.01690   0.00000  Uiso   1.00
H101   H     0.55528   0.11946   0.36360   0.00000  Uiso   1.00
H102   H     0.60297   0.26752   0.14181   0.00000  Uiso   1.00
H103   H     0.34779   0.04436   0.13190   0.00000  Uiso   1.00
H104   H     0.64261   0.08242   0.42994   0.00000  Uiso   1.00
H105   H     0.46714   0.03779   0.18850   0.00000  Uiso   1.00
H106   H     0.46622   0.29455   0.19024   0.00000  Uiso   1.00
H107   H     0.39069   0.11105   0.20491   0.00000  Uiso   1.00
H108   H     0.36056   0.22274   0.29671   0.00000  Uiso   1.00
H109   H     0.61083   0.22244   0.29715   0.00000  Uiso   1.00
H110   H     0.61117   0.15267   0.39704   0.00000  Uiso   1.00
H111   H     0.62860   0.18992   0.47369   0.00000  Uiso   1.00
H112   H     0.48240   0.12814   0.09213   0.00000  Uiso   1.00
N113   N     0.38093   0.16668   0.25001   0.00000  Uiso   1.00
N114   N     0.61906   0.16665   0.25000   0.00000  Uiso   1.00
O115   O     0.46179   0.22775   0.25000   0.00000  Uiso   1.00
O116   O     0.65478   0.23911   0.03642   0.00000  Uiso   1.00
O117   O     0.58301   0.25413   0.12289   0.00000  Uiso   1.00
O118   O     0.61660   0.05839   0.22978   0.00000  Uiso   1.00
O119   O     0.60889   0.10145   0.15570   0.00000  Uiso   1.00
O120   O     0.35712   0.07009   0.14713   0.00000  Uiso   1.00
O121   O     0.35561   0.16189   0.38653   0.00000  Uiso   1.00
O122   O     0.39203   0.09211   0.36016   0.00000  Uiso   1.00
O123   O     0.65725   0.09953   0.45179   0.00000  Uiso   1.00
O124   O     0.53823   0.22774   0.25000   0.00000  Uiso   1.00
O125   O     0.44280   0.16666   0.32681   0.00000  Uiso   1.00
O126   O     0.51924   0.16665   0.32681   0.00000  Uiso   1.00
O127   O     0.46177   0.10559   0.24999   0.00000  Uiso   1.00
O128   O     0.53821   0.10558   0.24999   0.00000  Uiso   1.00
O129   O     0.48076   0.16668   0.17319   0.00000  Uiso   1.00
O130   O     0.55720   0.16667   0.17319   0.00000  Uiso   1.00
O131   O     0.64246   0.19208   0.11298   0.00000  Uiso   1.00
S132   S     0.61823   0.21766   0.08162   0.00000  Uiso   1.00
S133   S     0.63964   0.09098   0.18902   0.00000  Uiso   1.00
S134   S     0.37062   0.12201   0.40678   0.00000  Uiso   1.00
Zn135  Zn    0.44896   0.16667   0.25000   0.00000  Uiso   1.00
Zn136  Zn    0.55104   0.16666   0.25000   0.00000  Uiso   1.00
C137   C     0.83267   0.24649   0.25155   0.00000  Uiso   1.00
C138   C     0.79369   0.14294   0.40690   0.00000  Uiso   1.00
C139   C     0.84978   0.31248   0.28893   0.00000  Uiso   1.00
C140   C     0.80792   0.15884   0.35044   0.00000  Uiso   1.00
C141   C     0.85082   0.02225   0.28707   0.00000  Uiso   1.00
C142   C     0.83349   0.04276   0.25056   0.00000  Uiso   1.00
C143   C     0.81419   0.02129   0.21639   0.00000  Uiso   1.00
C144   C     0.81345   0.31160   0.21761   0.00000  Uiso   1.00
C145   C     0.83172   0.29077   0.25325   0.00000  Uiso   1.00
C146   C     0.98532   0.13537   0.22351   0.00000  Uiso   1.00
C147   C     0.69906   0.13575   0.22454   0.00000  Uiso   1.00
C148   C     0.81431   0.14296   0.48999   0.00000  Uiso   1.00
C149   C     0.68256   0.19773   0.27580   0.00000  Uiso   1.00
C150   C     0.96823   0.19762   0.27600   0.00000  Uiso   1.00
C151   C     0.83359   0.08687   0.24975   0.00000  Uiso   1.00
C152   C     0.85947   0.16743   0.14821   0.00000  Uiso   1.00
C153   C     0.92866   0.17866   0.00018   0.00000  Uiso   1.00
C154   C     0.87504   0.16584   0.08961   0.00000  Uiso   1.00
C155   C     0.74634   0.13494   0.43722   0.00000  Uiso   1.00
C156   C     0.73243   0.13650   0.49345   0.00000  Uiso   1.00
C157   C     0.76512   0.14418   0.01987   0.00000  Uiso   1.00
C158   C     0.82795   0.13866   0.43316   0.00000  Uiso   1.00
C159   C     0.85089   0.14982   0.01250   0.00000  Uiso   1.00
C160   C     0.89657   0.15996   0.47855   0.00000  Uiso   1.00
C161   C     0.90935   0.14942   0.42413   0.00000  Uiso   1.00
C162   C     0.87622   0.13304   0.40387   0.00000  Uiso   1.00
C163   C     0.84443   0.14640   0.06692   0.00000  Uiso   1.00
C164   C     0.91659   0.18459   0.05602   0.00000  Uiso   1.00
Cl165  Cl    0.74059   0.16072   0.08781   0.00000  Uiso   1.00
Cl166  Cl    0.86885   0.28725   0.33802   0.00000  Uiso   1.00
H167   H     0.86418   0.03978   0.31456   0.00000  Uiso   1.00
H168   H     0.69534   0.13448   0.01690   0.00000  Uiso   1.00
H169   H     0.88861   0.11946   0.36360   0.00000  Uiso   1.00
H170   H     0.93630   0.26752   0.14181   0.00000  Uiso   1.00
H171   H     0.68112   0.04436   0.13190   0.00000  Uiso   1.00
H172   H     0.97594   0.08242   0.42994   0.00000  Uiso   1.00
H173   H     0.80047   0.03779   0.18850   0.00000  Uiso   1.00
H174   H     0.79955   0.29455   0.19024   0.00000  Uiso   1.00
H175   H     0.72403   0.11105   0.20491   0.00000  Uiso   1.00
H176   H     0.69390   0.22274   0.29671   0.00000  Uiso   1.00
H177   H     0.94416   0.22244   0.29715   0.00000  Uiso   1.00
H178   H     0.94450   0.15267   0.39704   0.00000  Uiso   1.00
H179   H     0.96193   0.18992   0.47369   0.00000  Uiso   1.00
H180   H     0.81574   0.12814   0.09213   0.00000  Uiso   1.00
N181   N     0.71426   0.16668   0.25001   0.00000  Uiso   1.00
N182   N     0.95239   0.16665   0.25000   0.00000  Uiso   1.00
O183   O     0.79512   0.22775   0.25000   0.00000  Uiso   1.00
O184   O     0.98811   0.23911   0.03642   0.00000  Uiso   1.00
O185   O     0.91634   0.25413   0.12289   0.00000  Uiso   1.00
O186   O     0.94993   0.05839   0.22978   0.00000  Uiso   1.00
O187   O     0.94223   0.10145   0.15570   0.00000  Uiso   1.00
O188   O     0.69045   0.07009   0.14713   0.00000  Uiso   1.00
O189   O     0.68894   0.16189   0.38653   0.00000  Uiso   1.00
O190   O     0.72536   0.09211   0.36016   0.00000  Uiso   1.00
O191   O     0.99058   0.09953   0.45179   0.00000  Uiso   1.00
O192   O     0.87157   0.22774   0.25000   0.00000  Uiso   1.00
O193   O     0.77613   0.16666   0.32681   0.00000  Uiso   1.00
O194   O     0.85258   0.16665   0.32681   0.00000  Uiso   1.00
O195   O     0.79510   0.10559   0.24999   0.00000  Uiso   1.00
O196   O     0.87154   0.10558   0.24999   0.00000  Uiso   1.00
O197   O     0.81409   0.16668   0.17319   0.00000  Uiso   1.00
O198   O     0.89053   0.16667   0.17319   0.00000  Uiso   1.00
O199   O     0.97580   0.19208   0.11298   0.00000  Uiso   1.00
S200   S     0.95156   0.21766   0.08162   0.00000  Uiso   1.00
S201   S     0.97297   0.09098   0.18902   0.00000  Uiso   1.00
S202   S     0.70395   0.12201   0.40678   0.00000  Uiso   1.00
Zn203  Zn    0.78229   0.16667   0.25000   0.00000  Uiso   1.00
Zn204  Zn    0.88438   0.16666   0.25000   0.00000  Uiso   1.00
C205   C     0.16600   0.57983   0.25155   0.00000  Uiso   1.00
C206   C     0.12703   0.47627   0.40690   0.00000  Uiso   1.00
C207   C     0.18312   0.64581   0.28893   0.00000  Uiso   1.00
C208   C     0.14125   0.49218   0.35044   0.00000  Uiso   1.00
C209   C     0.18416   0.35558   0.28707   0.00000  Uiso   1.00
C210   C     0.16682   0.37609   0.25056   0.00000  Uiso   1.00
C211   C     0.14752   0.35462   0.21639   0.00000  Uiso   1.00
C212   C     0.14679   0.64494   0.21761   0.00000  Uiso   1.00
C213   C     0.16506   0.62410   0.25325   0.00000  Uiso   1.00
C214   C     0.31866   0.46870   0.22351   0.00000  Uiso   1.00
C215   C     0.03240   0.46908   0.22454   0.00000  Uiso   1.00
C216   C     0.14764   0.47630   0.48999   0.00000  Uiso   1.00
C217   C     0.01590   0.53107   0.27580   0.00000  Uiso   1.00
C218   C     0.30156   0.53096   0.27600   0.00000  Uiso   1.00
C219   C     0.16692   0.42020   0.24975   0.00000  Uiso   1.00
C220   C     0.19280   0.50076   0.14821   0.00000  Uiso   1.00
C221   C     0.26199   0.51199   0.00018   0.00000  Uiso   1.00
C222   C     0.20838   0.49917   0.08961   0.00000  Uiso   1.00
C223   C     0.07967   0.46827   0.43722   0.00000  Uiso   1.00
C224   C     0.06576   0.46984   0.49345   0.00000  Uiso   1.00
C225   C     0.09845   0.47751   0.01987   0.00000  Uiso   1.00
C226   C     0.16128   0.47199   0.43316   0.00000  Uiso   1.00
C227   C     0.18422   0.48316   0.01250   0.00000  Uiso   1.00
C228   C     0.22990   0.49329   0.47855   0.00000  Uiso   1.00
C229   C     0.24268   0.48275   0.42413   0.00000  Uiso   1.00
C230   C     0.20955   0.46638   0.40387   0.00000  Uiso   1.00
C231   C     0.17776   0.47973   0.06692   0.00000  Uiso   1.00
C232   C     0.24992   0.51793   0.05602   0.00000  Uiso   1.00
Cl233  Cl    0.07392   0.49405   0.08781   0.00000  Uiso   1.00
Cl234  Cl    0.20218   0.62059   0.33802   0.00000  Uiso   1.00
H235   H     0.19751   0.37311   0.31456   0.00000  Uiso   1.00
H236   H     0.02868   0.46781   0.01690   0.00000  Uiso   1.00
H237   H     0.22195   0.45279   0.36360   0.00000  Uiso   1.00
H238   H     0.26964   0.60085   0.14181   0.00000  Uiso   1.00
H239   H     0.01446   0.37770   0.13190   0.00000  Uiso   1.00
H240   H     0.30928   0.41575   0.42994   0.00000  Uiso   1.00
H241   H     0.13380   0.37112   0.18850   0.00000  Uiso   1.00
H242   H     0.13289   0.62789   0.19024   0.00000  Uiso   1.00
H243   H     0.05736   0.44438   0.20491   0.00000  Uiso   1.00
H244   H     0.02723   0.55608   0.29671   0.00000  Uiso   1.00
H245   H     0.27750   0.55577   0.29715   0.00000  Uiso   1.00
H246   H     0.27783   0.48600   0.39704   0.00000  Uiso   1.00
H247   H     0.29527   0.52326   0.47369   0.00000  Uiso   1.00
H248   H     0.14907   0.46148   0.09213   0.00000  Uiso   1.00
N249   N     0.04760   0.50001   0.25001   0.00000  Uiso   1.00
N250   N     0.28573   0.49998   0.25000   0.00000  Uiso   1.00
O251   O     0.12846   0.56108   0.25000   0.00000  Uiso   1.00
O252   O     0.32145   0.57244   0.03642   0.00000  Uiso   1.00
O253   O     0.24968   0.58746   0.12289   0.00000  Uiso   1.00
O254   O     0.28327   0.39172   0.22978   0.00000  Uiso   1.00
O255   O     0.27556   0.43478   0.15570   0.00000  Uiso   1.00
O256   O     0.02379   0.40342   0.14713   0.00000  Uiso   1.00
O257   O     0.02227   0.49522   0.38653   0.00000  Uiso   1.00
O258   O     0.05870   0.42544   0.36016   0.00000  Uiso   1.00
O259   O     0.32391   0.43286   0.45179   0.00000  Uiso   1.00
O260   O     0.20490   0.56107   0.25000   0.00000  Uiso   1.00
O261   O     0.10947   0.50000   0.32681   0.00000  Uiso   1.00
O262   O     0.18591   0.49999   0.32681   0.00000  Uiso   1.00
O263   O     0.12843   0.43893   0.24999   0.00000  Uiso   1.00
O264   O     0.20488   0.43892   0.24999   0.00000  Uiso   1.00
O265   O     0.14742   0.50001   0.17319   0.00000  Uiso   1.00
O266   O     0.22387   0.50000   0.17319   0.00000  Uiso   1.00
O267   O     0.30913   0.52542   0.11298   0.00000  Uiso   1.00
S268   S     0.28490   0.55100   0.08162   0.00000  Uiso   1.00
S269   S     0.30630   0.42432   0.18902   0.00000  Uiso   1.00
S270   S     0.03728   0.45535   0.40678   0.00000  Uiso   1.00
Zn271  Zn    0.11562   0.50001   0.25000   0.00000  Uiso   1.00
Zn272  Zn    0.21771   0.49999   0.25000   0.00000  Uiso   1.00
C273   C     0.49934   0.57983   0.25155   0.00000  Uiso   1.00
C274   C     0.46036   0.47627   0.40690   0.00000  Uiso   1.00
C275   C     0.51645   0.64581   0.28893   0.00000  Uiso   1.00
C276   C     0.47458   0.49218   0.35044   0.00000  Uiso   1.00
C277   C     0.51749   0.35558   0.28707   0.00000  Uiso   1.00
C278   C     0.50016   0.37609   0.25056   0.00000  Uiso   1.00
C279   C     0.48086   0.35462   0.21639   0.00000  Uiso   1.00
C280   C     0.48012   0.64494   0.21761   0.00000  Uiso   1.00
C281   C     0.49839   0.62410   0.25325   0.00000  Uiso   1.00
C282   C     0.65199   0.46870   0.22351   0.00000  Uiso   1.00
C283   C     0.36573   0.46908   0.22454   0.00000  Uiso   1.00
C284   C     0.48098   0.47630   0.48999   0.00000  Uiso   1.00
C285   C     0.34923   0.53107   0.27580   0.00000  Uiso   1.00
C286   C     0.63490   0.53096   0.27600   0.00000  Uiso   1.00
C287   C     0.50025   0.42020   0.24975   0.00000  Uiso   1.00
C288   C     0.52614   0.50076   0.14821   0.00000  Uiso   1.00
C289   C     0.59533   0.51199   0.00018   0.00000  Uiso   1.00
C290   C     0.54171   0.49917   0.08961   0.00000  Uiso   1.00
C291   C     0.41301   0.46827   0.43722   0.00000  Uiso   1.00
C292   C     0.39909   0.46984   0.49345   0.00000  Uiso   1.00
C293   C     0.43179   0.47751   0.01987   0.00000  Uiso   1.00
C294   C     0.49461   0.47199   0.43316   0.00000  Uiso   1.00
C295   C     0.51755   0.48316   0.01250   0.00000  Uiso   1.00
C296   C     0.56323   0.49329   0.47855   0.00000  Uiso   1.00
C297   C     0.57601   0.48275   0.42413   0.00000  Uiso   1.00
C298   C     0.54288   0.46638   0.40387   0.00000  Uiso   1.00
C299   C     0.51110   0.47973   0.06692   0.00000  Uiso   1.00
C300   C     0.58325   0.51793   0.05602   0.00000  Uiso   1.00
Cl301  Cl    0.40726   0.49405   0.08781   0.00000  Uiso   1.00
Cl302  Cl    0.53552   0.62059   0.33802   0.00000  Uiso   1.00
H303   H     0.53085   0.37311   0.31456   0.00000  Uiso   1.00
H304   H     0.36201   0.46781   0.01690   0.00000  Uiso   1.00
H305   H     0.55528   0.45279   0.36360   0.00000  Uiso   1.00
H306   H     0.60297   0.60085   0.14181   0.00000  Uiso   1.00
H307   H     0.34779   0.37770   0.13190   0.00000  Uiso   1.00
H308   H     0.64261   0.41575   0.42994   0.00000  Uiso   1.00
H309   H     0.46714   0.37112   0.18850   0.00000  Uiso   1.00
H310   H     0.46622   0.62789   0.19024   0.00000  Uiso   1.00
H311   H     0.39069   0.44438   0.20491   0.00000  Uiso   1.00
H312   H     0.36056   0.55608   0.29671   0.00000  Uiso   1.00
H313   H     0.61083   0.55577   0.29715   0.00000  Uiso   1.00
H314   H     0.61117   0.48600   0.39704   0.00000  Uiso   1.00
H315   H     0.62860   0.52326   0.47369   0.00000  Uiso   1.00
H316   H     0.48240   0.46148   0.09213   0.00000  Uiso   1.00
N317   N     0.38093   0.50001   0.25001   0.00000  Uiso   1.00
N318   N     0.61906   0.49998   0.25000   0.00000  Uiso   1.00
O319   O     0.46179   0.56108   0.25000   0.00000  Uiso   1.00
O320   O     0.65478   0.57244   0.03642   0.00000  Uiso   1.00
O321   O     0.58301   0.58746   0.12289   0.00000  Uiso   1.00
O322   O     0.61660   0.39172   0.22978   0.00000  Uiso   1.00
O323   O     0.60889   0.43478   0.15570   0.00000  Uiso   1.00
O324   O     0.35712   0.40342   0.14713   0.00000  Uiso   1.00
O325   O     0.35561   0.49522   0.38653   0.00000  Uiso   1.00
O326   O     0.39203   0.42544   0.36016   0.00000  Uiso   1.00
O327   O     0.65725   0.43286   0.45179   0.00000  Uiso   1.00
O328   O     0.53823   0.56107   0.25000   0.00000  Uiso   1.00
O329   O     0.44280   0.50000   0.32681   0.00000  Uiso   1.00
O330   O     0.51924   0.49999   0.32681   0.00000  Uiso   1.00
O331   O     0.46177   0.43893   0.24999   0.00000  Uiso   1.00
O332   O     0.53821   0.43892   0.24999   0.00000  Uiso   1.00
O333   O     0.48076   0.50001   0.17319   0.00000  Uiso   1.00
O334   O     0.55720   0.50000   0.17319   0.00000  Uiso   1.00
O335   O     0.64246   0.52542   0.11298   0.00000  Uiso   1.00
S336   S     0.61823   0.55100   0.08162   0.00000  Uiso   1.00
S337   S     0.63964   0.42432   0.18902   0.00000  Uiso   1.00
S338   S     0.37062   0.45535   0.40678   0.00000  Uiso   1.00
Zn339  Zn    0.44896   0.50001   0.25000   0.00000  Uiso   1.00
Zn340  Zn    0.55104   0.49999   0.25000   0.00000  Uiso   1.00
C341   C     0.83267   0.57983   0.25155   0.00000  Uiso   1.00
C342   C     0.79369   0.47627   0.40690   0.00000  Uiso   1.00
C343   C     0.84978   0.64581   0.28893   0.00000  Uiso   1.00
C344   C     0.80792   0.49218   0.35044   0.00000  Uiso   1.00
C345   C     0.85082   0.35558   0.28707   0.00000  Uiso   1.00
C346   C     0.83349   0.37609   0.25056   0.00000  Uiso   1.00
C347   C     0.81419   0.35462   0.21639   0.00000  Uiso   1.00
C348   C     0.81345   0.64494   0.21761   0.00000  Uiso   1.00
C349   C     0.83172   0.62410   0.25325   0.00000  Uiso   1.00
C350   C     0.98532   0.46870   0.22351   0.00000  Uiso   1.00
C351   C     0.69906   0.46908   0.22454   0.00000  Uiso   1.00
C352   C     0.81431   0.47630   0.48999   0.00000  Uiso   1.00
C353   C     0.68256   0.53107   0.27580   0.00000  Uiso   1.00
C354   C     0.96823   0.53096   0.27600   0.00000  Uiso   1.00
C355   C     0.83359   0.42020   0.24975   0.00000  Uiso   1.00
C356   C     0.85947   0.50076   0.14821   0.00000  Uiso   1.00
C357   C     0.92866   0.51199   0.00018   0.00000  Uiso   1.00
C358   C     0.87504   0.49917   0.08961   0.00000  Uiso   1.00
C359   C     0.74634   0.46827   0.43722   0.00000  Uiso   1.00
C360   C     0.73243   0.46984   0.49345   0.00000  Uiso   1.00
C361   C     0.76512   0.47751   0.01987   0.00000  Uiso   1.00
C362   C     0.82795   0.47199   0.43316   0.00000  Uiso   1.00
C363   C     0.85089   0.48316   0.01250   0.00000  Uiso   1.00
C364   C     0.89657   0.49329   0.47855   0.00000  Uiso   1.00
C365   C     0.90935   0.48275   0.42413   0.00000  Uiso   1.00
C366   C     0.87622   0.46638   0.40387   0.00000  Uiso   1.00
C367   C     0.84443   0.47973   0.06692   0.00000  Uiso   1.00
C368   C     0.91659   0.51793   0.05602   0.00000  Uiso   1.00
Cl369  Cl    0.74059   0.49405   0.08781   0.00000  Uiso   1.00
Cl370  Cl    0.86885   0.62059   0.33802   0.00000  Uiso   1.00
H371   H     0.86418   0.37311   0.31456   0.00000  Uiso   1.00
H372   H     0.69534   0.46781   0.01690   0.00000  Uiso   1.00
H373   H     0.88861   0.45279   0.36360   0.00000  Uiso   1.00
H374   H     0.93630   0.60085   0.14181   0.00000  Uiso   1.00
H375   H     0.68112   0.37770   0.13190   0.00000  Uiso   1.00
H376   H     0.97594   0.41575   0.42994   0.00000  Uiso   1.00
H377   H     0.80047   0.37112   0.18850   0.00000  Uiso   1.00
H378   H     0.79955   0.62789   0.19024   0.00000  Uiso   1.00
H379   H     0.72403   0.44438   0.20491   0.00000  Uiso   1.00
H380   H     0.69390   0.55608   0.29671   0.00000  Uiso   1.00
H381   H     0.94416   0.55577   0.29715   0.00000  Uiso   1.00
H382   H     0.94450   0.48600   0.39704   0.00000  Uiso   1.00
H383   H     0.96193   0.52326   0.47369   0.00000  Uiso   1.00
H384   H     0.81574   0.46148   0.09213   0.00000  Uiso   1.00
N385   N     0.71426   0.50001   0.25001   0.00000  Uiso   1.00
N386   N     0.95239   0.49998   0.25000   0.00000  Uiso   1.00
O387   O     0.79512   0.56108   0.25000   0.00000  Uiso   1.00
O388   O     0.98811   0.57244   0.03642   0.00000  Uiso   1.00
O389   O     0.91634   0.58746   0.12289   0.00000  Uiso   1.00
O390   O     0.94993   0.39172   0.22978   0.00000  Uiso   1.00
O391   O     0.94223   0.43478   0.15570   0.00000  Uiso   1.00
O392   O     0.69045   0.40342   0.14713   0.00000  Uiso   1.00
O393   O     0.68894   0.49522   0.38653   0.00000  Uiso   1.00
O394   O     0.72536   0.42544   0.36016   0.00000  Uiso   1.00
O395   O     0.99058   0.43286   0.45179   0.00000  Uiso   1.00
O396   O     0.87157   0.56107   0.25000   0.00000  Uiso   1.00
O397   O     0.77613   0.50000   0.32681   0.00000  Uiso   1.00
O398   O     0.85258   0.49999   0.32681   0.00000  Uiso   1.00
O399   O     0.79510   0.43893   0.24999   0.00000  Uiso   1.00
O400   O     0.87154   0.43892   0.24999   0.00000  Uiso   1.00
O401   O     0.81409   0.50001   0.17319   0.00000  Uiso   1.00
O402   O     0.89053   0.50000   0.17319   0.00000  Uiso   1.00
O403   O     0.97580   0.52542   0.11298   0.00000  Uiso   1.00
S404   S     0.95156   0.55100   0.08162   0.00000  Uiso   1.00
S405   S     0.97297   0.42432   0.18902   0.00000  Uiso   1.00
S406   S     0.70395   0.45535   0.40678   0.00000  Uiso   1.00
Zn407  Zn    0.78229   0.50001   0.25000   0.00000  Uiso   1.00
Zn408  Zn    0.88438   0.49999   0.25000   0.00000  Uiso   1.00
C409   C     0.16600   0.91316   0.25155   0.00000  Uiso   1.00
C410   C     0.12703   0.80961   0.40690   0.00000  Uiso   1.00
C411   C     0.18312   0.97914   0.28893   0.00000  Uiso   1.00
C412   C     0.14125   0.82551   0.35044   0.00000  Uiso   1.00
C413   C     0.18416   0.68891   0.28707   0.00000  Uiso   1.00
C414   C     0.16682   0.70942   0.25056   0.00000  Uiso   1.00
C415   C     0.14752   0.68796   0.21639   0.00000  Uiso   1.00
C416   C     0.14679   0.97827   0.21761   0.00000  Uiso   1.00
C417   C     0.16506   0.95744   0.25325   0.00000  Uiso   1.00
C418   C     0.31866   0.80203   0.22351   0.00000  Uiso   1.00
C419   C     0.03240   0.80242   0.22454   0.00000  Uiso   1.00
C420   C     0.14764   0.80963   0.48999   0.00000  Uiso   1.00
C421   C     0.01590   0.86440   0.27580   0.00000  Uiso   1.00
C422   C     0.30156   0.86429   0.27600   0.00000  Uiso   1.00
C423   C     0.16692   0.75353   0.24975   0.00000  Uiso   1.00
C424   C     0.19280   0.83409   0.14821   0.00000  Uiso   1.00
C425   C     0.26199   0.84532   0.00018   0.00000  Uiso   1.00
C426   C     0.20838   0.83250   0.08961   0.00000  Uiso   1.00
C427   C     0.07967   0.80161   0.43722   0.00000  Uiso   1.00
C428   C     0.06576   0.80317   0.49345   0.00000  Uiso   1.00
C429   C     0.09845   0.81084   0.01987   0.00000  Uiso   1.00
C430   C     0.16128   0.80532   0.43316   0.00000  Uiso   1.00
C431   C     0.18422   0.81649   0.01250   0.00000  Uiso   1.00
C432   C     0.22990   0.82663   0.47855   0.00000  Uiso   1.00
C433   C     0.24268   0.81609   0.42413   0.00000  Uiso   1.00
C434   C     0.20955   0.79971   0.40387   0.00000  Uiso   1.00
C435   C     0.17776   0.81306   0.06692   0.00000  Uiso   1.00
C436   C     0.24992   0.85126   0.05602   0.00000  Uiso   1.00
Cl437  Cl    0.07392   0.82738   0.08781   0.00000  Uiso   1.00
Cl438  Cl    0.20218   0.95392   0.33802   0.00000  Uiso   1.00
H439   H     0.19751   0.70644   0.31456   0.00000  Uiso   1.00
H440   H     0.02868   0.80115   0.01690   0.00000  Uiso   1.00
H441   H     0.22195   0.78612   0.36360   0.00000  Uiso   1.00
H442   H     0.26964   0.93419   0.14181   0.00000  Uiso   1.00
H443   H     0.01446   0.71103   0.13190   0.00000  Uiso   1.00
H444   H     0.30928   0.74909   0.42994   0.00000  Uiso   1.00
H445   H     0.13380   0.70446   0.18850   0.00000  Uiso   1.00
H446   H     0.13289   0.96122   0.19024   0.00000  Uiso   1.00
H447   H     0.05736   0.77771   0.20491   0.00000  Uiso   1.00
H448   H     0.02723   0.88941   0.29671   0.00000  Uiso   1.00
H449   H     0.27750   0.88910   0.29715   0.00000  Uiso   1.00
H450   H     0.27783   0.81934   0.39704   0.00000  Uiso   1.00
H451   H     0.29527   0.85659   0.47369   0.00000  Uiso   1.00
H452   H     0.14907   0.79481   0.09213   0.00000  Uiso   1.00
N453   N     0.04760   0.83334   0.25001   0.00000  Uiso   1.00
N454   N     0.28573   0.83331   0.25000   0.00000  Uiso   1.00
O455   O     0.12846   0.89442   0.25000   0.00000  Uiso   1.00
O456   O     0.32145   0.90577   0.03642   0.00000  Uiso   1.00
O457   O     0.24968   0.92079   0.12289   0.00000  Uiso   1.00
O458   O     0.28327   0.72506   0.22978   0.00000  Uiso   1.00
O459   O     0.27556   0.76812   0.15570   0.00000  Uiso   1.00
O460   O     0.02379   0.73676   0.14713   0.00000  Uiso   1.00
O461   O     0.02227   0.82855   0.38653   0.00000  Uiso   1.00
O462   O     0.05870   0.75877   0.36016   0.00000  Uiso   1.00
O463   O     0.32391   0.76620   0.45179   0.00000  Uiso   1.00
O464   O     0.20490   0.89441   0.25000   0.00000  Uiso   1.00
O465   O     0.10947   0.83333   0.32681   0.00000  Uiso   1.00
O466   O     0.18591   0.83332   0.32681   0.00000  Uiso   1.00
O467   O     0.12843   0.77226   0.24999   0.00000  Uiso   1.00
O468   O     0.20488   0.77225   0.24999   0.00000  Uiso   1.00
O469   O     0.14742   0.83335   0.17319   0.00000  Uiso   1.00
O470   O     0.22387   0.83334   0.17319   0.00000  Uiso   1.00
O471   O     0.30913   0.85875   0.11298   0.00000  Uiso   1.00
S472   S     0.28490   0.88433   0.08162   0.00000  Uiso   1.00
S473   S     0.30630   0.75765   0.18902   0.00000  Uiso   1.00
S474   S     0.03728   0.78868   0.40678   0.00000  Uiso   1.00
Zn475  Zn    0.11562   0.83334   0.25000   0.00000  Uiso   1.00
Zn476  Zn    0.21771   0.83333   0.25000   0.00000  Uiso   1.00
C477   C     0.49934   0.91316   0.25155   0.00000  Uiso   1.00
C478   C     0.46036   0.80961   0.40690   0.00000  Uiso   1.00
C479   C     0.51645   0.97914   0.28893   0.00000  Uiso   1.00
C480   C     0.47458   0.82551   0.35044   0.00000  Uiso   1.00
C481   C     0.51749   0.68891   0.28707   0.00000  Uiso   1.00
C482   C     0.50016   0.70942   0.25056   0.00000  Uiso   1.00
C483   C     0.48086   0.68796   0.21639   0.00000  Uiso   1.00
C484   C     0.48012   0.97827   0.21761   0.00000  Uiso   1.00
C485   C     0.49839   0.95744   0.25325   0.00000  Uiso   1.00
C486   C     0.65199   0.80203   0.22351   0.00000  Uiso   1.00
C487   C     0.36573   0.80242   0.22454   0.00000  Uiso   1.00
C488   C     0.48098   0.80963   0.48999   0.00000  Uiso   1.00
C489   C     0.34923   0.86440   0.27580   0.00000  Uiso   1.00
C490   C     0.63490   0.86429   0.27600   0.00000  Uiso   1.00
C491   C     0.50025   0.75353   0.24975   0.00000  Uiso   1.00
C492   C     0.52614   0.83409   0.14821   0.00000  Uiso   1.00
C493   C     0.59533   0.84532   0.00018   0.00000  Uiso   1.00
C494   C     0.54171   0.83250   0.08961   0.00000  Uiso   1.00
C495   C     0.41301   0.80161   0.43722   0.00000  Uiso   1.00
C496   C     0.39909   0.80317   0.49345   0.00000  Uiso   1.00
C497   C     0.43179   0.81084   0.01987   0.00000  Uiso   1.00
C498   C     0.49461   0.80532   0.43316   0.00000  Uiso   1.00
C499   C     0.51755   0.81649   0.01250   0.00000  Uiso   1.00
C500   C     0.56323   0.82663   0.47855   0.00000  Uiso   1.00
C501   C     0.57601   0.81609   0.42413   0.00000  Uiso   1.00
C502   C     0.54288   0.79971   0.40387   0.00000  Uiso   1.00
C503   C     0.51110   0.81306   0.06692   0.00000  Uiso   1.00
C504   C     0.58325   0.85126   0.05602   0.00000  Uiso   1.00
Cl505  Cl    0.40726   0.82738   0.08781   0.00000  Uiso   1.00
Cl506  Cl    0.53552   0.95392   0.33802   0.00000  Uiso   1.00
H507   H     0.53085   0.70644   0.31456   0.00000  Uiso   1.00
H508   H     0.36201   0.80115   0.01690   0.00000  Uiso   1.00
H509   H     0.55528   0.78612   0.36360   0.00000  Uiso   1.00
H510   H     0.60297   0.93419   0.14181   0.00000  Uiso   1.00
H511   H     0.34779   0.71103   0.13190   0.00000  Uiso   1.00
H512   H     0.64261   0.74909   0.42994   0.00000  Uiso   1.00
H513   H     0.46714   0.70446   0.18850   0.00000  Uiso   1.00
H514   H     0.46622   0.96122   0.19024   0.00000  Uiso   1.00
H515   H     0.39069   0.77771   0.20491   0.00000  Uiso   1.00
H516   H     0.36056   0.88941   0.29671   0.00000  Uiso   1.00
H517   H     0.61083   0.88910   0.29715   0.00000  Uiso   1.00
H518   H     0.61117   0.81934   0.39704   0.00000  Uiso   1.00
H519   H     0.62860   0.85659   0.47369   0.00000  Uiso   1.00
H520   H     0.48240   0.79481   0.09213   0.00000  Uiso   1.00
N521   N     0.38093   0.83334   0.25001   0.00000  Uiso   1.00
N522   N     0.61906   0.83331   0.25000   0.00000  Uiso   1.00
O523   O     0.46179   0.89442   0.25000   0.00000  Uiso   1.00
O524   O     0.65478   0.90577   0.03642   0.00000  Uiso   1.00
O525   O     0.58301   0.92079   0.12289   0.00000  Uiso   1.00
O526   O     0.61660   0.72506   0.22978   0.00000  Uiso   1.00
O527   O     0.60889   0.76812   0.15570   0.00000  Uiso   1.00
O528   O     0.35712   0.73676   0.14713   0.00000  Uiso   1.00
O529   O     0.35561   0.82855   0.38653   0.00000  Uiso   1.00
O530   O     0.39203   0.75877   0.36016   0.00000  Uiso   1.00
O531   O     0.65725   0.76620   0.45179   0.00000  Uiso   1.00
O532   O     0.53823   0.89441   0.25000   0.00000  Uiso   1.00
O533   O     0.44280   0.83333   0.32681   0.00000  Uiso   1.00
O534   O     0.51924   0.83332   0.32681   0.00000  Uiso   1.00
O535   O     0.46177   0.77226   0.24999   0.00000  Uiso   1.00
O536   O     0.53821   0.77225   0.24999   0.00000  Uiso   1.00
O537   O     0.48076   0.83335   0.17319   0.00000  Uiso   1.00
O538   O     0.55720   0.83334   0.17319   0.00000  Uiso   1.00
O539   O     0.64246   0.85875   0.11298   0.00000  Uiso   1.00
S540   S     0.61823   0.88433   0.08162   0.00000  Uiso   1.00
S541   S     0.63964   0.75765   0.18902   0.00000  Uiso   1.00
S542   S     0.37062   0.78868   0.40678   0.00000  Uiso   1.00
Zn543  Zn    0.44896   0.83334   0.25000   0.00000  Uiso   1.00
Zn544  Zn    0.55104   0.83333   0.25000   0.00000  Uiso   1.00
C545   C     0.83267   0.91316   0.25155   0.00000  Uiso   1.00
C546   C     0.79369   0.80961   0.40690   0.00000  Uiso   1.00
C547   C     0.84978   0.97914   0.28893   0.00000  Uiso   1.00
C548   C     0.80792   0.82551   0.35044   0.00000  Uiso   1.00
C549   C     0.85082   0.68891   0.28707   0.00000  Uiso   1.00
C550   C     0.83349   0.70942   0.25056   0.00000  Uiso   1.00
C551   C     0.81419   0.68796   0.21639   0.00000  Uiso   1.00
C552   C     0.81345   0.97827   0.21761   0.00000  Uiso   1.00
C553   C     0.83172   0.95744   0.25325   0.00000  Uiso   1.00
C554   C     0.98532   0.80203   0.22351   0.00000  Uiso   1.00
C555   C     0.69906   0.80242   0.22454   0.00000  Uiso   1.00
C556   C     0.81431   0.80963   0.48999   0.00000  Uiso   1.00
C557   C     0.68256   0.86440   0.27580   0.00000  Uiso   1.00
C558   C     0.96823   0.86429   0.27600   0.00000  Uiso   1.00
C559   C     0.83359   0.75353   0.24975   0.00000  Uiso   1.00
C560   C     0.85947   0.83409   0.14821   0.00000  Uiso   1.00
C561   C     0.92866   0.84532   0.00018   0.00000  Uiso   1.00
C562   C     0.87504   0.83250   0.08961   0.00000  Uiso   1.00
C563   C     0.74634   0.80161   0.43722   0.00000  Uiso   1.00
C564   C     0.73243   0.80317   0.49345   0.00000  Uiso   1.00
C565   C     0.76512   0.81084   0.01987   0.00000  Uiso   1.00
C566   C     0.82795   0.80532   0.43316   0.00000  Uiso   1.00
C567   C     0.85089   0.81649   0.01250   0.00000  Uiso   1.00
C568   C     0.89657   0.82663   0.47855   0.00000  Uiso   1.00
C569   C     0.90935   0.81609   0.42413   0.00000  Uiso   1.00
C570   C     0.87622   0.79971   0.40387   0.00000  Uiso   1.00
C571   C     0.84443   0.81306   0.06692   0.00000  Uiso   1.00
C572   C     0.91659   0.85126   0.05602   0.00000  Uiso   1.00
Cl573  Cl    0.74059   0.82738   0.08781   0.00000  Uiso   1.00
Cl574  Cl    0.86885   0.95392   0.33802   0.00000  Uiso   1.00
H575   H     0.86418   0.70644   0.31456   0.00000  Uiso   1.00
H576   H     0.69534   0.80115   0.01690   0.00000  Uiso   1.00
H577   H     0.88861   0.78612   0.36360   0.00000  Uiso   1.00
H578   H     0.93630   0.93419   0.14181   0.00000  Uiso   1.00
H579   H     0.68112   0.71103   0.13190   0.00000  Uiso   1.00
H580   H     0.97594   0.74909   0.42994   0.00000  Uiso   1.00
H581   H     0.80047   0.70446   0.18850   0.00000  Uiso   1.00
H582   H     0.79955   0.96122   0.19024   0.00000  Uiso   1.00
H583   H     0.72403   0.77771   0.20491   0.00000  Uiso   1.00
H584   H     0.69390   0.88941   0.29671   0.00000  Uiso   1.00
H585   H     0.94416   0.88910   0.29715   0.00000  Uiso   1.00
H586   H     0.94450   0.81934   0.39704   0.00000  Uiso   1.00
H587   H     0.96193   0.85659   0.47369   0.00000  Uiso   1.00
H588   H     0.81574   0.79481   0.09213   0.00000  Uiso   1.00
N589   N     0.71426   0.83334   0.25001   0.00000  Uiso   1.00
N590   N     0.95239   0.83331   0.25000   0.00000  Uiso   1.00
O591   O     0.79512   0.89442   0.25000   0.00000  Uiso   1.00
O592   O     0.98811   0.90577   0.03642   0.00000  Uiso   1.00
O593   O     0.91634   0.92079   0.12289   0.00000  Uiso   1.00
O594   O     0.94993   0.72506   0.22978   0.00000  Uiso   1.00
O595   O     0.94223   0.76812   0.15570   0.00000  Uiso   1.00
O596   O     0.69045   0.73676   0.14713   0.00000  Uiso   1.00
O597   O     0.68894   0.82855   0.38653   0.00000  Uiso   1.00
O598   O     0.72536   0.75877   0.36016   0.00000  Uiso   1.00
O599   O     0.99058   0.76620   0.45179   0.00000  Uiso   1.00
O600   O     0.87157   0.89441   0.25000   0.00000  Uiso   1.00
O601   O     0.77613   0.83333   0.32681   0.00000  Uiso   1.00
O602   O     0.85258   0.83332   0.32681   0.00000  Uiso   1.00
O603   O     0.79510   0.77226   0.24999   0.00000  Uiso   1.00
O604   O     0.87154   0.77225   0.24999   0.00000  Uiso   1.00
O605   O     0.81409   0.83335   0.17319   0.00000  Uiso   1.00
O606   O     0.89053   0.83334   0.17319   0.00000  Uiso   1.00
O607   O     0.97580   0.85875   0.11298   0.00000  Uiso   1.00
S608   S     0.95156   0.88433   0.08162   0.00000  Uiso   1.00
S609   S     0.97297   0.75765   0.18902   0.00000  Uiso   1.00
S610   S     0.70395   0.78868   0.40678   0.00000  Uiso   1.00
Zn611  Zn    0.78229   0.83334   0.25000   0.00000  Uiso   1.00
Zn612  Zn    0.88438   0.83333   0.25000   0.00000  Uiso   1.00
C613   C     0.16600   0.24649   0.75155   0.00000  Uiso   1.00
C614   C     0.12703   0.14294   0.90690   0.00000  Uiso   1.00
C615   C     0.18312   0.31248   0.78893   0.00000  Uiso   1.00
C616   C     0.14125   0.15884   0.85044   0.00000  Uiso   1.00
C617   C     0.18416   0.02225   0.78707   0.00000  Uiso   1.00
C618   C     0.16682   0.04276   0.75056   0.00000  Uiso   1.00
C619   C     0.14752   0.02129   0.71639   0.00000  Uiso   1.00
C620   C     0.14679   0.31160   0.71761   0.00000  Uiso   1.00
C621   C     0.16506   0.29077   0.75325   0.00000  Uiso   1.00
C622   C     0.31866   0.13537   0.72351   0.00000  Uiso   1.00
C623   C     0.03240   0.13575   0.72454   0.00000  Uiso   1.00
C624   C     0.14764   0.14296   0.98999   0.00000  Uiso   1.00
C625   C     0.01590   0.19773   0.77580   0.00000  Uiso   1.00
C626   C     0.30156   0.19762   0.77600   0.00000  Uiso   1.00
C627   C     0.16692   0.08687   0.74975   0.00000  Uiso   1.00
C628   C     0.19280   0.16743   0.64821   0.00000  Uiso   1.00
C629   C     0.26199   0.17866   0.50018   0.00000  Uiso   1.00
C630   C     0.20838   0.16584   0.58961   0.00000  Uiso   1.00
C631   C     0.07967   0.13494   0.93722   0.00000  Uiso   1.00
C632   C     0.06576   0.13650   0.99345   0.00000  Uiso   1.00
C633   C     0.09845   0.14418   0.51987   0.00000  Uiso   1.00
C634   C     0.16128   0.13866   0.93316   0.00000  Uiso   1.00
C635   C     0.18422   0.14982   0.51250   0.00000  Uiso   1.00
C636   C     0.22990   0.15996   0.97855   0.00000  Uiso   1.00
C637   C     0.24268   0.14942   0.92413   0.00000  Uiso   1.00
C638   C     0.20955   0.13304   0.90387   0.00000  Uiso   1.00
C639   C     0.17776   0.14640   0.56692   0.00000  Uiso   1.00
C640   C     0.24992   0.18459   0.55602   0.00000  Uiso   1.00
Cl641  Cl    0.07392   0.16072   0.58781   0.00000  Uiso   1.00
Cl642  Cl    0.20218   0.28725   0.83802   0.00000  Uiso   1.00
H643   H     0.19751   0.03978   0.81456   0.00000  Uiso   1.00
H644   H     0.02868   0.13448   0.51690   0.00000  Uiso   1.00
H645   H     0.22195   0.11946   0.86360   0.00000  Uiso   1.00
H646   H     0.26964   0.26752   0.64181   0.00000  Uiso   1.00
H647   H     0.01446   0.04436   0.63190   0.00000  Uiso   1.00
H648   H     0.30928   0.08242   0.92994   0.00000  Uiso   1.00
H649   H     0.13380   0.03779   0.68850   0.00000  Uiso   1.00
H650   H     0.13289   0.29455   0.69024   0.00000  Uiso   1.00
H651   H     0.05736   0.11105   0.70491   0.00000  Uiso   1.00
H652   H     0.02723   0.22274   0.79671   0.00000  Uiso   1.00
H653   H     0.27750   0.22244   0.79715   0.00000  Uiso   1.00
H654   H     0.27783   0.15267   0.89704   0.00000  Uiso   1.00
H655   H     0.29527   0.18992   0.97369   0.00000  Uiso   1.00
H656   H     0.14907   0.12814   0.59213   0.00000  Uiso   1.00
N657   N     0.04760   0.16668   0.75001   0.00000  Uiso   1.00
N658   N     0.28573   0.16665   0.75000   0.00000  Uiso   1.00
O659   O     0.12846   0.22775   0.75000   0.00000  Uiso   1.00
O660   O     0.32145   0.23911   0.53642   0.00000  Uiso   1.00
O661   O     0.24968   0.25413   0.62289   0.00000  Uiso   1.00
O662   O     0.28327   0.05839   0.72978   0.00000  Uiso   1.00
O663   O     0.27556   0.10145   0.65570   0.00000  Uiso   1.00
O664   O     0.02379   0.07009   0.64713   0.00000  Uiso   1.00
O665   O     0.02227   0.16189   0.88653   0.00000  Uiso   1.00
O666   O     0.05870   0.09211   0.86016   0.00000  Uiso   1.00
O667   O     0.32391   0.09953   0.95179   0.00000  Uiso   1.00
O668   O     0.20490   0.22774   0.75000   0.00000  Uiso   1.00
O669   O     0.10947   0.16666   0.82681   0.00000  Uiso   1.00
O670   O     0.18591   0.16665   0.82681   0.00000  Uiso   1.00
O671   O     0.12843   0.10559   0.74999   0.00000  Uiso   1.00
O672   O     0.20488   0.10558   0.74999   0.00000  Uiso   1.00
O673   O     0.14742   0.16668   0.67319   0.00000  Uiso   1.00
O674   O     0.22387   0.16667   0.67319   0.00000  Uiso   1.00
O675   O     0.30913   0.19208   0.61298   0.00000  Uiso   1.00
S676   S     0.28490   0.21766   0.58162   0.00000  Uiso   1.00
S677   S     0.30630   0.09098   0.68902   0.00000  Uiso   1.00
S678   S     0.03728   0.12201   0.90678   0.00000  Uiso   1.00
Zn679  Zn    0.11562   0.16667   0.75000   0.00000  Uiso   1.00
Zn680  Zn    0.21771   0.16666   0.75000   0.00000  Uiso   1.00
C681   C     0.49934   0.24649   0.75155   0.00000  Uiso   1.00
C682   C     0.46036   0.14294   0.90690   0.00000  Uiso   1.00
C683   C     0.51645   0.31248   0.78893   0.00000  Uiso   1.00
C684   C     0.47458   0.15884   0.85044   0.00000  Uiso   1.00
C685   C     0.51749   0.02225   0.78707   0.00000  Uiso   1.00
C686   C     0.50016   0.04276   0.75056   0.00000  Uiso   1.00
C687   C     0.48086   0.02129   0.71639   0.00000  Uiso   1.00
C688   C     0.48012   0.31160   0.71761   0.00000  Uiso   1.00
C689   C     0.49839   0.29077   0.75325   0.00000  Uiso   1.00
C690   C     0.65199   0.13537   0.72351   0.00000  Uiso   1.00
C691   C     0.36573   0.13575   0.72454   0.00000  Uiso   1.00
C692   C     0.48098   0.14296   0.98999   0.00000  Uiso   1.00
C693   C     0.34923   0.19773   0.77580   0.00000  Uiso   1.00
C694   C     0.63490   0.19762   0.77600   0.00000  Uiso   1.00
C695   C     0.50025   0.08687   0.74975   0.00000  Uiso   1.00
C696   C     0.52614   0.16743   0.64821   0.00000  Uiso   1.00
C697   C     0.59533   0.17866   0.50018   0.00000  Uiso   1.00
C698   C     0.54171   0.16584   0.58961   0.00000  Uiso   1.00
C699   C     0.41301   0.13494   0.93722   0.00000  Uiso   1.00
C700   C     0.39909   0.13650   0.99345   0.00000  Uiso   1.00
C701   C     0.43179   0.14418   0.51987   0.00000  Uiso   1.00
C702   C     0.49461   0.13866   0.93316   0.00000  Uiso   1.00
C703   C     0.51755   0.14982   0.51250   0.00000  Uiso   1.00
C704   C     0.56323   0.15996   0.97855   0.00000  Uiso   1.00
C705   C     0.57601   0.14942   0.92413   0.00000  Uiso   1.00
C706   C     0.54288   0.13304   0.90387   0.00000  Uiso   1.00
C707   C     0.51110   0.14640   0.56692   0.00000  Uiso   1.00
C708   C     0.58325   0.18459   0.55602   0.00000  Uiso   1.00
Cl709  Cl    0.40726   0.16072   0.58781   0.00000  Uiso   1.00
Cl710  Cl    0.53552   0.28725   0.83802   0.00000  Uiso   1.00
H711   H     0.53085   0.03978   0.81456   0.00000  Uiso   1.00
H712   H     0.36201   0.13448   0.51690   0.00000  Uiso   1.00
H713   H     0.55528   0.11946   0.86360   0.00000  Uiso   1.00
H714   H     0.60297   0.26752   0.64181   0.00000  Uiso   1.00
H715   H     0.34779   0.04436   0.63190   0.00000  Uiso   1.00
H716   H     0.64261   0.08242   0.92994   0.00000  Uiso   1.00
H717   H     0.46714   0.03779   0.68850   0.00000  Uiso   1.00
H718   H     0.46622   0.29455   0.69024   0.00000  Uiso   1.00
H719   H     0.39069   0.11105   0.70491   0.00000  Uiso   1.00
H720   H     0.36056   0.22274   0.79671   0.00000  Uiso   1.00
H721   H     0.61083   0.22244   0.79715   0.00000  Uiso   1.00
H722   H     0.61117   0.15267   0.89704   0.00000  Uiso   1.00
H723   H     0.62860   0.18992   0.97369   0.00000  Uiso   1.00
H724   H     0.48240   0.12814   0.59213   0.00000  Uiso   1.00
N725   N     0.38093   0.16668   0.75001   0.00000  Uiso   1.00
N726   N     0.61906   0.16665   0.75000   0.00000  Uiso   1.00
O727   O     0.46179   0.22775   0.75000   0.00000  Uiso   1.00
O728   O     0.65478   0.23911   0.53642   0.00000  Uiso   1.00
O729   O     0.58301   0.25413   0.62289   0.00000  Uiso   1.00
O730   O     0.61660   0.05839   0.72978   0.00000  Uiso   1.00
O731   O     0.60889   0.10145   0.65570   0.00000  Uiso   1.00
O732   O     0.35712   0.07009   0.64713   0.00000  Uiso   1.00
O733   O     0.35561   0.16189   0.88653   0.00000  Uiso   1.00
O734   O     0.39203   0.09211   0.86016   0.00000  Uiso   1.00
O735   O     0.65725   0.09953   0.95179   0.00000  Uiso   1.00
O736   O     0.53823   0.22774   0.75000   0.00000  Uiso   1.00
O737   O     0.44280   0.16666   0.82681   0.00000  Uiso   1.00
O738   O     0.51924   0.16665   0.82681   0.00000  Uiso   1.00
O739   O     0.46177   0.10559   0.74999   0.00000  Uiso   1.00
O740   O     0.53821   0.10558   0.74999   0.00000  Uiso   1.00
O741   O     0.48076   0.16668   0.67319   0.00000  Uiso   1.00
O742   O     0.55720   0.16667   0.67319   0.00000  Uiso   1.00
O743   O     0.64246   0.19208   0.61298   0.00000  Uiso   1.00
S744   S     0.61823   0.21766   0.58162   0.00000  Uiso   1.00
S745   S     0.63964   0.09098   0.68902   0.00000  Uiso   1.00
S746   S     0.37062   0.12201   0.90678   0.00000  Uiso   1.00
Zn747  Zn    0.44896   0.16667   0.75000   0.00000  Uiso   1.00
Zn748  Zn    0.55104   0.16666   0.75000   0.00000  Uiso   1.00
C749   C     0.83267   0.24649   0.75155   0.00000  Uiso   1.00
C750   C     0.79369   0.14294   0.90690   0.00000  Uiso   1.00
C751   C     0.84978   0.31248   0.78893   0.00000  Uiso   1.00
C752   C     0.80792   0.15884   0.85044   0.00000  Uiso   1.00
C753   C     0.85082   0.02225   0.78707   0.00000  Uiso   1.00
C754   C     0.83349   0.04276   0.75056   0.00000  Uiso   1.00
C755   C     0.81419   0.02129   0.71639   0.00000  Uiso   1.00
C756   C     0.81345   0.31160   0.71761   0.00000  Uiso   1.00
C757   C     0.83172   0.29077   0.75325   0.00000  Uiso   1.00
C758   C     0.98532   0.13537   0.72351   0.00000  Uiso   1.00
C759   C     0.69906   0.13575   0.72454   0.00000  Uiso   1.00
C760   C     0.81431   0.14296   0.98999   0.00000  Uiso   1.00
C761   C     0.68256   0.19773   0.77580   0.00000  Uiso   1.00
C762   C     0.96823   0.19762   0.77600   0.00000  Uiso   1.00
C763   C     0.83359   0.08687   0.74975   0.00000  Uiso   1.00
C764   C     0.85947   0.16743   0.64821   0.00000  Uiso   1.00
C765   C     0.92866   0.17866   0.50018   0.00000  Uiso   1.00
C766   C     0.87504   0.16584   0.58961   0.00000  Uiso   1.00
C767   C     0.74634   0.13494   0.93722   0.00000  Uiso   1.00
C768   C     0.73243   0.13650   0.99345   0.00000  Uiso   1.00
C769   C     0.76512   0.14418   0.51987   0.00000  Uiso   1.00
C770   C     0.82795   0.13866   0.93316   0.00000  Uiso   1.00
C771   C     0.85089   0.14982   0.51250   0.00000  Uiso   1.00
C772   C     0.89657   0.15996   0.97855   0.00000  Uiso   1.00
C773   C     0.90935   0.14942   0.92413   0.00000  Uiso   1.00
C774   C     0.87622   0.13304   0.90387   0.00000  Uiso   1.00
C775   C     0.84443   0.14640   0.56692   0.00000  Uiso   1.00
C776   C     0.91659   0.18459   0.55602   0.00000  Uiso   1.00
Cl777  Cl    0.74059   0.16072   0.58781   0.00000  Uiso   1.00
Cl778  Cl    0.86885   0.28725   0.83802   0.00000  Uiso   1.00
H779   H     0.86418   0.03978   0.81456   0.00000  Uiso   1.00
H780   H     0.69534   0.13448   0.51690   0.00000  Uiso   1.00
H781   H     0.88861   0.11946   0.86360   0.00000  Uiso   1.00
H782   H     0.93630   0.26752   0.64181   0.00000  Uiso   1.00
H783   H     0.68112   0.04436   0.63190   0.00000  Uiso   1.00
H784   H     0.97594   0.08242   0.92994   0.00000  Uiso   1.00
H785   H     0.80047   0.03779   0.68850   0.00000  Uiso   1.00
H786   H     0.79955   0.29455   0.69024   0.00000  Uiso   1.00
H787   H     0.72403   0.11105   0.70491   0.00000  Uiso   1.00
H788   H     0.69390   0.22274   0.79671   0.00000  Uiso   1.00
H789   H     0.94416   0.22244   0.79715   0.00000  Uiso   1.00
H790   H     0.94450   0.15267   0.89704   0.00000  Uiso   1.00
H791   H     0.96193   0.18992   0.97369   0.00000  Uiso   1.00
H792   H     0.81574   0.12814   0.59213   0.00000  Uiso   1.00
N793   N     0.71426   0.16668   0.75001   0.00000  Uiso   1.00
N794   N     0.95239   0.16665   0.75000   0.00000  Uiso   1.00
O795   O     0.79512   0.22775   0.75000   0.00000  Uiso   1.00
O796   O     0.98811   0.23911   0.53642   0.00000  Uiso   1.00
O797   O     0.91634   0.25413   0.62289   0.00000  Uiso   1.00
O798   O     0.94993   0.05839   0.72978   0.00000  Uiso   1.00
O799   O     0.94223   0.10145   0.65570   0.00000  Uiso   1.00
O800   O     0.69045   0.07009   0.64713   0.00000  Uiso   1.00
O801   O     0.68894   0.16189   0.88653   0.00000  Uiso   1.00
O802   O     0.72536   0.09211   0.86016   0.00000  Uiso   1.00
O803   O     0.99058   0.09953   0.95179   0.00000  Uiso   1.00
O804   O     0.87157   0.22774   0.75000   0.00000  Uiso   1.00
O805   O     0.77613   0.16666   0.82681   0.00000  Uiso   1.00
O806   O     0.85258   0.16665   0.82681   0.00000  Uiso   1.00
O807   O     0.79510   0.10559   0.74999   0.00000  Uiso   1.00
O808   O     0.87154   0.10558   0.74999   0.00000  Uiso   1.00
O809   O     0.81409   0.16668   0.67319   0.00000  Uiso   1.00
O810   O     0.89053   0.16667   0.67319   0.00000  Uiso   1.00
O811   O     0.97580   0.19208   0.61298   0.00000  Uiso   1.00
S812   S     0.95156   0.21766   0.58162   0.00000  Uiso   1.00
S813   S     0.97297   0.09098   0.68902   0.00000  Uiso   1.00
S814   S     0.70395   0.12201   0.90678   0.00000  Uiso   1.00
Zn815  Zn    0.78229   0.16667   0.75000   0.00000  Uiso   1.00
Zn816  Zn    0.88438   0.16666   0.75000   0.00000  Uiso   1.00
C817   C     0.16600   0.57983   0.75155   0.00000  Uiso   1.00
C818   C     0.12703   0.47627   0.90690   0.00000  Uiso   1.00
C819   C     0.18312   0.64581   0.78893   0.00000  Uiso   1.00
C820   C     0.14125   0.49218   0.85044   0.00000  Uiso   1.00
C821   C     0.18416   0.35558   0.78707   0.00000  Uiso   1.00
C822   C     0.16682   0.37609   0.75056   0.00000  Uiso   1.00
C823   C     0.14752   0.35462   0.71639   0.00000  Uiso   1.00
C824   C     0.14679   0.64494   0.71761   0.00000  Uiso   1.00
C825   C     0.16506   0.62410   0.75325   0.00000  Uiso   1.00
C826   C     0.31866   0.46870   0.72351   0.00000  Uiso   1.00
C827   C     0.03240   0.46908   0.72454   0.00000  Uiso   1.00
C828   C     0.14764   0.47630   0.98999   0.00000  Uiso   1.00
C829   C     0.01590   0.53107   0.77580   0.00000  Uiso   1.00
C830   C     0.30156   0.53096   0.77600   0.00000  Uiso   1.00
C831   C     0.16692   0.42020   0.74975   0.00000  Uiso   1.00
C832   C     0.19280   0.50076   0.64821   0.00000  Uiso   1.00
C833   C     0.26199   0.51199   0.50018   0.00000  Uiso   1.00
C834   C     0.20838   0.49917   0.58961   0.00000  Uiso   1.00
C835   C     0.07967   0.46827   0.93722   0.00000  Uiso   1.00
C836   C     0.06576   0.46984   0.99345   0.00000  Uiso   1.00
C837   C     0.09845   0.47751   0.51987   0.00000  Uiso   1.00
C838   C     0.16128   0.47199   0.93316   0.00000  Uiso   1.00
C839   C     0.18422   0.48316   0.51250   0.00000  Uiso   1.00
C840   C     0.22990   0.49329   0.97855   0.00000  Uiso   1.00
C841   C     0.24268   0.48275   0.92413   0.00000  Uiso   1.00
C842   C     0.20955   0.46638   0.90387   0.00000  Uiso   1.00
C843   C     0.17776   0.47973   0.56692   0.00000  Uiso   1.00
C844   C     0.24992   0.51793   0.55602   0.00000  Uiso   1.00
Cl845  Cl    0.07392   0.49405   0.58781   0.00000  Uiso   1.00
Cl846  Cl    0.20218   0.62059   0.83802   0.00000  Uiso   1.00
H847   H     0.19751   0.37311   0.81456   0.00000  Uiso   1.00
H848   H     0.02868   0.46781   0.51690   0.00000  Uiso   1.00
H849   H     0.22195   0.45279   0.86360   0.00000  Uiso   1.00
H850   H     0.26964   0.60085   0.64181   0.00000  Uiso   1.00
H851   H     0.01446   0.37770   0.63190   0.00000  Uiso   1.00
H852   H     0.30928   0.41575   0.92994   0.00000  Uiso   1.00
H853   H     0.13380   0.37112   0.68850   0.00000  Uiso   1.00
H854   H     0.13289   0.62789   0.69024   0.00000  Uiso   1.00
H855   H     0.05736   0.44438   0.70491   0.00000  Uiso   1.00
H856   H     0.02723   0.55608   0.79671   0.00000  Uiso   1.00
H857   H     0.27750   0.55577   0.79715   0.00000  Uiso   1.00
H858   H     0.27783   0.48600   0.89704   0.00000  Uiso   1.00
H859   H     0.29527   0.52326   0.97369   0.00000  Uiso   1.00
H860   H     0.14907   0.46148   0.59213   0.00000  Uiso   1.00
N861   N     0.04760   0.50001   0.75001   0.00000  Uiso   1.00
N862   N     0.28573   0.49998   0.75000   0.00000  Uiso   1.00
O863   O     0.12846   0.56108   0.75000   0.00000  Uiso   1.00
O864   O     0.32145   0.57244   0.53642   0.00000  Uiso   1.00
O865   O     0.24968   0.58746   0.62289   0.00000  Uiso   1.00
O866   O     0.28327   0.39172   0.72978   0.00000  Uiso   1.00
O867   O     0.27556   0.43478   0.65570   0.00000  Uiso   1.00
O868   O     0.02379   0.40342   0.64713   0.00000  Uiso   1.00
O869   O     0.02227   0.49522   0.88653   0.00000  Uiso   1.00
O870   O     0.05870   0.42544   0.86016   0.00000  Uiso   1.00
O871   O     0.32391   0.43286   0.95179   0.00000  Uiso   1.00
O872   O     0.20490   0.56107   0.75000   0.00000  Uiso   1.00
O873   O     0.10947   0.50000   0.82681   0.00000  Uiso   1.00
O874   O     0.18591   0.49999   0.82681   0.00000  Uiso   1.00
O875   O     0.12843   0.43893   0.74999   0.00000  Uiso   1.00
O876   O     0.20488   0.43892   0.74999   0.00000  Uiso   1.00
O877   O     0.14742   0.50001   0.67319   0.00000  Uiso   1.00
O878   O     0.22387   0.50000   0.67319   0.00000  Uiso   1.00
O879   O     0.30913   0.52542   0.61298   0.00000  Uiso   1.00
S880   S     0.28490   0.55100   0.58162   0.00000  Uiso   1.00
S881   S     0.30630   0.42432   0.68902   0.00000  Uiso   1.00
S882   S     0.03728   0.45535   0.90678   0.00000  Uiso   1.00
Zn883  Zn    0.11562   0.50001   0.75000   0.00000  Uiso   1.00
Zn884  Zn    0.21771   0.49999   0.75000   0.00000  Uiso   1.00
C885   C     0.49934   0.57983   0.75155   0.00000  Uiso   1.00
C886   C     0.46036   0.47627   0.90690   0.00000  Uiso   1.00
C887   C     0.51645   0.64581   0.78893   0.00000  Uiso   1.00
C888   C     0.47458   0.49218   0.85044   0.00000  Uiso   1.00
C889   C     0.51749   0.35558   0.78707   0.00000  Uiso   1.00
C890   C     0.50016   0.37609   0.75056   0.00000  Uiso   1.00
C891   C     0.48086   0.35462   0.71639   0.00000  Uiso   1.00
C892   C     0.48012   0.64494   0.71761   0.00000  Uiso   1.00
C893   C     0.49839   0.62410   0.75325   0.00000  Uiso   1.00
C894   C     0.65199   0.46870   0.72351   0.00000  Uiso   1.00
C895   C     0.36573   0.46908   0.72454   0.00000  Uiso   1.00
C896   C     0.48098   0.47630   0.98999   0.00000  Uiso   1.00
C897   C     0.34923   0.53107   0.77580   0.00000  Uiso   1.00
C898   C     0.63490   0.53096   0.77600   0.00000  Uiso   1.00
C899   C     0.50025   0.42020   0.74975   0.00000  Uiso   1.00
C900   C     0.52614   0.50076   0.64821   0.00000  Uiso   1.00
C901   C     0.59533   0.51199   0.50018   0.00000  Uiso   1.00
C902   C     0.54171   0.49917   0.58961   0.00000  Uiso   1.00
C903   C     0.41301   0.46827   0.93722   0.00000  Uiso   1.00
C904   C     0.39909   0.46984   0.99345   0.00000  Uiso   1.00
C905   C     0.43179   0.47751   0.51987   0.00000  Uiso   1.00
C906   C     0.49461   0.47199   0.93316   0.00000  Uiso   1.00
C907   C     0.51755   0.48316   0.51250   0.00000  Uiso   1.00
C908   C     0.56323   0.49329   0.97855   0.00000  Uiso   1.00
C909   C     0.57601   0.48275   0.92413   0.00000  Uiso   1.00
C910   C     0.54288   0.46638   0.90387   0.00000  Uiso   1.00
C911   C     0.51110   0.47973   0.56692   0.00000  Uiso   1.00
C912   C     0.58325   0.51793   0.55602   0.00000  Uiso   1.00
Cl913  Cl    0.40726   0.49405   0.58781   0.00000  Uiso   1.00
Cl914  Cl    0.53552   0.62059   0.83802   0.00000  Uiso   1.00
H915   H     0.53085   0.37311   0.81456   0.00000  Uiso   1.00
H916   H     0.36201   0.46781   0.51690   0.00000  Uiso   1.00
H917   H     0.55528   0.45279   0.86360   0.00000  Uiso   1.00
H918   H     0.60297   0.60085   0.64181   0.00000  Uiso   1.00
H919   H     0.34779   0.37770   0.63190   0.00000  Uiso   1.00
H920   H     0.64261   0.41575   0.92994   0.00000  Uiso   1.00
H921   H     0.46714   0.37112   0.68850   0.00000  Uiso   1.00
H922   H     0.46622   0.62789   0.69024   0.00000  Uiso   1.00
H923   H     0.39069   0.44438   0.70491   0.00000  Uiso   1.00
H924   H     0.36056   0.55608   0.79671   0.00000  Uiso   1.00
H925   H     0.61083   0.55577   0.79715   0.00000  Uiso   1.00
H926   H     0.61117   0.48600   0.89704   0.00000  Uiso   1.00
H927   H     0.62860   0.52326   0.97369   0.00000  Uiso   1.00
H928   H     0.48240   0.46148   0.59213   0.00000  Uiso   1.00
N929   N     0.38093   0.50001   0.75001   0.00000  Uiso   1.00
N930   N     0.61906   0.49998   0.75000   0.00000  Uiso   1.00
O931   O     0.46179   0.56108   0.75000   0.00000  Uiso   1.00
O932   O     0.65478   0.57244   0.53642   0.00000  Uiso   1.00
O933   O     0.58301   0.58746   0.62289   0.00000  Uiso   1.00
O934   O     0.61660   0.39172   0.72978   0.00000  Uiso   1.00
O935   O     0.60889   0.43478   0.65570   0.00000  Uiso   1.00
O936   O     0.35712   0.40342   0.64713   0.00000  Uiso   1.00
O937   O     0.35561   0.49522   0.88653   0.00000  Uiso   1.00
O938   O     0.39203   0.42544   0.86016   0.00000  Uiso   1.00
O939   O     0.65725   0.43286   0.95179   0.00000  Uiso   1.00
O940   O     0.53823   0.56107   0.75000   0.00000  Uiso   1.00
O941   O     0.44280   0.50000   0.82681   0.00000  Uiso   1.00
O942   O     0.51924   0.49999   0.82681   0.00000  Uiso   1.00
O943   O     0.46177   0.43893   0.74999   0.00000  Uiso   1.00
O944   O     0.53821   0.43892   0.74999   0.00000  Uiso   1.00
O945   O     0.48076   0.50001   0.67319   0.00000  Uiso   1.00
O946   O     0.55720   0.50000   0.67319   0.00000  Uiso   1.00
O947   O     0.64246   0.52542   0.61298   0.00000  Uiso   1.00
S948   S     0.61823   0.55100   0.58162   0.00000  Uiso   1.00
S949   S     0.63964   0.42432   0.68902   0.00000  Uiso   1.00
S950   S     0.37062   0.45535   0.90678   0.00000  Uiso   1.00
Zn951  Zn    0.44896   0.50001   0.75000   0.00000  Uiso   1.00
Zn952  Zn    0.55104   0.49999   0.75000   0.00000  Uiso   1.00
C953   C     0.83267   0.57983   0.75155   0.00000  Uiso   1.00
C954   C     0.79369   0.47627   0.90690   0.00000  Uiso   1.00
C955   C     0.84978   0.64581   0.78893   0.00000  Uiso   1.00
C956   C     0.80792   0.49218   0.85044   0.00000  Uiso   1.00
C957   C     0.85082   0.35558   0.78707   0.00000  Uiso   1.00
C958   C     0.83349   0.37609   0.75056   0.00000  Uiso   1.00
C959   C     0.81419   0.35462   0.71639   0.00000  Uiso   1.00
C960   C     0.81345   0.64494   0.71761   0.00000  Uiso   1.00
C961   C     0.83172   0.62410   0.75325   0.00000  Uiso   1.00
C962   C     0.98532   0.46870   0.72351   0.00000  Uiso   1.00
C963   C     0.69906   0.46908   0.72454   0.00000  Uiso   1.00
C964   C     0.81431   0.47630   0.98999   0.00000  Uiso   1.00
C965   C     0.68256   0.53107   0.77580   0.00000  Uiso   1.00
C966   C     0.96823   0.53096   0.77600   0.00000  Uiso   1.00
C967   C     0.83359   0.42020   0.74975   0.00000  Uiso   1.00
C968   C     0.85947   0.50076   0.64821   0.00000  Uiso   1.00
C969   C     0.92866   0.51199   0.50018   0.00000  Uiso   1.00
C970   C     0.87504   0.49917   0.58961   0.00000  Uiso   1.00
C971   C     0.74634   0.46827   0.93722   0.00000  Uiso   1.00
C972   C     0.73243   0.46984   0.99345   0.00000  Uiso   1.00
C973   C     0.76512   0.47751   0.51987   0.00000  Uiso   1.00
C974   C     0.82795   0.47199   0.93316   0.00000  Uiso   1.00
C975   C     0.85089   0.48316   0.51250   0.00000  Uiso   1.00
C976   C     0.89657   0.49329   0.97855   0.00000  Uiso   1.00
C977   C     0.90935   0.48275   0.92413   0.00000  Uiso   1.00
C978   C     0.87622   0.46638   0.90387   0.00000  Uiso   1.00
C979   C     0.84443   0.47973   0.56692   0.00000  Uiso   1.00
C980   C     0.91659   0.51793   0.55602   0.00000  Uiso   1.00
Cl981  Cl    0.74059   0.49405   0.58781   0.00000  Uiso   1.00
Cl982  Cl    0.86885   0.62059   0.83802   0.00000  Uiso   1.00
H983   H     0.86418   0.37311   0.81456   0.00000  Uiso   1.00
H984   H     0.69534   0.46781   0.51690   0.00000  Uiso   1.00
H985   H     0.88861   0.45279   0.86360   0.00000  Uiso   1.00
H986   H     0.93630   0.60085   0.64181   0.00000  Uiso   1.00
H987   H     0.68112   0.37770   0.63190   0.00000  Uiso   1.00
H988   H     0.97594   0.41575   0.92994   0.00000  Uiso   1.00
H989   H     0.80047   0.37112   0.68850   0.00000  Uiso   1.00
H990   H     0.79955   0.62789   0.69024   0.00000  Uiso   1.00
H991   H     0.72403   0.44438   0.70491   0.00000  Uiso   1.00
H992   H     0.69390   0.55608   0.79671   0.00000  Uiso   1.00
H993   H     0.94416   0.55577   0.79715   0.00000  Uiso   1.00
H994   H     0.94450   0.48600   0.89704   0.00000  Uiso   1.00
H995   H     0.96193   0.52326   0.97369   0.00000  Uiso   1.00
H996   H     0.81574   0.46148   0.59213   0.00000  Uiso   1.00
N997   N     0.71426   0.50001   0.75001   0.00000  Uiso   1.00
N998   N     0.95239   0.49998   0.75000   0.00000  Uiso   1.00
O999   O     0.79512   0.56108   0.75000   0.00000  Uiso   1.00
O1000  O     0.98811   0.57244   0.53642   0.00000  Uiso   1.00
O1001  O     0.91634   0.58746   0.62289   0.00000  Uiso   1.00
O1002  O     0.94993   0.39172   0.72978   0.00000  Uiso   1.00
O1003  O     0.94223   0.43478   0.65570   0.00000  Uiso   1.00
O1004  O     0.69045   0.40342   0.64713   0.00000  Uiso   1.00
O1005  O     0.68894   0.49522   0.88653   0.00000  Uiso   1.00
O1006  O     0.72536   0.42544   0.86016   0.00000  Uiso   1.00
O1007  O     0.99058   0.43286   0.95179   0.00000  Uiso   1.00
O1008  O     0.87157   0.56107   0.75000   0.00000  Uiso   1.00
O1009  O     0.77613   0.50000   0.82681   0.00000  Uiso   1.00
O1010  O     0.85258   0.49999   0.82681   0.00000  Uiso   1.00
O1011  O     0.79510   0.43893   0.74999   0.00000  Uiso   1.00
O1012  O     0.87154   0.43892   0.74999   0.00000  Uiso   1.00
O1013  O     0.81409   0.50001   0.67319   0.00000  Uiso   1.00
O1014  O     0.89053   0.50000   0.67319   0.00000  Uiso   1.00
O1015  O     0.97580   0.52542   0.61298   0.00000  Uiso   1.00
S1016  S     0.95156   0.55100   0.58162   0.00000  Uiso   1.00
S1017  S     0.97297   0.42432   0.68902   0.00000  Uiso   1.00
S1018  S     0.70395   0.45535   0.90678   0.00000  Uiso   1.00
Zn1019 Zn    0.78229   0.50001   0.75000   0.00000  Uiso   1.00
Zn1020 Zn    0.88438   0.49999   0.75000   0.00000  Uiso   1.00
C1021  C     0.16600   0.91316   0.75155   0.00000  Uiso   1.00
C1022  C     0.12703   0.80961   0.90690   0.00000  Uiso   1.00
C1023  C     0.18312   0.97914   0.78893   0.00000  Uiso   1.00
C1024  C     0.14125   0.82551   0.85044   0.00000  Uiso   1.00
C1025  C     0.18416   0.68891   0.78707   0.00000  Uiso   1.00
C1026  C     0.16682   0.70942   0.75056   0.00000  Uiso   1.00
C1027  C     0.14752   0.68796   0.71639   0.00000  Uiso   1.00
C1028  C     0.14679   0.97827   0.71761   0.00000  Uiso   1.00
C1029  C     0.16506   0.95744   0.75325   0.00000  Uiso   1.00
C1030  C     0.31866   0.80203   0.72351   0.00000  Uiso   1.00
C1031  C     0.03240   0.80242   0.72454   0.00000  Uiso   1.00
C1032  C     0.14764   0.80963   0.98999   0.00000  Uiso   1.00
C1033  C     0.01590   0.86440   0.77580   0.00000  Uiso   1.00
C1034  C     0.30156   0.86429   0.77600   0.00000  Uiso   1.00
C1035  C     0.16692   0.75353   0.74975   0.00000  Uiso   1.00
C1036  C     0.19280   0.83409   0.64821   0.00000  Uiso   1.00
C1037  C     0.26199   0.84532   0.50018   0.00000  Uiso   1.00
C1038  C     0.20838   0.83250   0.58961   0.00000  Uiso   1.00
C1039  C     0.07967   0.80161   0.93722   0.00000  Uiso   1.00
C1040  C     0.06576   0.80317   0.99345   0.00000  Uiso   1.00
C1041  C     0.09845   0.81084   0.51987   0.00000  Uiso   1.00
C1042  C     0.16128   0.80532   0.93316   0.00000  Uiso   1.00
C1043  C     0.18422   0.81649   0.51250   0.00000  Uiso   1.00
C1044  C     0.22990   0.82663   0.97855   0.00000  Uiso   1.00
C1045  C     0.24268   0.81609   0.92413   0.00000  Uiso   1.00
C1046  C     0.20955   0.79971   0.90387   0.00000  Uiso   1.00
C1047  C     0.17776   0.81306   0.56692   0.00000  Uiso   1.00
C1048  C     0.24992   0.85126   0.55602   0.00000  Uiso   1.00
Cl1049 Cl    0.07392   0.82738   0.58781   0.00000  Uiso   1.00
Cl1050 Cl    0.20218   0.95392   0.83802   0.00000  Uiso   1.00
H1051  H     0.19751   0.70644   0.81456   0.00000  Uiso   1.00
H1052  H     0.02868   0.80115   0.51690   0.00000  Uiso   1.00
H1053  H     0.22195   0.78612   0.86360   0.00000  Uiso   1.00
H1054  H     0.26964   0.93419   0.64181   0.00000  Uiso   1.00
H1055  H     0.01446   0.71103   0.63190   0.00000  Uiso   1.00
H1056  H     0.30928   0.74909   0.92994   0.00000  Uiso   1.00
H1057  H     0.13380   0.70446   0.68850   0.00000  Uiso   1.00
H1058  H     0.13289   0.96122   0.69024   0.00000  Uiso   1.00
H1059  H     0.05736   0.77771   0.70491   0.00000  Uiso   1.00
H1060  H     0.02723   0.88941   0.79671   0.00000  Uiso   1.00
H1061  H     0.27750   0.88910   0.79715   0.00000  Uiso   1.00
H1062  H     0.27783   0.81934   0.89704   0.00000  Uiso   1.00
H1063  H     0.29527   0.85659   0.97369   0.00000  Uiso   1.00
H1064  H     0.14907   0.79481   0.59213   0.00000  Uiso   1.00
N1065  N     0.04760   0.83334   0.75001   0.00000  Uiso   1.00
N1066  N     0.28573   0.83331   0.75000   0.00000  Uiso   1.00
O1067  O     0.12846   0.89442   0.75000   0.00000  Uiso   1.00
O1068  O     0.32145   0.90577   0.53642   0.00000  Uiso   1.00
O1069  O     0.24968   0.92079   0.62289   0.00000  Uiso   1.00
O1070  O     0.28327   0.72506   0.72978   0.00000  Uiso   1.00
O1071  O     0.27556   0.76812   0.65570   0.00000  Uiso   1.00
O1072  O     0.02379   0.73676   0.64713   0.00000  Uiso   1.00
O1073  O     0.02227   0.82855   0.88653   0.00000  Uiso   1.00
O1074  O     0.05870   0.75877   0.86016   0.00000  Uiso   1.00
O1075  O     0.32391   0.76620   0.95179   0.00000  Uiso   1.00
O1076  O     0.20490   0.89441   0.75000   0.00000  Uiso   1.00
O1077  O     0.10947   0.83333   0.82681   0.00000  Uiso   1.00
O1078  O     0.18591   0.83332   0.82681   0.00000  Uiso   1.00
O1079  O     0.12843   0.77226   0.74999   0.00000  Uiso   1.00
O1080  O     0.20488   0.77225   0.74999   0.00000  Uiso   1.00
O1081  O     0.14742   0.83335   0.67319   0.00000  Uiso   1.00
O1082  O     0.22387   0.83334   0.67319   0.00000  Uiso   1.00
O1083  O     0.30913   0.85875   0.61298   0.00000  Uiso   1.00
S1084  S     0.28490   0.88433   0.58162   0.00000  Uiso   1.00
S1085  S     0.30630   0.75765   0.68902   0.00000  Uiso   1.00
S1086  S     0.03728   0.78868   0.90678   0.00000  Uiso   1.00
Zn1087 Zn    0.11562   0.83334   0.75000   0.00000  Uiso   1.00
Zn1088 Zn    0.21771   0.83333   0.75000   0.00000  Uiso   1.00
C1089  C     0.49934   0.91316   0.75155   0.00000  Uiso   1.00
C1090  C     0.46036   0.80961   0.90690   0.00000  Uiso   1.00
C1091  C     0.51645   0.97914   0.78893   0.00000  Uiso   1.00
C1092  C     0.47458   0.82551   0.85044   0.00000  Uiso   1.00
C1093  C     0.51749   0.68891   0.78707   0.00000  Uiso   1.00
C1094  C     0.50016   0.70942   0.75056   0.00000  Uiso   1.00
C1095  C     0.48086   0.68796   0.71639   0.00000  Uiso   1.00
C1096  C     0.48012   0.97827   0.71761   0.00000  Uiso   1.00
C1097  C     0.49839   0.95744   0.75325   0.00000  Uiso   1.00
C1098  C     0.65199   0.80203   0.72351   0.00000  Uiso   1.00
C1099  C     0.36573   0.80242   0.72454   0.00000  Uiso   1.00
C1100  C     0.48098   0.80963   0.98999   0.00000  Uiso   1.00
C1101  C     0.34923   0.86440   0.77580   0.00000  Uiso   1.00
C1102  C     0.63490   0.86429   0.77600   0.00000  Uiso   1.00
C1103  C     0.50025   0.75353   0.74975   0.00000  Uiso   1.00
C1104  C     0.52614   0.83409   0.64821   0.00000  Uiso   1.00
C1105  C     0.59533   0.84532   0.50018   0.00000  Uiso   1.00
C1106  C     0.54171   0.83250   0.58961   0.00000  Uiso   1.00
C1107  C     0.41301   0.80161   0.93722   0.00000  Uiso   1.00
C1108  C     0.39909   0.80317   0.99345   0.00000  Uiso   1.00
C1109  C     0.43179   0.81084   0.51987   0.00000  Uiso   1.00
C1110  C     0.49461   0.80532   0.93316   0.00000  Uiso   1.00
C1111  C     0.51755   0.81649   0.51250   0.00000  Uiso   1.00
C1112  C     0.56323   0.82663   0.97855   0.00000  Uiso   1.00
C1113  C     0.57601   0.81609   0.92413   0.00000  Uiso   1.00
C1114  C     0.54288   0.79971   0.90387   0.00000  Uiso   1.00
C1115  C     0.51110   0.81306   0.56692   0.00000  Uiso   1.00
C1116  C     0.58325   0.85126   0.55602   0.00000  Uiso   1.00
Cl1117 Cl    0.40726   0.82738   0.58781   0.00000  Uiso   1.00
Cl1118 Cl    0.53552   0.95392   0.83802   0.00000  Uiso   1.00
H1119  H     0.53085   0.70644   0.81456   0.00000  Uiso   1.00
H1120  H     0.36201   0.80115   0.51690   0.00000  Uiso   1.00
H1121  H     0.55528   0.78612   0.86360   0.00000  Uiso   1.00
H1122  H     0.60297   0.93419   0.64181   0.00000  Uiso   1.00
H1123  H     0.34779   0.71103   0.63190   0.00000  Uiso   1.00
H1124  H     0.64261   0.74909   0.92994   0.00000  Uiso   1.00
H1125  H     0.46714   0.70446   0.68850   0.00000  Uiso   1.00
H1126  H     0.46622   0.96122   0.69024   0.00000  Uiso   1.00
H1127  H     0.39069   0.77771   0.70491   0.00000  Uiso   1.00
H1128  H     0.36056   0.88941   0.79671   0.00000  Uiso   1.00
H1129  H     0.61083   0.88910   0.79715   0.00000  Uiso   1.00
H1130  H     0.61117   0.81934   0.89704   0.00000  Uiso   1.00
H1131  H     0.62860   0.85659   0.97369   0.00000  Uiso   1.00
H1132  H     0.48240   0.79481   0.59213   0.00000  Uiso   1.00
N1133  N     0.38093   0.83334   0.75001   0.00000  Uiso   1.00
N1134  N     0.61906   0.83331   0.75000   0.00000  Uiso   1.00
O1135  O     0.46179   0.89442   0.75000   0.00000  Uiso   1.00
O1136  O     0.65478   0.90577   0.53642   0.00000  Uiso   1.00
O1137  O     0.58301   0.92079   0.62289   0.00000  Uiso   1.00
O1138  O     0.61660   0.72506   0.72978   0.00000  Uiso   1.00
O1139  O     0.60889   0.76812   0.65570   0.00000  Uiso   1.00
O1140  O     0.35712   0.73676   0.64713   0.00000  Uiso   1.00
O1141  O     0.35561   0.82855   0.88653   0.00000  Uiso   1.00
O1142  O     0.39203   0.75877   0.86016   0.00000  Uiso   1.00
O1143  O     0.65725   0.76620   0.95179   0.00000  Uiso   1.00
O1144  O     0.53823   0.89441   0.75000   0.00000  Uiso   1.00
O1145  O     0.44280   0.83333   0.82681   0.00000  Uiso   1.00
O1146  O     0.51924   0.83332   0.82681   0.00000  Uiso   1.00
O1147  O     0.46177   0.77226   0.74999   0.00000  Uiso   1.00
O1148  O     0.53821   0.77225   0.74999   0.00000  Uiso   1.00
O1149  O     0.48076   0.83335   0.67319   0.00000  Uiso   1.00
O1150  O     0.55720   0.83334   0.67319   0.00000  Uiso   1.00
O1151  O     0.64246   0.85875   0.61298   0.00000  Uiso   1.00
S1152  S     0.61823   0.88433   0.58162   0.00000  Uiso   1.00
S1153  S     0.63964   0.75765   0.68902   0.00000  Uiso   1.00
S1154  S     0.37062   0.78868   0.90678   0.00000  Uiso   1.00
Zn1155 Zn    0.44896   0.83334   0.75000   0.00000  Uiso   1.00
Zn1156 Zn    0.55104   0.83333   0.75000   0.00000  Uiso   1.00
C1157  C     0.83267   0.91316   0.75155   0.00000  Uiso   1.00
C1158  C     0.79369   0.80961   0.90690   0.00000  Uiso   1.00
C1159  C     0.84978   0.97914   0.78893   0.00000  Uiso   1.00
C1160  C     0.80792   0.82551   0.85044   0.00000  Uiso   1.00
C1161  C     0.85082   0.68891   0.78707   0.00000  Uiso   1.00
C1162  C     0.83349   0.70942   0.75056   0.00000  Uiso   1.00
C1163  C     0.81419   0.68796   0.71639   0.00000  Uiso   1.00
C1164  C     0.81345   0.97827   0.71761   0.00000  Uiso   1.00
C1165  C     0.83172   0.95744   0.75325   0.00000  Uiso   1.00
C1166  C     0.98532   0.80203   0.72351   0.00000  Uiso   1.00
C1167  C     0.69906   0.80242   0.72454   0.00000  Uiso   1.00
C1168  C     0.81431   0.80963   0.98999   0.00000  Uiso   1.00
C1169  C     0.68256   0.86440   0.77580   0.00000  Uiso   1.00
C1170  C     0.96823   0.86429   0.77600   0.00000  Uiso   1.00
C1171  C     0.83359   0.75353   0.74975   0.00000  Uiso   1.00
C1172  C     0.85947   0.83409   0.64821   0.00000  Uiso   1.00
C1173  C     0.92866   0.84532   0.50018   0.00000  Uiso   1.00
C1174  C     0.87504   0.83250   0.58961   0.00000  Uiso   1.00
C1175  C     0.74634   0.80161   0.93722   0.00000  Uiso   1.00
C1176  C     0.73243   0.80317   0.99345   0.00000  Uiso   1.00
C1177  C     0.76512   0.81084   0.51987   0.00000  Uiso   1.00
C1178  C     0.82795   0.80532   0.93316   0.00000  Uiso   1.00
C1179  C     0.85089   0.81649   0.51250   0.00000  Uiso   1.00
C1180  C     0.89657   0.82663   0.97855   0.00000  Uiso   1.00
C1181  C     0.90935   0.81609   0.92413   0.00000  Uiso   1.00
C1182  C     0.87622   0.79971   0.90387   0.00000  Uiso   1.00
C1183  C     0.84443   0.81306   0.56692   0.00000  Uiso   1.00
C1184  C     0.91659   0.85126   0.55602   0.00000  Uiso   1.00
Cl1185 Cl    0.74059   0.82738   0.58781   0.00000  Uiso   1.00
Cl1186 Cl    0.86885   0.95392   0.83802   0.00000  Uiso   1.00
H1187  H     0.86418   0.70644   0.81456   0.00000  Uiso   1.00
H1188  H     0.69534   0.80115   0.51690   0.00000  Uiso   1.00
H1189  H     0.88861   0.78612   0.86360   0.00000  Uiso   1.00
H1190  H     0.93630   0.93419   0.64181   0.00000  Uiso   1.00
H1191  H     0.68112   0.71103   0.63190   0.00000  Uiso   1.00
H1192  H     0.97594   0.74909   0.92994   0.00000  Uiso   1.00
H1193  H     0.80047   0.70446   0.68850   0.00000  Uiso   1.00
H1194  H     0.79955   0.96122   0.69024   0.00000  Uiso   1.00
H1195  H     0.72403   0.77771   0.70491   0.00000  Uiso   1.00
H1196  H     0.69390   0.88941   0.79671   0.00000  Uiso   1.00
H1197  H     0.94416   0.88910   0.79715   0.00000  Uiso   1.00
H1198  H     0.94450   0.81934   0.89704   0.00000  Uiso   1.00
H1199  H     0.96193   0.85659   0.97369   0.00000  Uiso   1.00
H1200  H     0.81574   0.79481   0.59213   0.00000  Uiso   1.00
N1201  N     0.71426   0.83334   0.75001   0.00000  Uiso   1.00
N1202  N     0.95239   0.83331   0.75000   0.00000  Uiso   1.00
O1203  O     0.79512   0.89442   0.75000   0.00000  Uiso   1.00
O1204  O     0.98811   0.90577   0.53642   0.00000  Uiso   1.00
O1205  O     0.91634   0.92079   0.62289   0.00000  Uiso   1.00
O1206  O     0.94993   0.72506   0.72978   0.00000  Uiso   1.00
O1207  O     0.94223   0.76812   0.65570   0.00000  Uiso   1.00
O1208  O     0.69045   0.73676   0.64713   0.00000  Uiso   1.00
O1209  O     0.68894   0.82855   0.88653   0.00000  Uiso   1.00
O1210  O     0.72536   0.75877   0.86016   0.00000  Uiso   1.00
O1211  O     0.99058   0.76620   0.95179   0.00000  Uiso   1.00
O1212  O     0.87157   0.89441   0.75000   0.00000  Uiso   1.00
O1213  O     0.77613   0.83333   0.82681   0.00000  Uiso   1.00
O1214  O     0.85258   0.83332   0.82681   0.00000  Uiso   1.00
O1215  O     0.79510   0.77226   0.74999   0.00000  Uiso   1.00
O1216  O     0.87154   0.77225   0.74999   0.00000  Uiso   1.00
O1217  O     0.81409   0.83335   0.67319   0.00000  Uiso   1.00
O1218  O     0.89053   0.83334   0.67319   0.00000  Uiso   1.00
O1219  O     0.97580   0.85875   0.61298   0.00000  Uiso   1.00
S1220  S     0.95156   0.88433   0.58162   0.00000  Uiso   1.00
S1221  S     0.97297   0.75765   0.68902   0.00000  Uiso   1.00
S1222  S     0.70395   0.78868   0.90678   0.00000  Uiso   1.00
Zn1223 Zn    0.78229   0.83334   0.75000   0.00000  Uiso   1.00
Zn1224 Zn    0.88438   0.83333   0.75000   0.00000  Uiso   1.00
loop_
_geom_bond_atom_site_label_1
_geom_bond_atom_site_label_2
_geom_bond_distance
_geom_bond_site_symmetry_2
_ccdc_geom_bond_type
C1     C9      1.410   .     S
C1     O56     1.290   .     A
C1     O47     1.293   .     A
C2     C22     1.415   .     A
C2     C4      1.496   .     S
C2     C19     1.410   .     A
C3     Cl30    1.764   .     S
C3     C9      1.404   .     A
C3     C209    1.375   .     S
C4     O58     1.307   .     A
C4     O57     1.316   .     A
C5     C6      1.392   .     A
C5     H31     1.085   .     S
C5     C411    1.375   1_545 S
C6     C7      1.393   .     A
C6     C15     1.405   .     S
C7     H37     1.084   .     S
C7     C416    1.371   1_545 S
C8     H38     1.084   .     S
C8     C9      1.395   .     A
C8     C211    1.371   .     S
C10    N46     1.400   .     A
C10    S65     1.777   .     S
C10    C79     1.419   .     S
C11    N45     1.349   .     A
C11    H39     1.081   .     S
C11    C146    1.419   1_455 S
C12    C22     1.415   .     A
C12    C633    1.425   .     S
C12    C635    1.422   .     S
C13    N45     1.371   .     A
C13    H40     1.082   .     S
C13    C150    1.426   1_455 S
C14    N46     1.369   .     A
C14    H41     1.080   .     S
C14    C81     1.426   .     S
C15    O60     1.293   .     A
C15    O59     1.289   .     A
C16    O62     1.300   .     A
C16    O61     1.303   .     A
C16    C18     1.452   .     S
C17    C28     1.398   .     A
C17    C636    1.401   1_554 S
C17    H655    1.081   1_554 S
C18    C28     1.413   .     A
C18    C27     1.393   .     A
C19    C20     1.394   .     A
C19    S66     1.757   .     S
C20    C633    1.394   .     S
C20    H644    1.083   .     S
C21    Cl29    1.762   .     S
C21    C624    1.425   1_554 S
C21    C632    1.394   1_554 S
C22    C26     1.407   .     A
C23    C27     1.381   .     A
C23    C624    1.422   1_554 S
C23    C636    1.412   1_554 S
C24    C25     1.387   .     A
C24    C635    1.412   .     S
C24    C629    1.401   .     S
C25    H42     1.068   .     S
C25    C26     1.375   .     A
C26    H33     1.082   .     S
C27    H44     1.079   .     S
C28    S64     1.770   .     S
H32    C632    1.083   1_554 S
H34    O49     0.991   .     S
H35    O52     0.991   .     S
H36    O55     0.990   .     S
H43    C629    1.081   .     S
N45    Zn67    2.037   .     S
N46    Zn68    2.037   .     S
O47    Zn67    1.988   .     S
O48    S64     1.503   .     D
O49    S64     1.682   .     S
O50    S65     1.502   .     D
O51    S65     1.497   .     D
O52    S201    1.683   1_455 S
O53    S66     1.500   .     D
O54    S66     1.504   .     D
O55    S134    1.683   .     S
O56    Zn68    1.978   .     S
O57    Zn67    1.960   .     S
O58    Zn68    1.926   .     S
O59    Zn67    1.978   .     S
O60    Zn68    1.988   .     S
O61    Zn67    1.926   .     S
O62    Zn68    1.960   .     S
O63    S64     1.500   .     D
S65    O120    1.683   .     S
S66    O191    1.683   1_455 S
C69    C77     1.410   .     S
C69    O124    1.290   .     A
C69    O115    1.293   .     A
C70    C90     1.415   .     A
C70    C72     1.496   .     S
C70    C87     1.410   .     A
C71    Cl98    1.764   .     S
C71    C77     1.404   .     A
C71    C277    1.375   .     S
C72    O126    1.307   .     A
C72    O125    1.316   .     A
C73    C74     1.392   .     A
C73    H99     1.085   .     S
C73    C479    1.375   1_545 S
C74    C75     1.393   .     A
C74    C83     1.405   .     S
C75    H105    1.084   .     S
C75    C484    1.371   1_545 S
C76    H106    1.084   .     S
C76    C77     1.395   .     A
C76    C279    1.371   .     S
C78    N114    1.400   .     A
C78    S133    1.777   .     S
C78    C147    1.419   .     S
C79    N113    1.349   .     A
C79    H107    1.081   .     S
C80    C90     1.415   .     A
C80    C701    1.425   .     S
C80    C703    1.422   .     S
C81    N113    1.371   .     A
C81    H108    1.082   .     S
C82    N114    1.369   .     A
C82    H109    1.080   .     S
C82    C149    1.426   .     S
C83    O128    1.293   .     A
C83    O127    1.289   .     A
C84    O130    1.300   .     A
C84    O129    1.303   .     A
C84    C86     1.452   .     S
C85    C96     1.398   .     A
C85    C704    1.401   1_554 S
C85    H723    1.081   1_554 S
C86    C96     1.413   .     A
C86    C95     1.393   .     A
C87    C88     1.394   .     A
C87    S134    1.757   .     S
C88    C701    1.394   .     S
C88    H712    1.083   .     S
C89    Cl97    1.762   .     S
C89    C692    1.425   1_554 S
C89    C700    1.394   1_554 S
C90    C94     1.407   .     A
C91    C95     1.381   .     A
C91    C692    1.422   1_554 S
C91    C704    1.412   1_554 S
C92    C93     1.387   .     A
C92    C703    1.412   .     S
C92    C697    1.401   .     S
C93    H110    1.068   .     S
C93    C94     1.375   .     A
C94    H101    1.082   .     S
C95    H112    1.079   .     S
C96    S132    1.770   .     S
H100   C700    1.083   1_554 S
H102   O117    0.991   .     S
H103   O120    0.991   .     S
H104   O123    0.990   .     S
H111   C697    1.081   .     S
N113   Zn135   2.037   .     S
N114   Zn136   2.037   .     S
O115   Zn135   1.988   .     S
O116   S132    1.503   .     D
O117   S132    1.682   .     S
O118   S133    1.502   .     D
O119   S133    1.497   .     D
O121   S134    1.500   .     D
O122   S134    1.504   .     D
O123   S202    1.683   .     S
O124   Zn136   1.978   .     S
O125   Zn135   1.960   .     S
O126   Zn136   1.926   .     S
O127   Zn135   1.978   .     S
O128   Zn136   1.988   .     S
O129   Zn135   1.926   .     S
O130   Zn136   1.960   .     S
O131   S132    1.500   .     D
S133   O188    1.683   .     S
C137   C145    1.410   .     S
C137   O192    1.290   .     A
C137   O183    1.293   .     A
C138   C158    1.415   .     A
C138   C140    1.496   .     S
C138   C155    1.410   .     A
C139   Cl166   1.764   .     S
C139   C145    1.404   .     A
C139   C345    1.375   .     S
C140   O194    1.307   .     A
C140   O193    1.316   .     A
C141   C142    1.392   .     A
C141   H167    1.085   .     S
C141   C547    1.375   1_545 S
C142   C143    1.393   .     A
C142   C151    1.405   .     S
C143   H173    1.084   .     S
C143   C552    1.371   1_545 S
C144   H174    1.084   .     S
C144   C145    1.395   .     A
C144   C347    1.371   .     S
C146   N182    1.400   .     A
C146   S201    1.777   .     S
C146   C11     1.419   1_655 S
C147   N181    1.349   .     A
C147   H175    1.081   .     S
C148   C158    1.415   .     A
C148   C769    1.425   .     S
C148   C771    1.422   .     S
C149   N181    1.371   .     A
C149   H176    1.082   .     S
C150   N182    1.369   .     A
C150   H177    1.080   .     S
C150   C13     1.426   1_655 S
C151   O196    1.293   .     A
C151   O195    1.289   .     A
C152   O198    1.300   .     A
C152   O197    1.303   .     A
C152   C154    1.452   .     S
C153   C164    1.398   .     A
C153   C772    1.401   1_554 S
C153   H791    1.081   1_554 S
C154   C164    1.413   .     A
C154   C163    1.393   .     A
C155   C156    1.394   .     A
C155   S202    1.757   .     S
C156   C769    1.394   .     S
C156   H780    1.083   .     S
C157   Cl165   1.762   .     S
C157   C760    1.425   1_554 S
C157   C768    1.394   1_554 S
C158   C162    1.407   .     A
C159   C163    1.381   .     A
C159   C760    1.422   1_554 S
C159   C772    1.412   1_554 S
C160   C161    1.387   .     A
C160   C771    1.412   .     S
C160   C765    1.401   .     S
C161   H178    1.068   .     S
C161   C162    1.375   .     A
C162   H169    1.082   .     S
C163   H180    1.079   .     S
C164   S200    1.770   .     S
H168   C768    1.083   1_554 S
H170   O185    0.991   .     S
H171   O188    0.991   .     S
H172   O191    0.990   .     S
H179   C765    1.081   .     S
N181   Zn203   2.037   .     S
N182   Zn204   2.037   .     S
O183   Zn203   1.988   .     S
O184   S200    1.503   .     D
O185   S200    1.682   .     S
O186   S201    1.502   .     D
O187   S201    1.497   .     D
O189   S202    1.500   .     D
O190   S202    1.504   .     D
O191   S66     1.683   1_655 S
O192   Zn204   1.978   .     S
O193   Zn203   1.960   .     S
O194   Zn204   1.926   .     S
O195   Zn203   1.978   .     S
O196   Zn204   1.988   .     S
O197   Zn203   1.926   .     S
O198   Zn204   1.960   .     S
O199   S200    1.500   .     D
S201   O52     1.683   1_655 S
C205   C213    1.410   .     S
C205   O260    1.290   .     A
C205   O251    1.293   .     A
C206   C226    1.415   .     A
C206   C208    1.496   .     S
C206   C223    1.410   .     A
C207   Cl234   1.764   .     S
C207   C213    1.404   .     A
C207   C413    1.375   .     S
C208   O262    1.307   .     A
C208   O261    1.316   .     A
C209   C210    1.392   .     A
C209   H235    1.085   .     S
C210   C211    1.393   .     A
C210   C219    1.405   .     S
C211   H241    1.084   .     S
C212   H242    1.084   .     S
C212   C213    1.395   .     A
C212   C415    1.371   .     S
C214   N250    1.400   .     A
C214   S269    1.777   .     S
C214   C283    1.419   .     S
C215   N249    1.349   .     A
C215   H243    1.081   .     S
C215   C350    1.419   1_455 S
C216   C226    1.415   .     A
C216   C837    1.425   .     S
C216   C839    1.422   .     S
C217   N249    1.371   .     A
C217   H244    1.082   .     S
C217   C354    1.426   1_455 S
C218   N250    1.369   .     A
C218   H245    1.080   .     S
C218   C285    1.426   .     S
C219   O264    1.293   .     A
C219   O263    1.289   .     A
C220   O266    1.300   .     A
C220   O265    1.303   .     A
C220   C222    1.452   .     S
C221   C232    1.398   .     A
C221   C840    1.401   1_554 S
C221   H859    1.081   1_554 S
C222   C232    1.413   .     A
C222   C231    1.393   .     A
C223   C224    1.394   .     A
C223   S270    1.757   .     S
C224   C837    1.394   .     S
C224   H848    1.083   .     S
C225   Cl233   1.762   .     S
C225   C828    1.425   1_554 S
C225   C836    1.394   1_554 S
C226   C230    1.407   .     A
C227   C231    1.381   .     A
C227   C828    1.422   1_554 S
C227   C840    1.412   1_554 S
C228   C229    1.387   .     A
C228   C839    1.412   .     S
C228   C833    1.401   .     S
C229   H246    1.068   .     S
C229   C230    1.375   .     A
C230   H237    1.082   .     S
C231   H248    1.079   .     S
C232   S268    1.770   .     S
H236   C836    1.083   1_554 S
H238   O253    0.991   .     S
H239   O256    0.991   .     S
H240   O259    0.990   .     S
H247   C833    1.081   .     S
N249   Zn271   2.037   .     S
N250   Zn272   2.037   .     S
O251   Zn271   1.988   .     S
O252   S268    1.503   .     D
O253   S268    1.682   .     S
O254   S269    1.502   .     D
O255   S269    1.497   .     D
O256   S405    1.683   1_455 S
O257   S270    1.500   .     D
O258   S270    1.504   .     D
O259   S338    1.683   .     S
O260   Zn272   1.978   .     S
O261   Zn271   1.960   .     S
O262   Zn272   1.926   .     S
O263   Zn271   1.978   .     S
O264   Zn272   1.988   .     S
O265   Zn271   1.926   .     S
O266   Zn272   1.960   .     S
O267   S268    1.500   .     D
S269   O324    1.683   .     S
S270   O395    1.683   1_455 S
C273   C281    1.410   .     S
C273   O328    1.290   .     A
C273   O319    1.293   .     A
C274   C294    1.415   .     A
C274   C276    1.496   .     S
C274   C291    1.410   .     A
C275   Cl302   1.764   .     S
C275   C281    1.404   .     A
C275   C481    1.375   .     S
C276   O330    1.307   .     A
C276   O329    1.316   .     A
C277   C278    1.392   .     A
C277   H303    1.085   .     S
C278   C279    1.393   .     A
C278   C287    1.405   .     S
C279   H309    1.084   .     S
C280   H310    1.084   .     S
C280   C281    1.395   .     A
C280   C483    1.371   .     S
C282   N318    1.400   .     A
C282   S337    1.777   .     S
C282   C351    1.419   .     S
C283   N317    1.349   .     A
C283   H311    1.081   .     S
C284   C294    1.415   .     A
C284   C905    1.425   .     S
C284   C907    1.422   .     S
C285   N317    1.371   .     A
C285   H312    1.082   .     S
C286   N318    1.369   .     A
C286   H313    1.080   .     S
C286   C353    1.426   .     S
C287   O332    1.293   .     A
C287   O331    1.289   .     A
C288   O334    1.300   .     A
C288   O333    1.303   .     A
C288   C290    1.452   .     S
C289   C300    1.398   .     A
C289   C908    1.401   1_554 S
C289   H927    1.081   1_554 S
C290   C300    1.413   .     A
C290   C299    1.393   .     A
C291   C292    1.394   .     A
C291   S338    1.757   .     S
C292   C905    1.394   .     S
C292   H916    1.083   .     S
C293   Cl301   1.762   .     S
C293   C896    1.425   1_554 S
C293   C904    1.394   1_554 S
C294   C298    1.407   .     A
C295   C299    1.381   .     A
C295   C896    1.422   1_554 S
C295   C908    1.412   1_554 S
C296   C297    1.387   .     A
C296   C907    1.412   .     S
C296   C901    1.401   .     S
C297   H314    1.068   .     S
C297   C298    1.375   .     A
C298   H305    1.082   .     S
C299   H316    1.079   .     S
C300   S336    1.770   .     S
H304   C904    1.083   1_554 S
H306   O321    0.991   .     S
H307   O324    0.991   .     S
H308   O327    0.990   .     S
H315   C901    1.081   .     S
N317   Zn339   2.037   .     S
N318   Zn340   2.037   .     S
O319   Zn339   1.988   .     S
O320   S336    1.503   .     D
O321   S336    1.682   .     S
O322   S337    1.502   .     D
O323   S337    1.497   .     D
O325   S338    1.500   .     D
O326   S338    1.504   .     D
O327   S406    1.683   .     S
O328   Zn340   1.978   .     S
O329   Zn339   1.960   .     S
O330   Zn340   1.926   .     S
O331   Zn339   1.978   .     S
O332   Zn340   1.988   .     S
O333   Zn339   1.926   .     S
O334   Zn340   1.960   .     S
O335   S336    1.500   .     D
S337   O392    1.683   .     S
C341   C349    1.410   .     S
C341   O396    1.290   .     A
C341   O387    1.293   .     A
C342   C362    1.415   .     A
C342   C344    1.496   .     S
C342   C359    1.410   .     A
C343   Cl370   1.764   .     S
C343   C349    1.404   .     A
C343   C549    1.375   .     S
C344   O398    1.307   .     A
C344   O397    1.316   .     A
C345   C346    1.392   .     A
C345   H371    1.085   .     S
C346   C347    1.393   .     A
C346   C355    1.405   .     S
C347   H377    1.084   .     S
C348   H378    1.084   .     S
C348   C349    1.395   .     A
C348   C551    1.371   .     S
C350   N386    1.400   .     A
C350   S405    1.777   .     S
C350   C215    1.419   1_655 S
C351   N385    1.349   .     A
C351   H379    1.081   .     S
C352   C362    1.415   .     A
C352   C973    1.425   .     S
C352   C975    1.422   .     S
C353   N385    1.371   .     A
C353   H380    1.082   .     S
C354   N386    1.369   .     A
C354   H381    1.080   .     S
C354   C217    1.426   1_655 S
C355   O400    1.293   .     A
C355   O399    1.289   .     A
C356   O402    1.300   .     A
C356   O401    1.303   .     A
C356   C358    1.452   .     S
C357   C368    1.398   .     A
C357   C976    1.401   1_554 S
C357   H995    1.081   1_554 S
C358   C368    1.413   .     A
C358   C367    1.393   .     A
C359   C360    1.394   .     A
C359   S406    1.757   .     S
C360   C973    1.394   .     S
C360   H984    1.083   .     S
C361   Cl369   1.762   .     S
C361   C964    1.425   1_554 S
C361   C972    1.394   1_554 S
C362   C366    1.407   .     A
C363   C367    1.381   .     A
C363   C964    1.422   1_554 S
C363   C976    1.412   1_554 S
C364   C365    1.387   .     A
C364   C975    1.412   .     S
C364   C969    1.401   .     S
C365   H382    1.068   .     S
C365   C366    1.375   .     A
C366   H373    1.082   .     S
C367   H384    1.079   .     S
C368   S404    1.770   .     S
H372   C972    1.083   1_554 S
H374   O389    0.991   .     S
H375   O392    0.991   .     S
H376   O395    0.990   .     S
H383   C969    1.081   .     S
N385   Zn407   2.037   .     S
N386   Zn408   2.037   .     S
O387   Zn407   1.988   .     S
O388   S404    1.503   .     D
O389   S404    1.682   .     S
O390   S405    1.502   .     D
O391   S405    1.497   .     D
O393   S406    1.500   .     D
O394   S406    1.504   .     D
O395   S270    1.683   1_655 S
O396   Zn408   1.978   .     S
O397   Zn407   1.960   .     S
O398   Zn408   1.926   .     S
O399   Zn407   1.978   .     S
O400   Zn408   1.988   .     S
O401   Zn407   1.926   .     S
O402   Zn408   1.960   .     S
O403   S404    1.500   .     D
S405   O256    1.683   1_655 S
C409   C417    1.410   .     S
C409   O464    1.290   .     A
C409   O455    1.293   .     A
C410   C430    1.415   .     A
C410   C412    1.496   .     S
C410   C427    1.410   .     A
C411   Cl438   1.764   .     S
C411   C417    1.404   .     A
C411   C5      1.375   1_565 S
C412   O466    1.307   .     A
C412   O465    1.316   .     A
C413   C414    1.392   .     A
C413   H439    1.085   .     S
C414   C415    1.393   .     A
C414   C423    1.405   .     S
C415   H445    1.084   .     S
C416   H446    1.084   .     S
C416   C417    1.395   .     A
C416   C7      1.371   1_565 S
C418   N454    1.400   .     A
C418   S473    1.777   .     S
C418   C487    1.419   .     S
C419   N453    1.349   .     A
C419   H447    1.081   .     S
C419   C554    1.419   1_455 S
C420   C430    1.415   .     A
C420   C1041   1.425   .     S
C420   C1043   1.422   .     S
C421   N453    1.371   .     A
C421   H448    1.082   .     S
C421   C558    1.426   1_455 S
C422   N454    1.369   .     A
C422   H449    1.080   .     S
C422   C489    1.426   .     S
C423   O468    1.293   .     A
C423   O467    1.289   .     A
C424   O470    1.300   .     A
C424   O469    1.303   .     A
C424   C426    1.452   .     S
C425   C436    1.398   .     A
C425   C1044   1.401   1_554 S
C425   H1063   1.081   1_554 S
C426   C436    1.413   .     A
C426   C435    1.393   .     A
C427   C428    1.394   .     A
C427   S474    1.757   .     S
C428   C1041   1.394   .     S
C428   H1052   1.083   .     S
C429   Cl437   1.762   .     S
C429   C1032   1.425   1_554 S
C429   C1040   1.394   1_554 S
C430   C434    1.407   .     A
C431   C435    1.381   .     A
C431   C1032   1.422   1_554 S
C431   C1044   1.412   1_554 S
C432   C433    1.387   .     A
C432   C1043   1.412   .     S
C432   C1037   1.401   .     S
C433   H450    1.068   .     S
C433   C434    1.375   .     A
C434   H441    1.082   .     S
C435   H452    1.079   .     S
C436   S472    1.770   .     S
H440   C1040   1.083   1_554 S
H442   O457    0.991   .     S
H443   O460    0.991   .     S
H444   O463    0.990   .     S
H451   C1037   1.081   .     S
N453   Zn475   2.037   .     S
N454   Zn476   2.037   .     S
O455   Zn475   1.988   .     S
O456   S472    1.503   .     D
O457   S472    1.682   .     S
O458   S473    1.502   .     D
O459   S473    1.497   .     D
O460   S609    1.683   1_455 S
O461   S474    1.500   .     D
O462   S474    1.504   .     D
O463   S542    1.683   .     S
O464   Zn476   1.978   .     S
O465   Zn475   1.960   .     S
O466   Zn476   1.926   .     S
O467   Zn475   1.978   .     S
O468   Zn476   1.988   .     S
O469   Zn475   1.926   .     S
O470   Zn476   1.960   .     S
O471   S472    1.500   .     D
S473   O528    1.683   .     S
S474   O599    1.683   1_455 S
C477   C485    1.410   .     S
C477   O532    1.290   .     A
C477   O523    1.293   .     A
C478   C498    1.415   .     A
C478   C480    1.496   .     S
C478   C495    1.410   .     A
C479   Cl506   1.764   .     S
C479   C485    1.404   .     A
C479   C73     1.375   1_565 S
C480   O534    1.307   .     A
C480   O533    1.316   .     A
C481   C482    1.392   .     A
C481   H507    1.085   .     S
C482   C483    1.393   .     A
C482   C491    1.405   .     S
C483   H513    1.084   .     S
C484   H514    1.084   .     S
C484   C485    1.395   .     A
C484   C75     1.371   1_565 S
C486   N522    1.400   .     A
C486   S541    1.777   .     S
C486   C555    1.419   .     S
C487   N521    1.349   .     A
C487   H515    1.081   .     S
C488   C498    1.415   .     A
C488   C1109   1.425   .     S
C488   C1111   1.422   .     S
C489   N521    1.371   .     A
C489   H516    1.082   .     S
C490   N522    1.369   .     A
C490   H517    1.080   .     S
C490   C557    1.426   .     S
C491   O536    1.293   .     A
C491   O535    1.289   .     A
C492   O538    1.300   .     A
C492   O537    1.303   .     A
C492   C494    1.452   .     S
C493   C504    1.398   .     A
C493   C1112   1.401   1_554 S
C493   H1131   1.081   1_554 S
C494   C504    1.413   .     A
C494   C503    1.393   .     A
C495   C496    1.394   .     A
C495   S542    1.757   .     S
C496   C1109   1.394   .     S
C496   H1120   1.083   .     S
C497   Cl505   1.762   .     S
C497   C1100   1.425   1_554 S
C497   C1108   1.394   1_554 S
C498   C502    1.407   .     A
C499   C503    1.381   .     A
C499   C1100   1.422   1_554 S
C499   C1112   1.412   1_554 S
C500   C501    1.387   .     A
C500   C1111   1.412   .     S
C500   C1105   1.401   .     S
C501   H518    1.068   .     S
C501   C502    1.375   .     A
C502   H509    1.082   .     S
C503   H520    1.079   .     S
C504   S540    1.770   .     S
H508   C1108   1.083   1_554 S
H510   O525    0.991   .     S
H511   O528    0.991   .     S
H512   O531    0.990   .     S
H519   C1105   1.081   .     S
N521   Zn543   2.037   .     S
N522   Zn544   2.037   .     S
O523   Zn543   1.988   .     S
O524   S540    1.503   .     D
O525   S540    1.682   .     S
O526   S541    1.502   .     D
O527   S541    1.497   .     D
O529   S542    1.500   .     D
O530   S542    1.504   .     D
O531   S610    1.683   .     S
O532   Zn544   1.978   .     S
O533   Zn543   1.960   .     S
O534   Zn544   1.926   .     S
O535   Zn543   1.978   .     S
O536   Zn544   1.988   .     S
O537   Zn543   1.926   .     S
O538   Zn544   1.960   .     S
O539   S540    1.500   .     D
S541   O596    1.683   .     S
C545   C553    1.410   .     S
C545   O600    1.290   .     A
C545   O591    1.293   .     A
C546   C566    1.415   .     A
C546   C548    1.496   .     S
C546   C563    1.410   .     A
C547   Cl574   1.764   .     S
C547   C553    1.404   .     A
C547   C141    1.375   1_565 S
C548   O602    1.307   .     A
C548   O601    1.316   .     A
C549   C550    1.392   .     A
C549   H575    1.085   .     S
C550   C551    1.393   .     A
C550   C559    1.405   .     S
C551   H581    1.084   .     S
C552   H582    1.084   .     S
C552   C553    1.395   .     A
C552   C143    1.371   1_565 S
C554   N590    1.400   .     A
C554   S609    1.777   .     S
C554   C419    1.419   1_655 S
C555   N589    1.349   .     A
C555   H583    1.081   .     S
C556   C566    1.415   .     A
C556   C1177   1.425   .     S
C556   C1179   1.422   .     S
C557   N589    1.371   .     A
C557   H584    1.082   .     S
C558   N590    1.369   .     A
C558   H585    1.080   .     S
C558   C421    1.426   1_655 S
C559   O604    1.293   .     A
C559   O603    1.289   .     A
C560   O606    1.300   .     A
C560   O605    1.303   .     A
C560   C562    1.452   .     S
C561   C572    1.398   .     A
C561   C1180   1.401   1_554 S
C561   H1199   1.081   1_554 S
C562   C572    1.413   .     A
C562   C571    1.393   .     A
C563   C564    1.394   .     A
C563   S610    1.757   .     S
C564   C1177   1.394   .     S
C564   H1188   1.083   .     S
C565   Cl573   1.762   .     S
C565   C1168   1.425   1_554 S
C565   C1176   1.394   1_554 S
C566   C570    1.407   .     A
C567   C571    1.381   .     A
C567   C1168   1.422   1_554 S
C567   C1180   1.412   1_554 S
C568   C569    1.387   .     A
C568   C1179   1.412   .     S
C568   C1173   1.401   .     S
C569   H586    1.068   .     S
C569   C570    1.375   .     A
C570   H577    1.082   .     S
C571   H588    1.079   .     S
C572   S608    1.770   .     S
H576   C1176   1.083   1_554 S
H578   O593    0.991   .     S
H579   O596    0.991   .     S
H580   O599    0.990   .     S
H587   C1173   1.081   .     S
N589   Zn611   2.037   .     S
N590   Zn612   2.037   .     S
O591   Zn611   1.988   .     S
O592   S608    1.503   .     D
O593   S608    1.682   .     S
O594   S609    1.502   .     D
O595   S609    1.497   .     D
O597   S610    1.500   .     D
O598   S610    1.504   .     D
O599   S474    1.683   1_655 S
O600   Zn612   1.978   .     S
O601   Zn611   1.960   .     S
O602   Zn612   1.926   .     S
O603   Zn611   1.978   .     S
O604   Zn612   1.988   .     S
O605   Zn611   1.926   .     S
O606   Zn612   1.960   .     S
O607   S608    1.500   .     D
S609   O460    1.683   1_655 S
C613   C621    1.410   .     S
C613   O668    1.290   .     A
C613   O659    1.293   .     A
C614   C634    1.415   .     A
C614   C616    1.496   .     S
C614   C631    1.410   .     A
C615   Cl642   1.764   .     S
C615   C621    1.404   .     A
C615   C821    1.375   .     S
C616   O670    1.307   .     A
C616   O669    1.316   .     A
C617   C618    1.392   .     A
C617   H643    1.085   .     S
C617   C1023   1.375   1_545 S
C618   C619    1.393   .     A
C618   C627    1.405   .     S
C619   H649    1.084   .     S
C619   C1028   1.371   1_545 S
C620   H650    1.084   .     S
C620   C621    1.395   .     A
C620   C823    1.371   .     S
C622   N658    1.400   .     A
C622   S677    1.777   .     S
C622   C691    1.419   .     S
C623   N657    1.349   .     A
C623   H651    1.081   .     S
C623   C758    1.419   1_455 S
C624   C634    1.415   .     A
C624   C21     1.425   1_556 S
C624   C23     1.422   1_556 S
C625   N657    1.371   .     A
C625   H652    1.082   .     S
C625   C762    1.426   1_455 S
C626   N658    1.369   .     A
C626   H653    1.080   .     S
C626   C693    1.426   .     S
C627   O672    1.293   .     A
C627   O671    1.289   .     A
C628   O674    1.300   .     A
C628   O673    1.303   .     A
C628   C630    1.452   .     S
C629   C640    1.398   .     A
C630   C640    1.413   .     A
C630   C639    1.393   .     A
C631   C632    1.394   .     A
C631   S678    1.757   .     S
C632   C21     1.394   1_556 S
C632   H32     1.083   1_556 S
C633   Cl641   1.762   .     S
C634   C638    1.407   .     A
C635   C639    1.381   .     A
C636   C637    1.387   .     A
C636   C23     1.412   1_556 S
C636   C17     1.401   1_556 S
C637   H654    1.068   .     S
C637   C638    1.375   .     A
C638   H645    1.082   .     S
C639   H656    1.079   .     S
C640   S676    1.770   .     S
H646   O661    0.991   .     S
H647   O664    0.991   .     S
H648   O667    0.990   .     S
H655   C17     1.081   1_556 S
N657   Zn679   2.037   .     S
N658   Zn680   2.037   .     S
O659   Zn679   1.988   .     S
O660   S676    1.503   .     D
O661   S676    1.682   .     S
O662   S677    1.502   .     D
O663   S677    1.497   .     D
O664   S813    1.683   1_455 S
O665   S678    1.500   .     D
O666   S678    1.504   .     D
O667   S746    1.683   .     S
O668   Zn680   1.978   .     S
O669   Zn679   1.960   .     S
O670   Zn680   1.926   .     S
O671   Zn679   1.978   .     S
O672   Zn680   1.988   .     S
O673   Zn679   1.926   .     S
O674   Zn680   1.960   .     S
O675   S676    1.500   .     D
S677   O732    1.683   .     S
S678   O803    1.683   1_455 S
C681   C689    1.410   .     S
C681   O736    1.290   .     A
C681   O727    1.293   .     A
C682   C702    1.415   .     A
C682   C684    1.496   .     S
C682   C699    1.410   .     A
C683   Cl710   1.764   .     S
C683   C689    1.404   .     A
C683   C889    1.375   .     S
C684   O738    1.307   .     A
C684   O737    1.316   .     A
C685   C686    1.392   .     A
C685   H711    1.085   .     S
C685   C1091   1.375   1_545 S
C686   C687    1.393   .     A
C686   C695    1.405   .     S
C687   H717    1.084   .     S
C687   C1096   1.371   1_545 S
C688   H718    1.084   .     S
C688   C689    1.395   .     A
C688   C891    1.371   .     S
C690   N726    1.400   .     A
C690   S745    1.777   .     S
C690   C759    1.419   .     S
C691   N725    1.349   .     A
C691   H719    1.081   .     S
C692   C702    1.415   .     A
C692   C89     1.425   1_556 S
C692   C91     1.422   1_556 S
C693   N725    1.371   .     A
C693   H720    1.082   .     S
C694   N726    1.369   .     A
C694   H721    1.080   .     S
C694   C761    1.426   .     S
C695   O740    1.293   .     A
C695   O739    1.289   .     A
C696   O742    1.300   .     A
C696   O741    1.303   .     A
C696   C698    1.452   .     S
C697   C708    1.398   .     A
C698   C708    1.413   .     A
C698   C707    1.393   .     A
C699   C700    1.394   .     A
C699   S746    1.757   .     S
C700   C89     1.394   1_556 S
C700   H100    1.083   1_556 S
C701   Cl709   1.762   .     S
C702   C706    1.407   .     A
C703   C707    1.381   .     A
C704   C705    1.387   .     A
C704   C91     1.412   1_556 S
C704   C85     1.401   1_556 S
C705   H722    1.068   .     S
C705   C706    1.375   .     A
C706   H713    1.082   .     S
C707   H724    1.079   .     S
C708   S744    1.770   .     S
H714   O729    0.991   .     S
H715   O732    0.991   .     S
H716   O735    0.990   .     S
H723   C85     1.081   1_556 S
N725   Zn747   2.037   .     S
N726   Zn748   2.037   .     S
O727   Zn747   1.988   .     S
O728   S744    1.503   .     D
O729   S744    1.682   .     S
O730   S745    1.502   .     D
O731   S745    1.497   .     D
O733   S746    1.500   .     D
O734   S746    1.504   .     D
O735   S814    1.683   .     S
O736   Zn748   1.978   .     S
O737   Zn747   1.960   .     S
O738   Zn748   1.926   .     S
O739   Zn747   1.978   .     S
O740   Zn748   1.988   .     S
O741   Zn747   1.926   .     S
O742   Zn748   1.960   .     S
O743   S744    1.500   .     D
S745   O800    1.683   .     S
C749   C757    1.410   .     S
C749   O804    1.290   .     A
C749   O795    1.293   .     A
C750   C770    1.415   .     A
C750   C752    1.496   .     S
C750   C767    1.410   .     A
C751   Cl778   1.764   .     S
C751   C757    1.404   .     A
C751   C957    1.375   .     S
C752   O806    1.307   .     A
C752   O805    1.316   .     A
C753   C754    1.392   .     A
C753   H779    1.085   .     S
C753   C1159   1.375   1_545 S
C754   C755    1.393   .     A
C754   C763    1.405   .     S
C755   H785    1.084   .     S
C755   C1164   1.371   1_545 S
C756   H786    1.084   .     S
C756   C757    1.395   .     A
C756   C959    1.371   .     S
C758   N794    1.400   .     A
C758   S813    1.777   .     S
C758   C623    1.419   1_655 S
C759   N793    1.349   .     A
C759   H787    1.081   .     S
C760   C770    1.415   .     A
C760   C157    1.425   1_556 S
C760   C159    1.422   1_556 S
C761   N793    1.371   .     A
C761   H788    1.082   .     S
C762   N794    1.369   .     A
C762   H789    1.080   .     S
C762   C625    1.426   1_655 S
C763   O808    1.293   .     A
C763   O807    1.289   .     A
C764   O810    1.300   .     A
C764   O809    1.303   .     A
C764   C766    1.452   .     S
C765   C776    1.398   .     A
C766   C776    1.413   .     A
C766   C775    1.393   .     A
C767   C768    1.394   .     A
C767   S814    1.757   .     S
C768   C157    1.394   1_556 S
C768   H168    1.083   1_556 S
C769   Cl777   1.762   .     S
C770   C774    1.407   .     A
C771   C775    1.381   .     A
C772   C773    1.387   .     A
C772   C159    1.412   1_556 S
C772   C153    1.401   1_556 S
C773   H790    1.068   .     S
C773   C774    1.375   .     A
C774   H781    1.082   .     S
C775   H792    1.079   .     S
C776   S812    1.770   .     S
H782   O797    0.991   .     S
H783   O800    0.991   .     S
H784   O803    0.990   .     S
H791   C153    1.081   1_556 S
N793   Zn815   2.037   .     S
N794   Zn816   2.037   .     S
O795   Zn815   1.988   .     S
O796   S812    1.503   .     D
O797   S812    1.682   .     S
O798   S813    1.502   .     D
O799   S813    1.497   .     D
O801   S814    1.500   .     D
O802   S814    1.504   .     D
O803   S678    1.683   1_655 S
O804   Zn816   1.978   .     S
O805   Zn815   1.960   .     S
O806   Zn816   1.926   .     S
O807   Zn815   1.978   .     S
O808   Zn816   1.988   .     S
O809   Zn815   1.926   .     S
O810   Zn816   1.960   .     S
O811   S812    1.500   .     D
S813   O664    1.683   1_655 S
C817   C825    1.410   .     S
C817   O872    1.290   .     A
C817   O863    1.293   .     A
C818   C838    1.415   .     A
C818   C820    1.496   .     S
C818   C835    1.410   .     A
C819   Cl846   1.764   .     S
C819   C825    1.404   .     A
C819   C1025   1.375   .     S
C820   O874    1.307   .     A
C820   O873    1.316   .     A
C821   C822    1.392   .     A
C821   H847    1.085   .     S
C822   C823    1.393   .     A
C822   C831    1.405   .     S
C823   H853    1.084   .     S
C824   H854    1.084   .     S
C824   C825    1.395   .     A
C824   C1027   1.371   .     S
C826   N862    1.400   .     A
C826   S881    1.777   .     S
C826   C895    1.419   .     S
C827   N861    1.349   .     A
C827   H855    1.081   .     S
C827   C962    1.419   1_455 S
C828   C838    1.415   .     A
C828   C225    1.425   1_556 S
C828   C227    1.422   1_556 S
C829   N861    1.371   .     A
C829   H856    1.082   .     S
C829   C966    1.426   1_455 S
C830   N862    1.369   .     A
C830   H857    1.080   .     S
C830   C897    1.426   .     S
C831   O876    1.293   .     A
C831   O875    1.289   .     A
C832   O878    1.300   .     A
C832   O877    1.303   .     A
C832   C834    1.452   .     S
C833   C844    1.398   .     A
C834   C844    1.413   .     A
C834   C843    1.393   .     A
C835   C836    1.394   .     A
C835   S882    1.757   .     S
C836   C225    1.394   1_556 S
C836   H236    1.083   1_556 S
C837   Cl845   1.762   .     S
C838   C842    1.407   .     A
C839   C843    1.381   .     A
C840   C841    1.387   .     A
C840   C227    1.412   1_556 S
C840   C221    1.401   1_556 S
C841   H858    1.068   .     S
C841   C842    1.375   .     A
C842   H849    1.082   .     S
C843   H860    1.079   .     S
C844   S880    1.770   .     S
H850   O865    0.991   .     S
H851   O868    0.991   .     S
H852   O871    0.990   .     S
H859   C221    1.081   1_556 S
N861   Zn883   2.037   .     S
N862   Zn884   2.037   .     S
O863   Zn883   1.988   .     S
O864   S880    1.503   .     D
O865   S880    1.682   .     S
O866   S881    1.502   .     D
O867   S881    1.497   .     D
O868   S1017   1.683   1_455 S
O869   S882    1.500   .     D
O870   S882    1.504   .     D
O871   S950    1.683   .     S
O872   Zn884   1.978   .     S
O873   Zn883   1.960   .     S
O874   Zn884   1.926   .     S
O875   Zn883   1.978   .     S
O876   Zn884   1.988   .     S
O877   Zn883   1.926   .     S
O878   Zn884   1.960   .     S
O879   S880    1.500   .     D
S881   O936    1.683   .     S
S882   O1007   1.683   1_455 S
C885   C893    1.410   .     S
C885   O940    1.290   .     A
C885   O931    1.293   .     A
C886   C906    1.415   .     A
C886   C888    1.496   .     S
C886   C903    1.410   .     A
C887   Cl914   1.764   .     S
C887   C893    1.404   .     A
C887   C1093   1.375   .     S
C888   O942    1.307   .     A
C888   O941    1.316   .     A
C889   C890    1.392   .     A
C889   H915    1.085   .     S
C890   C891    1.393   .     A
C890   C899    1.405   .     S
C891   H921    1.084   .     S
C892   H922    1.084   .     S
C892   C893    1.395   .     A
C892   C1095   1.371   .     S
C894   N930    1.400   .     A
C894   S949    1.777   .     S
C894   C963    1.419   .     S
C895   N929    1.349   .     A
C895   H923    1.081   .     S
C896   C906    1.415   .     A
C896   C293    1.425   1_556 S
C896   C295    1.422   1_556 S
C897   N929    1.371   .     A
C897   H924    1.082   .     S
C898   N930    1.369   .     A
C898   H925    1.080   .     S
C898   C965    1.426   .     S
C899   O944    1.293   .     A
C899   O943    1.289   .     A
C900   O946    1.300   .     A
C900   O945    1.303   .     A
C900   C902    1.452   .     S
C901   C912    1.398   .     A
C902   C912    1.413   .     A
C902   C911    1.393   .     A
C903   C904    1.394   .     A
C903   S950    1.757   .     S
C904   C293    1.394   1_556 S
C904   H304    1.083   1_556 S
C905   Cl913   1.762   .     S
C906   C910    1.407   .     A
C907   C911    1.381   .     A
C908   C909    1.387   .     A
C908   C295    1.412   1_556 S
C908   C289    1.401   1_556 S
C909   H926    1.068   .     S
C909   C910    1.375   .     A
C910   H917    1.082   .     S
C911   H928    1.079   .     S
C912   S948    1.770   .     S
H918   O933    0.991   .     S
H919   O936    0.991   .     S
H920   O939    0.990   .     S
H927   C289    1.081   1_556 S
N929   Zn951   2.037   .     S
N930   Zn952   2.037   .     S
O931   Zn951   1.988   .     S
O932   S948    1.503   .     D
O933   S948    1.682   .     S
O934   S949    1.502   .     D
O935   S949    1.497   .     D
O937   S950    1.500   .     D
O938   S950    1.504   .     D
O939   S1018   1.683   .     S
O940   Zn952   1.978   .     S
O941   Zn951   1.960   .     S
O942   Zn952   1.926   .     S
O943   Zn951   1.978   .     S
O944   Zn952   1.988   .     S
O945   Zn951   1.926   .     S
O946   Zn952   1.960   .     S
O947   S948    1.500   .     D
S949   O1004   1.683   .     S
C953   C961    1.410   .     S
C953   O1008   1.290   .     A
C953   O999    1.293   .     A
C954   C974    1.415   .     A
C954   C956    1.496   .     S
C954   C971    1.410   .     A
C955   Cl982   1.764   .     S
C955   C961    1.404   .     A
C955   C1161   1.375   .     S
C956   O1010   1.307   .     A
C956   O1009   1.316   .     A
C957   C958    1.392   .     A
C957   H983    1.085   .     S
C958   C959    1.393   .     A
C958   C967    1.405   .     S
C959   H989    1.084   .     S
C960   H990    1.084   .     S
C960   C961    1.395   .     A
C960   C1163   1.371   .     S
C962   N998    1.400   .     A
C962   S1017   1.777   .     S
C962   C827    1.419   1_655 S
C963   N997    1.349   .     A
C963   H991    1.081   .     S
C964   C974    1.415   .     A
C964   C361    1.425   1_556 S
C964   C363    1.422   1_556 S
C965   N997    1.371   .     A
C965   H992    1.082   .     S
C966   N998    1.369   .     A
C966   H993    1.080   .     S
C966   C829    1.426   1_655 S
C967   O1012   1.293   .     A
C967   O1011   1.289   .     A
C968   O1014   1.300   .     A
C968   O1013   1.303   .     A
C968   C970    1.452   .     S
C969   C980    1.398   .     A
C970   C980    1.413   .     A
C970   C979    1.393   .     A
C971   C972    1.394   .     A
C971   S1018   1.757   .     S
C972   C361    1.394   1_556 S
C972   H372    1.083   1_556 S
C973   Cl981   1.762   .     S
C974   C978    1.407   .     A
C975   C979    1.381   .     A
C976   C977    1.387   .     A
C976   C363    1.412   1_556 S
C976   C357    1.401   1_556 S
C977   H994    1.068   .     S
C977   C978    1.375   .     A
C978   H985    1.082   .     S
C979   H996    1.079   .     S
C980   S1016   1.770   .     S
H986   O1001   0.991   .     S
H987   O1004   0.991   .     S
H988   O1007   0.990   .     S
H995   C357    1.081   1_556 S
N997   Zn1019  2.037   .     S
N998   Zn1020  2.037   .     S
O999   Zn1019  1.988   .     S
O1000  S1016   1.503   .     D
O1001  S1016   1.682   .     S
O1002  S1017   1.502   .     D
O1003  S1017   1.497   .     D
O1005  S1018   1.500   .     D
O1006  S1018   1.504   .     D
O1007  S882    1.683   1_655 S
O1008  Zn1020  1.978   .     S
O1009  Zn1019  1.960   .     S
O1010  Zn1020  1.926   .     S
O1011  Zn1019  1.978   .     S
O1012  Zn1020  1.988   .     S
O1013  Zn1019  1.926   .     S
O1014  Zn1020  1.960   .     S
O1015  S1016   1.500   .     D
S1017  O868    1.683   1_655 S
C1021  C1029   1.410   .     S
C1021  O1076   1.290   .     A
C1021  O1067   1.293   .     A
C1022  C1042   1.415   .     A
C1022  C1024   1.496   .     S
C1022  C1039   1.410   .     A
C1023  Cl1050  1.764   .     S
C1023  C1029   1.404   .     A
C1023  C617    1.375   1_565 S
C1024  O1078   1.307   .     A
C1024  O1077   1.316   .     A
C1025  C1026   1.392   .     A
C1025  H1051   1.085   .     S
C1026  C1027   1.393   .     A
C1026  C1035   1.405   .     S
C1027  H1057   1.084   .     S
C1028  H1058   1.084   .     S
C1028  C1029   1.395   .     A
C1028  C619    1.371   1_565 S
C1030  N1066   1.400   .     A
C1030  S1085   1.777   .     S
C1030  C1099   1.419   .     S
C1031  N1065   1.349   .     A
C1031  H1059   1.081   .     S
C1031  C1166   1.419   1_455 S
C1032  C1042   1.415   .     A
C1032  C429    1.425   1_556 S
C1032  C431    1.422   1_556 S
C1033  N1065   1.371   .     A
C1033  H1060   1.082   .     S
C1033  C1170   1.426   1_455 S
C1034  N1066   1.369   .     A
C1034  H1061   1.080   .     S
C1034  C1101   1.426   .     S
C1035  O1080   1.293   .     A
C1035  O1079   1.289   .     A
C1036  O1082   1.300   .     A
C1036  O1081   1.303   .     A
C1036  C1038   1.452   .     S
C1037  C1048   1.398   .     A
C1038  C1048   1.413   .     A
C1038  C1047   1.393   .     A
C1039  C1040   1.394   .     A
C1039  S1086   1.757   .     S
C1040  C429    1.394   1_556 S
C1040  H440    1.083   1_556 S
C1041  Cl1049  1.762   .     S
C1042  C1046   1.407   .     A
C1043  C1047   1.381   .     A
C1044  C1045   1.387   .     A
C1044  C431    1.412   1_556 S
C1044  C425    1.401   1_556 S
C1045  H1062   1.068   .     S
C1045  C1046   1.375   .     A
C1046  H1053   1.082   .     S
C1047  H1064   1.079   .     S
C1048  S1084   1.770   .     S
H1054  O1069   0.991   .     S
H1055  O1072   0.991   .     S
H1056  O1075   0.990   .     S
H1063  C425    1.081   1_556 S
N1065  Zn1087  2.037   .     S
N1066  Zn1088  2.037   .     S
O1067  Zn1087  1.988   .     S
O1068  S1084   1.503   .     D
O1069  S1084   1.682   .     S
O1070  S1085   1.502   .     D
O1071  S1085   1.497   .     D
O1072  S1221   1.683   1_455 S
O1073  S1086   1.500   .     D
O1074  S1086   1.504   .     D
O1075  S1154   1.683   .     S
O1076  Zn1088  1.978   .     S
O1077  Zn1087  1.960   .     S
O1078  Zn1088  1.926   .     S
O1079  Zn1087  1.978   .     S
O1080  Zn1088  1.988   .     S
O1081  Zn1087  1.926   .     S
O1082  Zn1088  1.960   .     S
O1083  S1084   1.500   .     D
S1085  O1140   1.683   .     S
S1086  O1211   1.683   1_455 S
C1089  C1097   1.410   .     S
C1089  O1144   1.290   .     A
C1089  O1135   1.293   .     A
C1090  C1110   1.415   .     A
C1090  C1092   1.496   .     S
C1090  C1107   1.410   .     A
C1091  Cl1118  1.764   .     S
C1091  C1097   1.404   .     A
C1091  C685    1.375   1_565 S
C1092  O1146   1.307   .     A
C1092  O1145   1.316   .     A
C1093  C1094   1.392   .     A
C1093  H1119   1.085   .     S
C1094  C1095   1.393   .     A
C1094  C1103   1.405   .     S
C1095  H1125   1.084   .     S
C1096  H1126   1.084   .     S
C1096  C1097   1.395   .     A
C1096  C687    1.371   1_565 S
C1098  N1134   1.400   .     A
C1098  S1153   1.777   .     S
C1098  C1167   1.419   .     S
C1099  N1133   1.349   .     A
C1099  H1127   1.081   .     S
C1100  C1110   1.415   .     A
C1100  C497    1.425   1_556 S
C1100  C499    1.422   1_556 S
C1101  N1133   1.371   .     A
C1101  H1128   1.082   .     S
C1102  N1134   1.369   .     A
C1102  H1129   1.080   .     S
C1102  C1169   1.426   .     S
C1103  O1148   1.293   .     A
C1103  O1147   1.289   .     A
C1104  O1150   1.300   .     A
C1104  O1149   1.303   .     A
C1104  C1106   1.452   .     S
C1105  C1116   1.398   .     A
C1106  C1116   1.413   .     A
C1106  C1115   1.393   .     A
C1107  C1108   1.394   .     A
C1107  S1154   1.757   .     S
C1108  C497    1.394   1_556 S
C1108  H508    1.083   1_556 S
C1109  Cl1117  1.762   .     S
C1110  C1114   1.407   .     A
C1111  C1115   1.381   .     A
C1112  C1113   1.387   .     A
C1112  C499    1.412   1_556 S
C1112  C493    1.401   1_556 S
C1113  H1130   1.068   .     S
C1113  C1114   1.375   .     A
C1114  H1121   1.082   .     S
C1115  H1132   1.079   .     S
C1116  S1152   1.770   .     S
H1122  O1137   0.991   .     S
H1123  O1140   0.991   .     S
H1124  O1143   0.990   .     S
H1131  C493    1.081   1_556 S
N1133  Zn1155  2.037   .     S
N1134  Zn1156  2.037   .     S
O1135  Zn1155  1.988   .     S
O1136  S1152   1.503   .     D
O1137  S1152   1.682   .     S
O1138  S1153   1.502   .     D
O1139  S1153   1.497   .     D
O1141  S1154   1.500   .     D
O1142  S1154   1.504   .     D
O1143  S1222   1.683   .     S
O1144  Zn1156  1.978   .     S
O1145  Zn1155  1.960   .     S
O1146  Zn1156  1.926   .     S
O1147  Zn1155  1.978   .     S
O1148  Zn1156  1.988   .     S
O1149  Zn1155  1.926   .     S
O1150  Zn1156  1.960   .     S
O1151  S1152   1.500   .     D
S1153  O1208   1.683   .     S
C1157  C1165   1.410   .     S
C1157  O1212   1.290   .     A
C1157  O1203   1.293   .     A
C1158  C1178   1.415   .     A
C1158  C1160   1.496   .     S
C1158  C1175   1.410   .     A
C1159  Cl1186  1.764   .     S
C1159  C1165   1.404   .     A
C1159  C753    1.375   1_565 S
C1160  O1214   1.307   .     A
C1160  O1213   1.316   .     A
C1161  C1162   1.392   .     A
C1161  H1187   1.085   .     S
C1162  C1163   1.393   .     A
C1162  C1171   1.405   .     S
C1163  H1193   1.084   .     S
C1164  H1194   1.084   .     S
C1164  C1165   1.395   .     A
C1164  C755    1.371   1_565 S
C1166  N1202   1.400   .     A
C1166  S1221   1.777   .     S
C1166  C1031   1.419   1_655 S
C1167  N1201   1.349   .     A
C1167  H1195   1.081   .     S
C1168  C1178   1.415   .     A
C1168  C565    1.425   1_556 S
C1168  C567    1.422   1_556 S
C1169  N1201   1.371   .     A
C1169  H1196   1.082   .     S
C1170  N1202   1.369   .     A
C1170  H1197   1.080   .     S
C1170  C1033   1.426   1_655 S
C1171  O1216   1.293   .     A
C1171  O1215   1.289   .     A
C1172  O1218   1.300   .     A
C1172  O1217   1.303   .     A
C1172  C1174   1.452   .     S
C1173  C1184   1.398   .     A
C1174  C1184   1.413   .     A
C1174  C1183   1.393   .     A
C1175  C1176   1.394   .     A
C1175  S1222   1.757   .     S
C1176  C565    1.394   1_556 S
C1176  H576    1.083   1_556 S
C1177  Cl1185  1.762   .     S
C1178  C1182   1.407   .     A
C1179  C1183   1.381   .     A
C1180  C1181   1.387   .     A
C1180  C567    1.412   1_556 S
C1180  C561    1.401   1_556 S
C1181  H1198   1.068   .     S
C1181  C1182   1.375   .     A
C1182  H1189   1.082   .     S
C1183  H1200   1.079   .     S
C1184  S1220   1.770   .     S
H1190  O1205   0.991   .     S
H1191  O1208   0.991   .     S
H1192  O1211   0.990   .     S
H1199  C561    1.081   1_556 S
N1201  Zn1223  2.037   .     S
N1202  Zn1224  2.037   .     S
O1203  Zn1223  1.988   .     S
O1204  S1220   1.503   .     D
O1205  S1220   1.682   .     S
O1206  S1221   1.502   .     D
O1207  S1221   1.497   .     D
O1209  S1222   1.500   .     D
O1210  S1222   1.504   .     D
O1211  S1086   1.683   1_655 S
O1212  Zn1224  1.978   .     S
O1213  Zn1223  1.960   .     S
O1214  Zn1224  1.926   .     S
O1215  Zn1223  1.978   .     S
O1216  Zn1224  1.988   .     S
O1217  Zn1223  1.926   .     S
O1218  Zn1224  1.960   .     S
O1219  S1220   1.500   .     D
S1221  O1072   1.683   1_655 S
