data_str_m3_o2_o5_pcu_sym.123
_audit_creation_date              2020-01-03
_audit_creation_method            'Materials Studio'
_symmetry_space_group_name_H-M    'P1'
_symmetry_Int_Tables_number       1
_symmetry_cell_setting            triclinic
loop_
_symmetry_equiv_pos_as_xyz
  x,y,z
_cell_length_a                    29.6894
_cell_length_b                    28.5818
_cell_length_c                    26.6691
_cell_angle_alpha                 90.2409
_cell_angle_beta                  91.1673
_cell_angle_gamma                 87.9704
loop_
_atom_site_label
_atom_site_type_symbol
_atom_site_fract_x
_atom_site_fract_y
_atom_site_fract_z
_atom_site_U_iso_or_equiv
_atom_site_adp_type
_atom_site_occupancy
C1     C     0.16401   0.25091   0.16683   0.00000  Uiso   1.00
C2     C     0.33599   0.24909   0.16651   0.00000  Uiso   1.00
C3     C     0.22487   0.10298   0.13158   0.00000  Uiso   1.00
C4     C     0.27513   0.39702   0.20176   0.00000  Uiso   1.00
C5     C     0.28124   0.10136   0.19516   0.00000  Uiso   1.00
C6     C     0.21876   0.39864   0.13817   0.00000  Uiso   1.00
C7     C     0.22904   0.05374   0.12661   0.00000  Uiso   1.00
C8     C     0.27096   0.44626   0.20673   0.00000  Uiso   1.00
C9     C     0.28561   0.05201   0.19107   0.00000  Uiso   1.00
C10    C     0.21439   0.44799   0.14227   0.00000  Uiso   1.00
C11    C     0.24994   0.24994   0.07295   0.00000  Uiso   1.00
C12    C     0.25006   0.25006   0.26039   0.00000  Uiso   1.00
C13    C     0.25271   0.02672   0.16381   0.00000  Uiso   1.00
C14    C     0.24729   0.47328   0.16952   0.00000  Uiso   1.00
C15    C     0.24998   0.24991   0.02182   0.00000  Uiso   1.00
C16    C     0.25002   0.25009   0.31151   0.00000  Uiso   1.00
C17    C     0.04680   0.27710   0.20623   0.00000  Uiso   1.00
C18    C     0.45320   0.22290   0.12710   0.00000  Uiso   1.00
C19    C     0.45394   0.24230   0.21474   0.00000  Uiso   1.00
C20    C     0.04606   0.25770   0.11859   0.00000  Uiso   1.00
C21    C     0.09353   0.27139   0.20836   0.00000  Uiso   1.00
C22    C     0.40647   0.22861   0.12497   0.00000  Uiso   1.00
C23    C     0.40721   0.24842   0.21372   0.00000  Uiso   1.00
C24    C     0.09278   0.25158   0.11961   0.00000  Uiso   1.00
C25    C     0.11585   0.25423   0.16586   0.00000  Uiso   1.00
C26    C     0.38415   0.24577   0.16748   0.00000  Uiso   1.00
C27    C     0.02325   0.25876   0.16452   0.00000  Uiso   1.00
C28    C     0.47675   0.24124   0.16881   0.00000  Uiso   1.00
N29    N     0.25000   0.12623   0.16667   0.00000  Uiso   1.00
N30    N     0.25000   0.37377   0.16667   0.00000  Uiso   1.00
O31    O     0.18453   0.28974   0.16667   0.00000  Uiso   1.00
O32    O     0.31547   0.21026   0.16666   0.00000  Uiso   1.00
O33    O     0.31547   0.28974   0.16666   0.00000  Uiso   1.00
O34    O     0.18453   0.21026   0.16667   0.00000  Uiso   1.00
O35    O     0.25000   0.28973   0.09511   0.00000  Uiso   1.00
O36    O     0.25000   0.21027   0.23822   0.00000  Uiso   1.00
O37    O     0.25000   0.28973   0.23822   0.00000  Uiso   1.00
O38    O     0.25000   0.21027   0.09511   0.00000  Uiso   1.00
Zn39   Zn    0.25000   0.30307   0.16667   0.00000  Uiso   1.00
Zn40   Zn    0.25000   0.19693   0.16667   0.00000  Uiso   1.00
Cl41   Cl    0.18863   0.13433   0.08978   0.00000  Uiso   1.00
Cl42   Cl    0.31137   0.36567   0.24355   0.00000  Uiso   1.00
Cl43   Cl    0.31852   0.13098   0.23526   0.00000  Uiso   1.00
Cl44   Cl    0.18147   0.36902   0.09807   0.00000  Uiso   1.00
Cl45   Cl    0.02055   0.31801   0.24738   0.00000  Uiso   1.00
Cl46   Cl    0.47945   0.18199   0.08595   0.00000  Uiso   1.00
Cl47   Cl    0.48096   0.22232   0.27091   0.00000  Uiso   1.00
Cl48   Cl    0.01904   0.27768   0.06243   0.00000  Uiso   1.00
Cl49   Cl    0.12378   0.28716   0.26337   0.00000  Uiso   1.00
Cl50   Cl    0.37622   0.21284   0.06996   0.00000  Uiso   1.00
Cl51   Cl    0.37772   0.25590   0.27032   0.00000  Uiso   1.00
Cl52   Cl    0.12228   0.24410   0.06301   0.00000  Uiso   1.00
Cl53   Cl    0.22047   0.03050   0.06558   0.00000  Uiso   1.00
Cl54   Cl    0.27953   0.46950   0.26775   0.00000  Uiso   1.00
Cl55   Cl    0.34000   0.02652   0.20308   0.00000  Uiso   1.00
Cl56   Cl    0.16000   0.47348   0.13025   0.00000  Uiso   1.00
C57    C     0.66401   0.25091   0.16683   0.00000  Uiso   1.00
C58    C     0.83599   0.24909   0.16651   0.00000  Uiso   1.00
C59    C     0.72487   0.10298   0.13158   0.00000  Uiso   1.00
C60    C     0.77513   0.39702   0.20176   0.00000  Uiso   1.00
C61    C     0.78124   0.10136   0.19516   0.00000  Uiso   1.00
C62    C     0.71876   0.39864   0.13817   0.00000  Uiso   1.00
C63    C     0.72904   0.05374   0.12661   0.00000  Uiso   1.00
C64    C     0.77096   0.44626   0.20673   0.00000  Uiso   1.00
C65    C     0.78561   0.05201   0.19107   0.00000  Uiso   1.00
C66    C     0.71439   0.44799   0.14227   0.00000  Uiso   1.00
C67    C     0.74994   0.24994   0.07295   0.00000  Uiso   1.00
C68    C     0.75006   0.25006   0.26039   0.00000  Uiso   1.00
C69    C     0.75271   0.02672   0.16381   0.00000  Uiso   1.00
C70    C     0.74729   0.47328   0.16952   0.00000  Uiso   1.00
C71    C     0.74998   0.24991   0.02182   0.00000  Uiso   1.00
C72    C     0.75002   0.25009   0.31151   0.00000  Uiso   1.00
C73    C     0.54680   0.27710   0.20623   0.00000  Uiso   1.00
C74    C     0.95320   0.22290   0.12710   0.00000  Uiso   1.00
C75    C     0.95394   0.24230   0.21474   0.00000  Uiso   1.00
C76    C     0.54606   0.25770   0.11859   0.00000  Uiso   1.00
C77    C     0.59353   0.27139   0.20836   0.00000  Uiso   1.00
C78    C     0.90647   0.22861   0.12497   0.00000  Uiso   1.00
C79    C     0.90721   0.24842   0.21372   0.00000  Uiso   1.00
C80    C     0.59278   0.25158   0.11961   0.00000  Uiso   1.00
C81    C     0.61585   0.25423   0.16586   0.00000  Uiso   1.00
C82    C     0.88415   0.24577   0.16748   0.00000  Uiso   1.00
C83    C     0.52325   0.25876   0.16452   0.00000  Uiso   1.00
C84    C     0.97675   0.24124   0.16881   0.00000  Uiso   1.00
N85    N     0.75000   0.12623   0.16667   0.00000  Uiso   1.00
N86    N     0.75000   0.37377   0.16667   0.00000  Uiso   1.00
O87    O     0.68453   0.28974   0.16667   0.00000  Uiso   1.00
O88    O     0.81547   0.21026   0.16666   0.00000  Uiso   1.00
O89    O     0.81547   0.28974   0.16666   0.00000  Uiso   1.00
O90    O     0.68453   0.21026   0.16667   0.00000  Uiso   1.00
O91    O     0.75000   0.28973   0.09511   0.00000  Uiso   1.00
O92    O     0.75000   0.21027   0.23822   0.00000  Uiso   1.00
O93    O     0.75000   0.28973   0.23822   0.00000  Uiso   1.00
O94    O     0.75000   0.21027   0.09511   0.00000  Uiso   1.00
Zn95   Zn    0.75000   0.30307   0.16667   0.00000  Uiso   1.00
Zn96   Zn    0.75000   0.19693   0.16667   0.00000  Uiso   1.00
Cl97   Cl    0.68863   0.13433   0.08978   0.00000  Uiso   1.00
Cl98   Cl    0.81137   0.36567   0.24355   0.00000  Uiso   1.00
Cl99   Cl    0.81852   0.13098   0.23526   0.00000  Uiso   1.00
Cl100  Cl    0.68147   0.36902   0.09807   0.00000  Uiso   1.00
Cl101  Cl    0.52055   0.31801   0.24738   0.00000  Uiso   1.00
Cl102  Cl    0.97945   0.18199   0.08595   0.00000  Uiso   1.00
Cl103  Cl    0.98096   0.22232   0.27091   0.00000  Uiso   1.00
Cl104  Cl    0.51904   0.27768   0.06243   0.00000  Uiso   1.00
Cl105  Cl    0.62378   0.28716   0.26337   0.00000  Uiso   1.00
Cl106  Cl    0.87622   0.21284   0.06996   0.00000  Uiso   1.00
Cl107  Cl    0.87772   0.25590   0.27032   0.00000  Uiso   1.00
Cl108  Cl    0.62228   0.24410   0.06301   0.00000  Uiso   1.00
Cl109  Cl    0.72047   0.03050   0.06558   0.00000  Uiso   1.00
Cl110  Cl    0.77953   0.46950   0.26775   0.00000  Uiso   1.00
Cl111  Cl    0.84000   0.02652   0.20308   0.00000  Uiso   1.00
Cl112  Cl    0.66000   0.47348   0.13025   0.00000  Uiso   1.00
C113   C     0.16401   0.75091   0.16683   0.00000  Uiso   1.00
C114   C     0.33599   0.74909   0.16651   0.00000  Uiso   1.00
C115   C     0.22487   0.60298   0.13158   0.00000  Uiso   1.00
C116   C     0.27513   0.89702   0.20176   0.00000  Uiso   1.00
C117   C     0.28124   0.60136   0.19516   0.00000  Uiso   1.00
C118   C     0.21876   0.89864   0.13817   0.00000  Uiso   1.00
C119   C     0.22904   0.55374   0.12661   0.00000  Uiso   1.00
C120   C     0.27096   0.94626   0.20673   0.00000  Uiso   1.00
C121   C     0.28561   0.55201   0.19107   0.00000  Uiso   1.00
C122   C     0.21439   0.94799   0.14227   0.00000  Uiso   1.00
C123   C     0.24994   0.74994   0.07295   0.00000  Uiso   1.00
C124   C     0.25006   0.75006   0.26039   0.00000  Uiso   1.00
C125   C     0.25271   0.52672   0.16381   0.00000  Uiso   1.00
C126   C     0.24729   0.97328   0.16952   0.00000  Uiso   1.00
C127   C     0.24998   0.74991   0.02182   0.00000  Uiso   1.00
C128   C     0.25002   0.75009   0.31151   0.00000  Uiso   1.00
C129   C     0.04680   0.77710   0.20623   0.00000  Uiso   1.00
C130   C     0.45320   0.72290   0.12710   0.00000  Uiso   1.00
C131   C     0.45394   0.74230   0.21474   0.00000  Uiso   1.00
C132   C     0.04606   0.75770   0.11859   0.00000  Uiso   1.00
C133   C     0.09353   0.77139   0.20836   0.00000  Uiso   1.00
C134   C     0.40647   0.72861   0.12497   0.00000  Uiso   1.00
C135   C     0.40721   0.74842   0.21372   0.00000  Uiso   1.00
C136   C     0.09278   0.75158   0.11961   0.00000  Uiso   1.00
C137   C     0.11585   0.75423   0.16586   0.00000  Uiso   1.00
C138   C     0.38415   0.74577   0.16748   0.00000  Uiso   1.00
C139   C     0.02325   0.75876   0.16452   0.00000  Uiso   1.00
C140   C     0.47675   0.74124   0.16881   0.00000  Uiso   1.00
N141   N     0.25000   0.62623   0.16667   0.00000  Uiso   1.00
N142   N     0.25000   0.87377   0.16667   0.00000  Uiso   1.00
O143   O     0.18453   0.78974   0.16667   0.00000  Uiso   1.00
O144   O     0.31547   0.71026   0.16666   0.00000  Uiso   1.00
O145   O     0.31547   0.78974   0.16666   0.00000  Uiso   1.00
O146   O     0.18453   0.71026   0.16667   0.00000  Uiso   1.00
O147   O     0.25000   0.78973   0.09511   0.00000  Uiso   1.00
O148   O     0.25000   0.71027   0.23822   0.00000  Uiso   1.00
O149   O     0.25000   0.78973   0.23822   0.00000  Uiso   1.00
O150   O     0.25000   0.71027   0.09511   0.00000  Uiso   1.00
Zn151  Zn    0.25000   0.80307   0.16667   0.00000  Uiso   1.00
Zn152  Zn    0.25000   0.69693   0.16667   0.00000  Uiso   1.00
Cl153  Cl    0.18863   0.63433   0.08978   0.00000  Uiso   1.00
Cl154  Cl    0.31137   0.86567   0.24355   0.00000  Uiso   1.00
Cl155  Cl    0.31852   0.63098   0.23526   0.00000  Uiso   1.00
Cl156  Cl    0.18147   0.86902   0.09807   0.00000  Uiso   1.00
Cl157  Cl    0.02055   0.81801   0.24738   0.00000  Uiso   1.00
Cl158  Cl    0.47945   0.68199   0.08595   0.00000  Uiso   1.00
Cl159  Cl    0.48096   0.72232   0.27091   0.00000  Uiso   1.00
Cl160  Cl    0.01904   0.77768   0.06243   0.00000  Uiso   1.00
Cl161  Cl    0.12378   0.78716   0.26337   0.00000  Uiso   1.00
Cl162  Cl    0.37622   0.71284   0.06996   0.00000  Uiso   1.00
Cl163  Cl    0.37772   0.75590   0.27032   0.00000  Uiso   1.00
Cl164  Cl    0.12228   0.74410   0.06301   0.00000  Uiso   1.00
Cl165  Cl    0.22047   0.53050   0.06558   0.00000  Uiso   1.00
Cl166  Cl    0.27953   0.96950   0.26775   0.00000  Uiso   1.00
Cl167  Cl    0.34000   0.52652   0.20308   0.00000  Uiso   1.00
Cl168  Cl    0.16000   0.97348   0.13025   0.00000  Uiso   1.00
C169   C     0.66401   0.75091   0.16683   0.00000  Uiso   1.00
C170   C     0.83599   0.74909   0.16651   0.00000  Uiso   1.00
C171   C     0.72487   0.60298   0.13158   0.00000  Uiso   1.00
C172   C     0.77513   0.89702   0.20176   0.00000  Uiso   1.00
C173   C     0.78124   0.60136   0.19516   0.00000  Uiso   1.00
C174   C     0.71876   0.89864   0.13817   0.00000  Uiso   1.00
C175   C     0.72904   0.55374   0.12661   0.00000  Uiso   1.00
C176   C     0.77096   0.94626   0.20673   0.00000  Uiso   1.00
C177   C     0.78561   0.55201   0.19107   0.00000  Uiso   1.00
C178   C     0.71439   0.94799   0.14227   0.00000  Uiso   1.00
C179   C     0.74994   0.74994   0.07295   0.00000  Uiso   1.00
C180   C     0.75006   0.75006   0.26039   0.00000  Uiso   1.00
C181   C     0.75271   0.52672   0.16381   0.00000  Uiso   1.00
C182   C     0.74729   0.97328   0.16952   0.00000  Uiso   1.00
C183   C     0.74998   0.74991   0.02182   0.00000  Uiso   1.00
C184   C     0.75002   0.75009   0.31151   0.00000  Uiso   1.00
C185   C     0.54680   0.77710   0.20623   0.00000  Uiso   1.00
C186   C     0.95320   0.72290   0.12710   0.00000  Uiso   1.00
C187   C     0.95394   0.74230   0.21474   0.00000  Uiso   1.00
C188   C     0.54606   0.75770   0.11859   0.00000  Uiso   1.00
C189   C     0.59353   0.77139   0.20836   0.00000  Uiso   1.00
C190   C     0.90647   0.72861   0.12497   0.00000  Uiso   1.00
C191   C     0.90721   0.74842   0.21372   0.00000  Uiso   1.00
C192   C     0.59278   0.75158   0.11961   0.00000  Uiso   1.00
C193   C     0.61585   0.75423   0.16586   0.00000  Uiso   1.00
C194   C     0.88415   0.74577   0.16748   0.00000  Uiso   1.00
C195   C     0.52325   0.75876   0.16452   0.00000  Uiso   1.00
C196   C     0.97675   0.74124   0.16881   0.00000  Uiso   1.00
N197   N     0.75000   0.62623   0.16667   0.00000  Uiso   1.00
N198   N     0.75000   0.87377   0.16667   0.00000  Uiso   1.00
O199   O     0.68453   0.78974   0.16667   0.00000  Uiso   1.00
O200   O     0.81547   0.71026   0.16666   0.00000  Uiso   1.00
O201   O     0.81547   0.78974   0.16666   0.00000  Uiso   1.00
O202   O     0.68453   0.71026   0.16667   0.00000  Uiso   1.00
O203   O     0.75000   0.78973   0.09511   0.00000  Uiso   1.00
O204   O     0.75000   0.71027   0.23822   0.00000  Uiso   1.00
O205   O     0.75000   0.78973   0.23822   0.00000  Uiso   1.00
O206   O     0.75000   0.71027   0.09511   0.00000  Uiso   1.00
Zn207  Zn    0.75000   0.80307   0.16667   0.00000  Uiso   1.00
Zn208  Zn    0.75000   0.69693   0.16667   0.00000  Uiso   1.00
Cl209  Cl    0.68863   0.63433   0.08978   0.00000  Uiso   1.00
Cl210  Cl    0.81137   0.86567   0.24355   0.00000  Uiso   1.00
Cl211  Cl    0.81852   0.63098   0.23526   0.00000  Uiso   1.00
Cl212  Cl    0.68147   0.86902   0.09807   0.00000  Uiso   1.00
Cl213  Cl    0.52055   0.81801   0.24738   0.00000  Uiso   1.00
Cl214  Cl    0.97945   0.68199   0.08595   0.00000  Uiso   1.00
Cl215  Cl    0.98096   0.72232   0.27091   0.00000  Uiso   1.00
Cl216  Cl    0.51904   0.77768   0.06243   0.00000  Uiso   1.00
Cl217  Cl    0.62378   0.78716   0.26337   0.00000  Uiso   1.00
Cl218  Cl    0.87622   0.71284   0.06996   0.00000  Uiso   1.00
Cl219  Cl    0.87772   0.75590   0.27032   0.00000  Uiso   1.00
Cl220  Cl    0.62228   0.74410   0.06301   0.00000  Uiso   1.00
Cl221  Cl    0.72047   0.53050   0.06558   0.00000  Uiso   1.00
Cl222  Cl    0.77953   0.96950   0.26775   0.00000  Uiso   1.00
Cl223  Cl    0.84000   0.52652   0.20308   0.00000  Uiso   1.00
Cl224  Cl    0.66000   0.97348   0.13025   0.00000  Uiso   1.00
C225   C     0.16401   0.25091   0.50016   0.00000  Uiso   1.00
C226   C     0.33599   0.24909   0.49984   0.00000  Uiso   1.00
C227   C     0.22487   0.10298   0.46491   0.00000  Uiso   1.00
C228   C     0.27513   0.39702   0.53509   0.00000  Uiso   1.00
C229   C     0.28124   0.10136   0.52850   0.00000  Uiso   1.00
C230   C     0.21876   0.39864   0.47150   0.00000  Uiso   1.00
C231   C     0.22904   0.05374   0.45994   0.00000  Uiso   1.00
C232   C     0.27096   0.44626   0.54006   0.00000  Uiso   1.00
C233   C     0.28561   0.05201   0.52440   0.00000  Uiso   1.00
C234   C     0.21439   0.44799   0.47560   0.00000  Uiso   1.00
C235   C     0.24994   0.24994   0.40628   0.00000  Uiso   1.00
C236   C     0.25006   0.25006   0.59372   0.00000  Uiso   1.00
C237   C     0.25271   0.02672   0.49714   0.00000  Uiso   1.00
C238   C     0.24729   0.47328   0.50286   0.00000  Uiso   1.00
C239   C     0.24998   0.24991   0.35515   0.00000  Uiso   1.00
C240   C     0.25002   0.25009   0.64485   0.00000  Uiso   1.00
C241   C     0.04680   0.27710   0.53957   0.00000  Uiso   1.00
C242   C     0.45320   0.22290   0.46043   0.00000  Uiso   1.00
C243   C     0.45394   0.24230   0.54807   0.00000  Uiso   1.00
C244   C     0.04606   0.25770   0.45193   0.00000  Uiso   1.00
C245   C     0.09353   0.27139   0.54170   0.00000  Uiso   1.00
C246   C     0.40647   0.22861   0.45831   0.00000  Uiso   1.00
C247   C     0.40721   0.24842   0.54705   0.00000  Uiso   1.00
C248   C     0.09278   0.25158   0.45295   0.00000  Uiso   1.00
C249   C     0.11585   0.25423   0.49919   0.00000  Uiso   1.00
C250   C     0.38415   0.24577   0.50081   0.00000  Uiso   1.00
C251   C     0.02325   0.25876   0.49786   0.00000  Uiso   1.00
C252   C     0.47675   0.24124   0.50214   0.00000  Uiso   1.00
N253   N     0.25000   0.12623   0.50000   0.00000  Uiso   1.00
N254   N     0.25000   0.37377   0.50000   0.00000  Uiso   1.00
O255   O     0.18453   0.28974   0.50000   0.00000  Uiso   1.00
O256   O     0.31547   0.21026   0.50000   0.00000  Uiso   1.00
O257   O     0.31547   0.28974   0.50000   0.00000  Uiso   1.00
O258   O     0.18453   0.21026   0.50000   0.00000  Uiso   1.00
O259   O     0.25000   0.28973   0.42845   0.00000  Uiso   1.00
O260   O     0.25000   0.21027   0.57155   0.00000  Uiso   1.00
O261   O     0.25000   0.28973   0.57155   0.00000  Uiso   1.00
O262   O     0.25000   0.21027   0.42845   0.00000  Uiso   1.00
Zn263  Zn    0.25000   0.30307   0.50000   0.00000  Uiso   1.00
Zn264  Zn    0.25000   0.19693   0.50000   0.00000  Uiso   1.00
Cl265  Cl    0.18863   0.13433   0.42311   0.00000  Uiso   1.00
Cl266  Cl    0.31137   0.36567   0.57689   0.00000  Uiso   1.00
Cl267  Cl    0.31852   0.13098   0.56859   0.00000  Uiso   1.00
Cl268  Cl    0.18147   0.36902   0.43141   0.00000  Uiso   1.00
Cl269  Cl    0.02055   0.31801   0.58072   0.00000  Uiso   1.00
Cl270  Cl    0.47945   0.18199   0.41928   0.00000  Uiso   1.00
Cl271  Cl    0.48096   0.22232   0.60424   0.00000  Uiso   1.00
Cl272  Cl    0.01904   0.27768   0.39576   0.00000  Uiso   1.00
Cl273  Cl    0.12378   0.28716   0.59671   0.00000  Uiso   1.00
Cl274  Cl    0.37622   0.21284   0.40329   0.00000  Uiso   1.00
Cl275  Cl    0.37772   0.25590   0.60366   0.00000  Uiso   1.00
Cl276  Cl    0.12228   0.24410   0.39634   0.00000  Uiso   1.00
Cl277  Cl    0.22047   0.03050   0.39892   0.00000  Uiso   1.00
Cl278  Cl    0.27953   0.46950   0.60109   0.00000  Uiso   1.00
Cl279  Cl    0.34000   0.02652   0.53642   0.00000  Uiso   1.00
Cl280  Cl    0.16000   0.47348   0.46358   0.00000  Uiso   1.00
C281   C     0.66401   0.25091   0.50016   0.00000  Uiso   1.00
C282   C     0.83599   0.24909   0.49984   0.00000  Uiso   1.00
C283   C     0.72487   0.10298   0.46491   0.00000  Uiso   1.00
C284   C     0.77513   0.39702   0.53509   0.00000  Uiso   1.00
C285   C     0.78124   0.10136   0.52850   0.00000  Uiso   1.00
C286   C     0.71876   0.39864   0.47150   0.00000  Uiso   1.00
C287   C     0.72904   0.05374   0.45994   0.00000  Uiso   1.00
C288   C     0.77096   0.44626   0.54006   0.00000  Uiso   1.00
C289   C     0.78561   0.05201   0.52440   0.00000  Uiso   1.00
C290   C     0.71439   0.44799   0.47560   0.00000  Uiso   1.00
C291   C     0.74994   0.24994   0.40628   0.00000  Uiso   1.00
C292   C     0.75006   0.25006   0.59372   0.00000  Uiso   1.00
C293   C     0.75271   0.02672   0.49714   0.00000  Uiso   1.00
C294   C     0.74729   0.47328   0.50286   0.00000  Uiso   1.00
C295   C     0.74998   0.24991   0.35515   0.00000  Uiso   1.00
C296   C     0.75002   0.25009   0.64485   0.00000  Uiso   1.00
C297   C     0.54680   0.27710   0.53957   0.00000  Uiso   1.00
C298   C     0.95320   0.22290   0.46043   0.00000  Uiso   1.00
C299   C     0.95394   0.24230   0.54807   0.00000  Uiso   1.00
C300   C     0.54606   0.25770   0.45193   0.00000  Uiso   1.00
C301   C     0.59353   0.27139   0.54170   0.00000  Uiso   1.00
C302   C     0.90647   0.22861   0.45831   0.00000  Uiso   1.00
C303   C     0.90721   0.24842   0.54705   0.00000  Uiso   1.00
C304   C     0.59278   0.25158   0.45295   0.00000  Uiso   1.00
C305   C     0.61585   0.25423   0.49919   0.00000  Uiso   1.00
C306   C     0.88415   0.24577   0.50081   0.00000  Uiso   1.00
C307   C     0.52325   0.25876   0.49786   0.00000  Uiso   1.00
C308   C     0.97675   0.24124   0.50214   0.00000  Uiso   1.00
N309   N     0.75000   0.12623   0.50000   0.00000  Uiso   1.00
N310   N     0.75000   0.37377   0.50000   0.00000  Uiso   1.00
O311   O     0.68453   0.28974   0.50000   0.00000  Uiso   1.00
O312   O     0.81547   0.21026   0.50000   0.00000  Uiso   1.00
O313   O     0.81547   0.28974   0.50000   0.00000  Uiso   1.00
O314   O     0.68453   0.21026   0.50000   0.00000  Uiso   1.00
O315   O     0.75000   0.28973   0.42845   0.00000  Uiso   1.00
O316   O     0.75000   0.21027   0.57155   0.00000  Uiso   1.00
O317   O     0.75000   0.28973   0.57155   0.00000  Uiso   1.00
O318   O     0.75000   0.21027   0.42845   0.00000  Uiso   1.00
Zn319  Zn    0.75000   0.30307   0.50000   0.00000  Uiso   1.00
Zn320  Zn    0.75000   0.19693   0.50000   0.00000  Uiso   1.00
Cl321  Cl    0.68863   0.13433   0.42311   0.00000  Uiso   1.00
Cl322  Cl    0.81137   0.36567   0.57689   0.00000  Uiso   1.00
Cl323  Cl    0.81852   0.13098   0.56859   0.00000  Uiso   1.00
Cl324  Cl    0.68147   0.36902   0.43141   0.00000  Uiso   1.00
Cl325  Cl    0.52055   0.31801   0.58072   0.00000  Uiso   1.00
Cl326  Cl    0.97945   0.18199   0.41928   0.00000  Uiso   1.00
Cl327  Cl    0.98096   0.22232   0.60424   0.00000  Uiso   1.00
Cl328  Cl    0.51904   0.27768   0.39576   0.00000  Uiso   1.00
Cl329  Cl    0.62378   0.28716   0.59671   0.00000  Uiso   1.00
Cl330  Cl    0.87622   0.21284   0.40329   0.00000  Uiso   1.00
Cl331  Cl    0.87772   0.25590   0.60366   0.00000  Uiso   1.00
Cl332  Cl    0.62228   0.24410   0.39634   0.00000  Uiso   1.00
Cl333  Cl    0.72047   0.03050   0.39892   0.00000  Uiso   1.00
Cl334  Cl    0.77953   0.46950   0.60109   0.00000  Uiso   1.00
Cl335  Cl    0.84000   0.02652   0.53642   0.00000  Uiso   1.00
Cl336  Cl    0.66000   0.47348   0.46358   0.00000  Uiso   1.00
C337   C     0.16401   0.75091   0.50016   0.00000  Uiso   1.00
C338   C     0.33599   0.74909   0.49984   0.00000  Uiso   1.00
C339   C     0.22487   0.60298   0.46491   0.00000  Uiso   1.00
C340   C     0.27513   0.89702   0.53509   0.00000  Uiso   1.00
C341   C     0.28124   0.60136   0.52850   0.00000  Uiso   1.00
C342   C     0.21876   0.89864   0.47150   0.00000  Uiso   1.00
C343   C     0.22904   0.55374   0.45994   0.00000  Uiso   1.00
C344   C     0.27096   0.94626   0.54006   0.00000  Uiso   1.00
C345   C     0.28561   0.55201   0.52440   0.00000  Uiso   1.00
C346   C     0.21439   0.94799   0.47560   0.00000  Uiso   1.00
C347   C     0.24994   0.74994   0.40628   0.00000  Uiso   1.00
C348   C     0.25006   0.75006   0.59372   0.00000  Uiso   1.00
C349   C     0.25271   0.52672   0.49714   0.00000  Uiso   1.00
C350   C     0.24729   0.97328   0.50286   0.00000  Uiso   1.00
C351   C     0.24998   0.74991   0.35515   0.00000  Uiso   1.00
C352   C     0.25002   0.75009   0.64485   0.00000  Uiso   1.00
C353   C     0.04680   0.77710   0.53957   0.00000  Uiso   1.00
C354   C     0.45320   0.72290   0.46043   0.00000  Uiso   1.00
C355   C     0.45394   0.74230   0.54807   0.00000  Uiso   1.00
C356   C     0.04606   0.75770   0.45193   0.00000  Uiso   1.00
C357   C     0.09353   0.77139   0.54170   0.00000  Uiso   1.00
C358   C     0.40647   0.72861   0.45831   0.00000  Uiso   1.00
C359   C     0.40721   0.74842   0.54705   0.00000  Uiso   1.00
C360   C     0.09278   0.75158   0.45295   0.00000  Uiso   1.00
C361   C     0.11585   0.75423   0.49919   0.00000  Uiso   1.00
C362   C     0.38415   0.74577   0.50081   0.00000  Uiso   1.00
C363   C     0.02325   0.75876   0.49786   0.00000  Uiso   1.00
C364   C     0.47675   0.74124   0.50214   0.00000  Uiso   1.00
N365   N     0.25000   0.62623   0.50000   0.00000  Uiso   1.00
N366   N     0.25000   0.87377   0.50000   0.00000  Uiso   1.00
O367   O     0.18453   0.78974   0.50000   0.00000  Uiso   1.00
O368   O     0.31547   0.71026   0.50000   0.00000  Uiso   1.00
O369   O     0.31547   0.78974   0.50000   0.00000  Uiso   1.00
O370   O     0.18453   0.71026   0.50000   0.00000  Uiso   1.00
O371   O     0.25000   0.78973   0.42845   0.00000  Uiso   1.00
O372   O     0.25000   0.71027   0.57155   0.00000  Uiso   1.00
O373   O     0.25000   0.78973   0.57155   0.00000  Uiso   1.00
O374   O     0.25000   0.71027   0.42845   0.00000  Uiso   1.00
Zn375  Zn    0.25000   0.80307   0.50000   0.00000  Uiso   1.00
Zn376  Zn    0.25000   0.69693   0.50000   0.00000  Uiso   1.00
Cl377  Cl    0.18863   0.63433   0.42311   0.00000  Uiso   1.00
Cl378  Cl    0.31137   0.86567   0.57689   0.00000  Uiso   1.00
Cl379  Cl    0.31852   0.63098   0.56859   0.00000  Uiso   1.00
Cl380  Cl    0.18147   0.86902   0.43141   0.00000  Uiso   1.00
Cl381  Cl    0.02055   0.81801   0.58072   0.00000  Uiso   1.00
Cl382  Cl    0.47945   0.68199   0.41928   0.00000  Uiso   1.00
Cl383  Cl    0.48096   0.72232   0.60424   0.00000  Uiso   1.00
Cl384  Cl    0.01904   0.77768   0.39576   0.00000  Uiso   1.00
Cl385  Cl    0.12378   0.78716   0.59671   0.00000  Uiso   1.00
Cl386  Cl    0.37622   0.71284   0.40329   0.00000  Uiso   1.00
Cl387  Cl    0.37772   0.75590   0.60366   0.00000  Uiso   1.00
Cl388  Cl    0.12228   0.74410   0.39634   0.00000  Uiso   1.00
Cl389  Cl    0.22047   0.53050   0.39892   0.00000  Uiso   1.00
Cl390  Cl    0.27953   0.96950   0.60109   0.00000  Uiso   1.00
Cl391  Cl    0.34000   0.52652   0.53642   0.00000  Uiso   1.00
Cl392  Cl    0.16000   0.97348   0.46358   0.00000  Uiso   1.00
C393   C     0.66401   0.75091   0.50016   0.00000  Uiso   1.00
C394   C     0.83599   0.74909   0.49984   0.00000  Uiso   1.00
C395   C     0.72487   0.60298   0.46491   0.00000  Uiso   1.00
C396   C     0.77513   0.89702   0.53509   0.00000  Uiso   1.00
C397   C     0.78124   0.60136   0.52850   0.00000  Uiso   1.00
C398   C     0.71876   0.89864   0.47150   0.00000  Uiso   1.00
C399   C     0.72904   0.55374   0.45994   0.00000  Uiso   1.00
C400   C     0.77096   0.94626   0.54006   0.00000  Uiso   1.00
C401   C     0.78561   0.55201   0.52440   0.00000  Uiso   1.00
C402   C     0.71439   0.94799   0.47560   0.00000  Uiso   1.00
C403   C     0.74994   0.74994   0.40628   0.00000  Uiso   1.00
C404   C     0.75006   0.75006   0.59372   0.00000  Uiso   1.00
C405   C     0.75271   0.52672   0.49714   0.00000  Uiso   1.00
C406   C     0.74729   0.97328   0.50286   0.00000  Uiso   1.00
C407   C     0.74998   0.74991   0.35515   0.00000  Uiso   1.00
C408   C     0.75002   0.75009   0.64485   0.00000  Uiso   1.00
C409   C     0.54680   0.77710   0.53957   0.00000  Uiso   1.00
C410   C     0.95320   0.72290   0.46043   0.00000  Uiso   1.00
C411   C     0.95394   0.74230   0.54807   0.00000  Uiso   1.00
C412   C     0.54606   0.75770   0.45193   0.00000  Uiso   1.00
C413   C     0.59353   0.77139   0.54170   0.00000  Uiso   1.00
C414   C     0.90647   0.72861   0.45831   0.00000  Uiso   1.00
C415   C     0.90721   0.74842   0.54705   0.00000  Uiso   1.00
C416   C     0.59278   0.75158   0.45295   0.00000  Uiso   1.00
C417   C     0.61585   0.75423   0.49919   0.00000  Uiso   1.00
C418   C     0.88415   0.74577   0.50081   0.00000  Uiso   1.00
C419   C     0.52325   0.75876   0.49786   0.00000  Uiso   1.00
C420   C     0.97675   0.74124   0.50214   0.00000  Uiso   1.00
N421   N     0.75000   0.62623   0.50000   0.00000  Uiso   1.00
N422   N     0.75000   0.87377   0.50000   0.00000  Uiso   1.00
O423   O     0.68453   0.78974   0.50000   0.00000  Uiso   1.00
O424   O     0.81547   0.71026   0.50000   0.00000  Uiso   1.00
O425   O     0.81547   0.78974   0.50000   0.00000  Uiso   1.00
O426   O     0.68453   0.71026   0.50000   0.00000  Uiso   1.00
O427   O     0.75000   0.78973   0.42845   0.00000  Uiso   1.00
O428   O     0.75000   0.71027   0.57155   0.00000  Uiso   1.00
O429   O     0.75000   0.78973   0.57155   0.00000  Uiso   1.00
O430   O     0.75000   0.71027   0.42845   0.00000  Uiso   1.00
Zn431  Zn    0.75000   0.80307   0.50000   0.00000  Uiso   1.00
Zn432  Zn    0.75000   0.69693   0.50000   0.00000  Uiso   1.00
Cl433  Cl    0.68863   0.63433   0.42311   0.00000  Uiso   1.00
Cl434  Cl    0.81137   0.86567   0.57689   0.00000  Uiso   1.00
Cl435  Cl    0.81852   0.63098   0.56859   0.00000  Uiso   1.00
Cl436  Cl    0.68147   0.86902   0.43141   0.00000  Uiso   1.00
Cl437  Cl    0.52055   0.81801   0.58072   0.00000  Uiso   1.00
Cl438  Cl    0.97945   0.68199   0.41928   0.00000  Uiso   1.00
Cl439  Cl    0.98096   0.72232   0.60424   0.00000  Uiso   1.00
Cl440  Cl    0.51904   0.77768   0.39576   0.00000  Uiso   1.00
Cl441  Cl    0.62378   0.78716   0.59671   0.00000  Uiso   1.00
Cl442  Cl    0.87622   0.71284   0.40329   0.00000  Uiso   1.00
Cl443  Cl    0.87772   0.75590   0.60366   0.00000  Uiso   1.00
Cl444  Cl    0.62228   0.74410   0.39634   0.00000  Uiso   1.00
Cl445  Cl    0.72047   0.53050   0.39892   0.00000  Uiso   1.00
Cl446  Cl    0.77953   0.96950   0.60109   0.00000  Uiso   1.00
Cl447  Cl    0.84000   0.52652   0.53642   0.00000  Uiso   1.00
Cl448  Cl    0.66000   0.97348   0.46358   0.00000  Uiso   1.00
C449   C     0.16401   0.25091   0.83349   0.00000  Uiso   1.00
C450   C     0.33599   0.24909   0.83317   0.00000  Uiso   1.00
C451   C     0.22487   0.10298   0.79824   0.00000  Uiso   1.00
C452   C     0.27513   0.39702   0.86842   0.00000  Uiso   1.00
C453   C     0.28124   0.10136   0.86183   0.00000  Uiso   1.00
C454   C     0.21876   0.39864   0.80484   0.00000  Uiso   1.00
C455   C     0.22904   0.05374   0.79327   0.00000  Uiso   1.00
C456   C     0.27096   0.44626   0.87339   0.00000  Uiso   1.00
C457   C     0.28561   0.05201   0.85773   0.00000  Uiso   1.00
C458   C     0.21439   0.44799   0.80893   0.00000  Uiso   1.00
C459   C     0.24994   0.24994   0.73961   0.00000  Uiso   1.00
C460   C     0.25006   0.25006   0.92705   0.00000  Uiso   1.00
C461   C     0.25271   0.02672   0.83048   0.00000  Uiso   1.00
C462   C     0.24729   0.47328   0.83619   0.00000  Uiso   1.00
C463   C     0.24998   0.24991   0.68849   0.00000  Uiso   1.00
C464   C     0.25002   0.25009   0.97818   0.00000  Uiso   1.00
C465   C     0.04680   0.27710   0.87290   0.00000  Uiso   1.00
C466   C     0.45320   0.22290   0.79377   0.00000  Uiso   1.00
C467   C     0.45394   0.24230   0.88141   0.00000  Uiso   1.00
C468   C     0.04606   0.25770   0.78526   0.00000  Uiso   1.00
C469   C     0.09353   0.27139   0.87503   0.00000  Uiso   1.00
C470   C     0.40647   0.22861   0.79164   0.00000  Uiso   1.00
C471   C     0.40721   0.24842   0.88039   0.00000  Uiso   1.00
C472   C     0.09278   0.25158   0.78628   0.00000  Uiso   1.00
C473   C     0.11585   0.25423   0.83253   0.00000  Uiso   1.00
C474   C     0.38415   0.24577   0.83414   0.00000  Uiso   1.00
C475   C     0.02325   0.25876   0.83119   0.00000  Uiso   1.00
C476   C     0.47675   0.24124   0.83548   0.00000  Uiso   1.00
N477   N     0.25000   0.12623   0.83333   0.00000  Uiso   1.00
N478   N     0.25000   0.37377   0.83333   0.00000  Uiso   1.00
O479   O     0.18453   0.28974   0.83334   0.00000  Uiso   1.00
O480   O     0.31547   0.21026   0.83333   0.00000  Uiso   1.00
O481   O     0.31547   0.28974   0.83333   0.00000  Uiso   1.00
O482   O     0.18453   0.21026   0.83334   0.00000  Uiso   1.00
O483   O     0.25000   0.28973   0.76178   0.00000  Uiso   1.00
O484   O     0.25000   0.21027   0.90489   0.00000  Uiso   1.00
O485   O     0.25000   0.28973   0.90489   0.00000  Uiso   1.00
O486   O     0.25000   0.21027   0.76178   0.00000  Uiso   1.00
Zn487  Zn    0.25000   0.30307   0.83333   0.00000  Uiso   1.00
Zn488  Zn    0.25000   0.19693   0.83333   0.00000  Uiso   1.00
Cl489  Cl    0.18863   0.13433   0.75645   0.00000  Uiso   1.00
Cl490  Cl    0.31137   0.36567   0.91022   0.00000  Uiso   1.00
Cl491  Cl    0.31852   0.13098   0.90193   0.00000  Uiso   1.00
Cl492  Cl    0.18147   0.36902   0.76474   0.00000  Uiso   1.00
Cl493  Cl    0.02055   0.31801   0.91405   0.00000  Uiso   1.00
Cl494  Cl    0.47945   0.18199   0.75262   0.00000  Uiso   1.00
Cl495  Cl    0.48096   0.22232   0.93757   0.00000  Uiso   1.00
Cl496  Cl    0.01904   0.27768   0.72909   0.00000  Uiso   1.00
Cl497  Cl    0.12378   0.28716   0.93004   0.00000  Uiso   1.00
Cl498  Cl    0.37622   0.21284   0.73663   0.00000  Uiso   1.00
Cl499  Cl    0.37772   0.25590   0.93699   0.00000  Uiso   1.00
Cl500  Cl    0.12228   0.24410   0.72968   0.00000  Uiso   1.00
Cl501  Cl    0.22047   0.03050   0.73225   0.00000  Uiso   1.00
Cl502  Cl    0.27953   0.46950   0.93442   0.00000  Uiso   1.00
Cl503  Cl    0.34000   0.02652   0.86975   0.00000  Uiso   1.00
Cl504  Cl    0.16000   0.47348   0.79692   0.00000  Uiso   1.00
C505   C     0.66401   0.25091   0.83349   0.00000  Uiso   1.00
C506   C     0.83599   0.24909   0.83317   0.00000  Uiso   1.00
C507   C     0.72487   0.10298   0.79824   0.00000  Uiso   1.00
C508   C     0.77513   0.39702   0.86842   0.00000  Uiso   1.00
C509   C     0.78124   0.10136   0.86183   0.00000  Uiso   1.00
C510   C     0.71876   0.39864   0.80484   0.00000  Uiso   1.00
C511   C     0.72904   0.05374   0.79327   0.00000  Uiso   1.00
C512   C     0.77096   0.44626   0.87339   0.00000  Uiso   1.00
C513   C     0.78561   0.05201   0.85773   0.00000  Uiso   1.00
C514   C     0.71439   0.44799   0.80893   0.00000  Uiso   1.00
C515   C     0.74994   0.24994   0.73961   0.00000  Uiso   1.00
C516   C     0.75006   0.25006   0.92705   0.00000  Uiso   1.00
C517   C     0.75271   0.02672   0.83048   0.00000  Uiso   1.00
C518   C     0.74729   0.47328   0.83619   0.00000  Uiso   1.00
C519   C     0.74998   0.24991   0.68849   0.00000  Uiso   1.00
C520   C     0.75002   0.25009   0.97818   0.00000  Uiso   1.00
C521   C     0.54680   0.27710   0.87290   0.00000  Uiso   1.00
C522   C     0.95320   0.22290   0.79377   0.00000  Uiso   1.00
C523   C     0.95394   0.24230   0.88141   0.00000  Uiso   1.00
C524   C     0.54606   0.25770   0.78526   0.00000  Uiso   1.00
C525   C     0.59353   0.27139   0.87503   0.00000  Uiso   1.00
C526   C     0.90647   0.22861   0.79164   0.00000  Uiso   1.00
C527   C     0.90721   0.24842   0.88039   0.00000  Uiso   1.00
C528   C     0.59278   0.25158   0.78628   0.00000  Uiso   1.00
C529   C     0.61585   0.25423   0.83253   0.00000  Uiso   1.00
C530   C     0.88415   0.24577   0.83414   0.00000  Uiso   1.00
C531   C     0.52325   0.25876   0.83119   0.00000  Uiso   1.00
C532   C     0.97675   0.24124   0.83548   0.00000  Uiso   1.00
N533   N     0.75000   0.12623   0.83333   0.00000  Uiso   1.00
N534   N     0.75000   0.37377   0.83333   0.00000  Uiso   1.00
O535   O     0.68453   0.28974   0.83334   0.00000  Uiso   1.00
O536   O     0.81547   0.21026   0.83333   0.00000  Uiso   1.00
O537   O     0.81547   0.28974   0.83333   0.00000  Uiso   1.00
O538   O     0.68453   0.21026   0.83334   0.00000  Uiso   1.00
O539   O     0.75000   0.28973   0.76178   0.00000  Uiso   1.00
O540   O     0.75000   0.21027   0.90489   0.00000  Uiso   1.00
O541   O     0.75000   0.28973   0.90489   0.00000  Uiso   1.00
O542   O     0.75000   0.21027   0.76178   0.00000  Uiso   1.00
Zn543  Zn    0.75000   0.30307   0.83333   0.00000  Uiso   1.00
Zn544  Zn    0.75000   0.19693   0.83333   0.00000  Uiso   1.00
Cl545  Cl    0.68863   0.13433   0.75645   0.00000  Uiso   1.00
Cl546  Cl    0.81137   0.36567   0.91022   0.00000  Uiso   1.00
Cl547  Cl    0.81852   0.13098   0.90193   0.00000  Uiso   1.00
Cl548  Cl    0.68147   0.36902   0.76474   0.00000  Uiso   1.00
Cl549  Cl    0.52055   0.31801   0.91405   0.00000  Uiso   1.00
Cl550  Cl    0.97945   0.18199   0.75262   0.00000  Uiso   1.00
Cl551  Cl    0.98096   0.22232   0.93757   0.00000  Uiso   1.00
Cl552  Cl    0.51904   0.27768   0.72909   0.00000  Uiso   1.00
Cl553  Cl    0.62378   0.28716   0.93004   0.00000  Uiso   1.00
Cl554  Cl    0.87622   0.21284   0.73663   0.00000  Uiso   1.00
Cl555  Cl    0.87772   0.25590   0.93699   0.00000  Uiso   1.00
Cl556  Cl    0.62228   0.24410   0.72968   0.00000  Uiso   1.00
Cl557  Cl    0.72047   0.03050   0.73225   0.00000  Uiso   1.00
Cl558  Cl    0.77953   0.46950   0.93442   0.00000  Uiso   1.00
Cl559  Cl    0.84000   0.02652   0.86975   0.00000  Uiso   1.00
Cl560  Cl    0.66000   0.47348   0.79692   0.00000  Uiso   1.00
C561   C     0.16401   0.75091   0.83349   0.00000  Uiso   1.00
C562   C     0.33599   0.74909   0.83317   0.00000  Uiso   1.00
C563   C     0.22487   0.60298   0.79824   0.00000  Uiso   1.00
C564   C     0.27513   0.89702   0.86842   0.00000  Uiso   1.00
C565   C     0.28124   0.60136   0.86183   0.00000  Uiso   1.00
C566   C     0.21876   0.89864   0.80484   0.00000  Uiso   1.00
C567   C     0.22904   0.55374   0.79327   0.00000  Uiso   1.00
C568   C     0.27096   0.94626   0.87339   0.00000  Uiso   1.00
C569   C     0.28561   0.55201   0.85773   0.00000  Uiso   1.00
C570   C     0.21439   0.94799   0.80893   0.00000  Uiso   1.00
C571   C     0.24994   0.74994   0.73961   0.00000  Uiso   1.00
C572   C     0.25006   0.75006   0.92705   0.00000  Uiso   1.00
C573   C     0.25271   0.52672   0.83048   0.00000  Uiso   1.00
C574   C     0.24729   0.97328   0.83619   0.00000  Uiso   1.00
C575   C     0.24998   0.74991   0.68849   0.00000  Uiso   1.00
C576   C     0.25002   0.75009   0.97818   0.00000  Uiso   1.00
C577   C     0.04680   0.77710   0.87290   0.00000  Uiso   1.00
C578   C     0.45320   0.72290   0.79377   0.00000  Uiso   1.00
C579   C     0.45394   0.74230   0.88141   0.00000  Uiso   1.00
C580   C     0.04606   0.75770   0.78526   0.00000  Uiso   1.00
C581   C     0.09353   0.77139   0.87503   0.00000  Uiso   1.00
C582   C     0.40647   0.72861   0.79164   0.00000  Uiso   1.00
C583   C     0.40721   0.74842   0.88039   0.00000  Uiso   1.00
C584   C     0.09278   0.75158   0.78628   0.00000  Uiso   1.00
C585   C     0.11585   0.75423   0.83253   0.00000  Uiso   1.00
C586   C     0.38415   0.74577   0.83414   0.00000  Uiso   1.00
C587   C     0.02325   0.75876   0.83119   0.00000  Uiso   1.00
C588   C     0.47675   0.74124   0.83548   0.00000  Uiso   1.00
N589   N     0.25000   0.62623   0.83333   0.00000  Uiso   1.00
N590   N     0.25000   0.87377   0.83333   0.00000  Uiso   1.00
O591   O     0.18453   0.78974   0.83334   0.00000  Uiso   1.00
O592   O     0.31547   0.71026   0.83333   0.00000  Uiso   1.00
O593   O     0.31547   0.78974   0.83333   0.00000  Uiso   1.00
O594   O     0.18453   0.71026   0.83334   0.00000  Uiso   1.00
O595   O     0.25000   0.78973   0.76178   0.00000  Uiso   1.00
O596   O     0.25000   0.71027   0.90489   0.00000  Uiso   1.00
O597   O     0.25000   0.78973   0.90489   0.00000  Uiso   1.00
O598   O     0.25000   0.71027   0.76178   0.00000  Uiso   1.00
Zn599  Zn    0.25000   0.80307   0.83333   0.00000  Uiso   1.00
Zn600  Zn    0.25000   0.69693   0.83333   0.00000  Uiso   1.00
Cl601  Cl    0.18863   0.63433   0.75645   0.00000  Uiso   1.00
Cl602  Cl    0.31137   0.86567   0.91022   0.00000  Uiso   1.00
Cl603  Cl    0.31852   0.63098   0.90193   0.00000  Uiso   1.00
Cl604  Cl    0.18147   0.86902   0.76474   0.00000  Uiso   1.00
Cl605  Cl    0.02055   0.81801   0.91405   0.00000  Uiso   1.00
Cl606  Cl    0.47945   0.68199   0.75262   0.00000  Uiso   1.00
Cl607  Cl    0.48096   0.72232   0.93757   0.00000  Uiso   1.00
Cl608  Cl    0.01904   0.77768   0.72909   0.00000  Uiso   1.00
Cl609  Cl    0.12378   0.78716   0.93004   0.00000  Uiso   1.00
Cl610  Cl    0.37622   0.71284   0.73663   0.00000  Uiso   1.00
Cl611  Cl    0.37772   0.75590   0.93699   0.00000  Uiso   1.00
Cl612  Cl    0.12228   0.74410   0.72968   0.00000  Uiso   1.00
Cl613  Cl    0.22047   0.53050   0.73225   0.00000  Uiso   1.00
Cl614  Cl    0.27953   0.96950   0.93442   0.00000  Uiso   1.00
Cl615  Cl    0.34000   0.52652   0.86975   0.00000  Uiso   1.00
Cl616  Cl    0.16000   0.97348   0.79692   0.00000  Uiso   1.00
C617   C     0.66401   0.75091   0.83349   0.00000  Uiso   1.00
C618   C     0.83599   0.74909   0.83317   0.00000  Uiso   1.00
C619   C     0.72487   0.60298   0.79824   0.00000  Uiso   1.00
C620   C     0.77513   0.89702   0.86842   0.00000  Uiso   1.00
C621   C     0.78124   0.60136   0.86183   0.00000  Uiso   1.00
C622   C     0.71876   0.89864   0.80484   0.00000  Uiso   1.00
C623   C     0.72904   0.55374   0.79327   0.00000  Uiso   1.00
C624   C     0.77096   0.94626   0.87339   0.00000  Uiso   1.00
C625   C     0.78561   0.55201   0.85773   0.00000  Uiso   1.00
C626   C     0.71439   0.94799   0.80893   0.00000  Uiso   1.00
C627   C     0.74994   0.74994   0.73961   0.00000  Uiso   1.00
C628   C     0.75006   0.75006   0.92705   0.00000  Uiso   1.00
C629   C     0.75271   0.52672   0.83048   0.00000  Uiso   1.00
C630   C     0.74729   0.97328   0.83619   0.00000  Uiso   1.00
C631   C     0.74998   0.74991   0.68849   0.00000  Uiso   1.00
C632   C     0.75002   0.75009   0.97818   0.00000  Uiso   1.00
C633   C     0.54680   0.77710   0.87290   0.00000  Uiso   1.00
C634   C     0.95320   0.72290   0.79377   0.00000  Uiso   1.00
C635   C     0.95394   0.74230   0.88141   0.00000  Uiso   1.00
C636   C     0.54606   0.75770   0.78526   0.00000  Uiso   1.00
C637   C     0.59353   0.77139   0.87503   0.00000  Uiso   1.00
C638   C     0.90647   0.72861   0.79164   0.00000  Uiso   1.00
C639   C     0.90721   0.74842   0.88039   0.00000  Uiso   1.00
C640   C     0.59278   0.75158   0.78628   0.00000  Uiso   1.00
C641   C     0.61585   0.75423   0.83253   0.00000  Uiso   1.00
C642   C     0.88415   0.74577   0.83414   0.00000  Uiso   1.00
C643   C     0.52325   0.75876   0.83119   0.00000  Uiso   1.00
C644   C     0.97675   0.74124   0.83548   0.00000  Uiso   1.00
N645   N     0.75000   0.62623   0.83333   0.00000  Uiso   1.00
N646   N     0.75000   0.87377   0.83333   0.00000  Uiso   1.00
O647   O     0.68453   0.78974   0.83334   0.00000  Uiso   1.00
O648   O     0.81547   0.71026   0.83333   0.00000  Uiso   1.00
O649   O     0.81547   0.78974   0.83333   0.00000  Uiso   1.00
O650   O     0.68453   0.71026   0.83334   0.00000  Uiso   1.00
O651   O     0.75000   0.78973   0.76178   0.00000  Uiso   1.00
O652   O     0.75000   0.71027   0.90489   0.00000  Uiso   1.00
O653   O     0.75000   0.78973   0.90489   0.00000  Uiso   1.00
O654   O     0.75000   0.71027   0.76178   0.00000  Uiso   1.00
Zn655  Zn    0.75000   0.80307   0.83333   0.00000  Uiso   1.00
Zn656  Zn    0.75000   0.69693   0.83333   0.00000  Uiso   1.00
Cl657  Cl    0.68863   0.63433   0.75645   0.00000  Uiso   1.00
Cl658  Cl    0.81137   0.86567   0.91022   0.00000  Uiso   1.00
Cl659  Cl    0.81852   0.63098   0.90193   0.00000  Uiso   1.00
Cl660  Cl    0.68147   0.86902   0.76474   0.00000  Uiso   1.00
Cl661  Cl    0.52055   0.81801   0.91405   0.00000  Uiso   1.00
Cl662  Cl    0.97945   0.68199   0.75262   0.00000  Uiso   1.00
Cl663  Cl    0.98096   0.72232   0.93757   0.00000  Uiso   1.00
Cl664  Cl    0.51904   0.77768   0.72909   0.00000  Uiso   1.00
Cl665  Cl    0.62378   0.78716   0.93004   0.00000  Uiso   1.00
Cl666  Cl    0.87622   0.71284   0.73663   0.00000  Uiso   1.00
Cl667  Cl    0.87772   0.75590   0.93699   0.00000  Uiso   1.00
Cl668  Cl    0.62228   0.74410   0.72968   0.00000  Uiso   1.00
Cl669  Cl    0.72047   0.53050   0.73225   0.00000  Uiso   1.00
Cl670  Cl    0.77953   0.96950   0.93442   0.00000  Uiso   1.00
Cl671  Cl    0.84000   0.52652   0.86975   0.00000  Uiso   1.00
Cl672  Cl    0.66000   0.97348   0.79692   0.00000  Uiso   1.00
loop_
_geom_bond_atom_site_label_1
_geom_bond_atom_site_label_2
_geom_bond_distance
_geom_bond_site_symmetry_2
_ccdc_geom_bond_type
C1     O34     1.293   .     A
C1     C25     1.429   .     S
C1     O31     1.285   .     A
C2     C26     1.429   .     S
C2     O32     1.285   .     A
C2     O33     1.293   .     A
C3     C7      1.414   .     A
C3     N29     1.370   .     A
C3     Cl41    1.759   .     S
C4     C8      1.414   .     A
C4     Cl42    1.759   .     S
C4     N30     1.370   .     A
C5     C9      1.416   .     A
C5     Cl43    1.760   .     S
C5     N29     1.368   .     A
C6     N30     1.368   .     A
C6     C10     1.416   .     A
C6     Cl44    1.760   .     S
C7     Cl53    1.772   .     S
C7     C13     1.419   .     A
C8     Cl54    1.772   .     S
C8     C14     1.419   .     A
C9     Cl55    1.771   .     S
C9     C13     1.422   .     A
C10    Cl56    1.771   .     S
C10    C14     1.422   .     A
C11    O38     1.281   .     A
C11    O35     1.280   .     A
C11    C15     1.364   .     S
C12    O36     1.280   .     A
C12    C16     1.364   .     S
C12    O37     1.281   .     A
C13    C126    1.550   1_545 S
C14    C125    1.550   .     S
C15    C464    1.164   1_554 S
C16    C239    1.164   .     S
C17    Cl45    1.772   .     S
C17    C27     1.411   .     A
C17    C21     1.391   .     A
C18    Cl46    1.772   .     S
C18    C28     1.411   .     A
C18    C22     1.391   .     A
C19    C28     1.411   .     A
C19    Cl47    1.772   .     S
C19    C23     1.392   .     A
C20    C27     1.411   .     A
C20    Cl48    1.772   .     S
C20    C24     1.392   .     A
C21    Cl49    1.770   .     S
C21    C25     1.403   .     A
C22    Cl50    1.770   .     S
C22    C26     1.403   .     A
C23    C26     1.402   .     A
C23    Cl51    1.769   .     S
C24    Cl52    1.769   .     S
C24    C25     1.402   .     A
C27    C84     1.492   1_455 S
C28    C83     1.492   .     S
N29    Zn40    2.021   .     S
N30    Zn39    2.021   .     S
O31    Zn39    1.994   .     S
O32    Zn40    1.994   .     S
O33    Zn39    1.967   .     S
O34    Zn40    1.967   .     S
O35    Zn39    1.944   .     S
O36    Zn40    1.944   .     S
O37    Zn39    1.948   .     S
O38    Zn40    1.948   .     S
C57    O90     1.293   .     A
C57    C81     1.429   .     S
C57    O87     1.285   .     A
C58    C82     1.429   .     S
C58    O88     1.285   .     A
C58    O89     1.293   .     A
C59    C63     1.414   .     A
C59    N85     1.370   .     A
C59    Cl97    1.759   .     S
C60    C64     1.414   .     A
C60    Cl98    1.759   .     S
C60    N86     1.370   .     A
C61    C65     1.416   .     A
C61    Cl99    1.760   .     S
C61    N85     1.368   .     A
C62    N86     1.368   .     A
C62    C66     1.416   .     A
C62    Cl100   1.760   .     S
C63    Cl109   1.772   .     S
C63    C69     1.419   .     A
C64    Cl110   1.772   .     S
C64    C70     1.419   .     A
C65    Cl111   1.771   .     S
C65    C69     1.422   .     A
C66    Cl112   1.771   .     S
C66    C70     1.422   .     A
C67    O94     1.281   .     A
C67    O91     1.280   .     A
C67    C71     1.364   .     S
C68    O92     1.280   .     A
C68    C72     1.364   .     S
C68    O93     1.281   .     A
C69    C182    1.550   1_545 S
C70    C181    1.550   .     S
C71    C520    1.164   1_554 S
C72    C295    1.164   .     S
C73    Cl101   1.772   .     S
C73    C83     1.411   .     A
C73    C77     1.391   .     A
C74    Cl102   1.772   .     S
C74    C84     1.411   .     A
C74    C78     1.391   .     A
C75    C84     1.411   .     A
C75    Cl103   1.772   .     S
C75    C79     1.392   .     A
C76    C83     1.411   .     A
C76    Cl104   1.772   .     S
C76    C80     1.392   .     A
C77    Cl105   1.770   .     S
C77    C81     1.403   .     A
C78    Cl106   1.770   .     S
C78    C82     1.403   .     A
C79    C82     1.402   .     A
C79    Cl107   1.769   .     S
C80    Cl108   1.769   .     S
C80    C81     1.402   .     A
C84    C27     1.492   1_655 S
N85    Zn96    2.021   .     S
N86    Zn95    2.021   .     S
O87    Zn95    1.994   .     S
O88    Zn96    1.994   .     S
O89    Zn95    1.967   .     S
O90    Zn96    1.967   .     S
O91    Zn95    1.944   .     S
O92    Zn96    1.944   .     S
O93    Zn95    1.948   .     S
O94    Zn96    1.948   .     S
C113   O146    1.293   .     A
C113   C137    1.429   .     S
C113   O143    1.285   .     A
C114   C138    1.429   .     S
C114   O144    1.285   .     A
C114   O145    1.293   .     A
C115   C119    1.414   .     A
C115   N141    1.370   .     A
C115   Cl153   1.759   .     S
C116   C120    1.414   .     A
C116   Cl154   1.759   .     S
C116   N142    1.370   .     A
C117   C121    1.416   .     A
C117   Cl155   1.760   .     S
C117   N141    1.368   .     A
C118   N142    1.368   .     A
C118   C122    1.416   .     A
C118   Cl156   1.760   .     S
C119   Cl165   1.772   .     S
C119   C125    1.419   .     A
C120   Cl166   1.772   .     S
C120   C126    1.419   .     A
C121   Cl167   1.771   .     S
C121   C125    1.422   .     A
C122   Cl168   1.771   .     S
C122   C126    1.422   .     A
C123   O150    1.281   .     A
C123   O147    1.280   .     A
C123   C127    1.364   .     S
C124   O148    1.280   .     A
C124   C128    1.364   .     S
C124   O149    1.281   .     A
C126   C13     1.550   1_565 S
C127   C576    1.164   1_554 S
C128   C351    1.164   .     S
C129   Cl157   1.772   .     S
C129   C139    1.411   .     A
C129   C133    1.391   .     A
C130   Cl158   1.772   .     S
C130   C140    1.411   .     A
C130   C134    1.391   .     A
C131   C140    1.411   .     A
C131   Cl159   1.772   .     S
C131   C135    1.392   .     A
C132   C139    1.411   .     A
C132   Cl160   1.772   .     S
C132   C136    1.392   .     A
C133   Cl161   1.770   .     S
C133   C137    1.403   .     A
C134   Cl162   1.770   .     S
C134   C138    1.403   .     A
C135   C138    1.402   .     A
C135   Cl163   1.769   .     S
C136   Cl164   1.769   .     S
C136   C137    1.402   .     A
C139   C196    1.492   1_455 S
C140   C195    1.492   .     S
N141   Zn152   2.021   .     S
N142   Zn151   2.021   .     S
O143   Zn151   1.994   .     S
O144   Zn152   1.994   .     S
O145   Zn151   1.967   .     S
O146   Zn152   1.967   .     S
O147   Zn151   1.944   .     S
O148   Zn152   1.944   .     S
O149   Zn151   1.948   .     S
O150   Zn152   1.948   .     S
C169   O202    1.293   .     A
C169   C193    1.429   .     S
C169   O199    1.285   .     A
C170   C194    1.429   .     S
C170   O200    1.285   .     A
C170   O201    1.293   .     A
C171   C175    1.414   .     A
C171   N197    1.370   .     A
C171   Cl209   1.759   .     S
C172   C176    1.414   .     A
C172   Cl210   1.759   .     S
C172   N198    1.370   .     A
C173   C177    1.416   .     A
C173   Cl211   1.760   .     S
C173   N197    1.368   .     A
C174   N198    1.368   .     A
C174   C178    1.416   .     A
C174   Cl212   1.760   .     S
C175   Cl221   1.772   .     S
C175   C181    1.419   .     A
C176   Cl222   1.772   .     S
C176   C182    1.419   .     A
C177   Cl223   1.771   .     S
C177   C181    1.422   .     A
C178   Cl224   1.771   .     S
C178   C182    1.422   .     A
C179   O206    1.281   .     A
C179   O203    1.280   .     A
C179   C183    1.364   .     S
C180   O204    1.280   .     A
C180   C184    1.364   .     S
C180   O205    1.281   .     A
C182   C69     1.550   1_565 S
C183   C632    1.164   1_554 S
C184   C407    1.164   .     S
C185   Cl213   1.772   .     S
C185   C195    1.411   .     A
C185   C189    1.391   .     A
C186   Cl214   1.772   .     S
C186   C196    1.411   .     A
C186   C190    1.391   .     A
C187   C196    1.411   .     A
C187   Cl215   1.772   .     S
C187   C191    1.392   .     A
C188   C195    1.411   .     A
C188   Cl216   1.772   .     S
C188   C192    1.392   .     A
C189   Cl217   1.770   .     S
C189   C193    1.403   .     A
C190   Cl218   1.770   .     S
C190   C194    1.403   .     A
C191   C194    1.402   .     A
C191   Cl219   1.769   .     S
C192   Cl220   1.769   .     S
C192   C193    1.402   .     A
C196   C139    1.492   1_655 S
N197   Zn208   2.021   .     S
N198   Zn207   2.021   .     S
O199   Zn207   1.994   .     S
O200   Zn208   1.994   .     S
O201   Zn207   1.967   .     S
O202   Zn208   1.967   .     S
O203   Zn207   1.944   .     S
O204   Zn208   1.944   .     S
O205   Zn207   1.948   .     S
O206   Zn208   1.948   .     S
C225   O258    1.293   .     A
C225   C249    1.429   .     S
C225   O255    1.285   .     A
C226   C250    1.429   .     S
C226   O256    1.285   .     A
C226   O257    1.293   .     A
C227   C231    1.414   .     A
C227   N253    1.370   .     A
C227   Cl265   1.759   .     S
C228   C232    1.414   .     A
C228   Cl266   1.759   .     S
C228   N254    1.370   .     A
C229   C233    1.416   .     A
C229   Cl267   1.760   .     S
C229   N253    1.368   .     A
C230   N254    1.368   .     A
C230   C234    1.416   .     A
C230   Cl268   1.760   .     S
C231   Cl277   1.772   .     S
C231   C237    1.419   .     A
C232   Cl278   1.772   .     S
C232   C238    1.419   .     A
C233   Cl279   1.771   .     S
C233   C237    1.422   .     A
C234   Cl280   1.771   .     S
C234   C238    1.422   .     A
C235   O262    1.281   .     A
C235   O259    1.280   .     A
C235   C239    1.364   .     S
C236   O260    1.280   .     A
C236   C240    1.364   .     S
C236   O261    1.281   .     A
C237   C350    1.550   1_545 S
C238   C349    1.550   .     S
C240   C463    1.164   .     S
C241   Cl269   1.772   .     S
C241   C251    1.411   .     A
C241   C245    1.391   .     A
C242   Cl270   1.772   .     S
C242   C252    1.411   .     A
C242   C246    1.391   .     A
C243   C252    1.411   .     A
C243   Cl271   1.772   .     S
C243   C247    1.392   .     A
C244   C251    1.411   .     A
C244   Cl272   1.772   .     S
C244   C248    1.392   .     A
C245   Cl273   1.770   .     S
C245   C249    1.403   .     A
C246   Cl274   1.770   .     S
C246   C250    1.403   .     A
C247   C250    1.402   .     A
C247   Cl275   1.769   .     S
C248   Cl276   1.769   .     S
C248   C249    1.402   .     A
C251   C308    1.492   1_455 S
C252   C307    1.492   .     S
N253   Zn264   2.021   .     S
N254   Zn263   2.021   .     S
O255   Zn263   1.994   .     S
O256   Zn264   1.994   .     S
O257   Zn263   1.967   .     S
O258   Zn264   1.967   .     S
O259   Zn263   1.944   .     S
O260   Zn264   1.944   .     S
O261   Zn263   1.948   .     S
O262   Zn264   1.948   .     S
C281   O314    1.293   .     A
C281   C305    1.429   .     S
C281   O311    1.285   .     A
C282   C306    1.429   .     S
C282   O312    1.285   .     A
C282   O313    1.293   .     A
C283   C287    1.414   .     A
C283   N309    1.370   .     A
C283   Cl321   1.759   .     S
C284   C288    1.414   .     A
C284   Cl322   1.759   .     S
C284   N310    1.370   .     A
C285   C289    1.416   .     A
C285   Cl323   1.760   .     S
C285   N309    1.368   .     A
C286   N310    1.368   .     A
C286   C290    1.416   .     A
C286   Cl324   1.760   .     S
C287   Cl333   1.772   .     S
C287   C293    1.419   .     A
C288   Cl334   1.772   .     S
C288   C294    1.419   .     A
C289   Cl335   1.771   .     S
C289   C293    1.422   .     A
C290   Cl336   1.771   .     S
C290   C294    1.422   .     A
C291   O318    1.281   .     A
C291   O315    1.280   .     A
C291   C295    1.364   .     S
C292   O316    1.280   .     A
C292   C296    1.364   .     S
C292   O317    1.281   .     A
C293   C406    1.550   1_545 S
C294   C405    1.550   .     S
C296   C519    1.164   .     S
C297   Cl325   1.772   .     S
C297   C307    1.411   .     A
C297   C301    1.391   .     A
C298   Cl326   1.772   .     S
C298   C308    1.411   .     A
C298   C302    1.391   .     A
C299   C308    1.411   .     A
C299   Cl327   1.772   .     S
C299   C303    1.392   .     A
C300   C307    1.411   .     A
C300   Cl328   1.772   .     S
C300   C304    1.392   .     A
C301   Cl329   1.770   .     S
C301   C305    1.403   .     A
C302   Cl330   1.770   .     S
C302   C306    1.403   .     A
C303   C306    1.402   .     A
C303   Cl331   1.769   .     S
C304   Cl332   1.769   .     S
C304   C305    1.402   .     A
C308   C251    1.492   1_655 S
N309   Zn320   2.021   .     S
N310   Zn319   2.021   .     S
O311   Zn319   1.994   .     S
O312   Zn320   1.994   .     S
O313   Zn319   1.967   .     S
O314   Zn320   1.967   .     S
O315   Zn319   1.944   .     S
O316   Zn320   1.944   .     S
O317   Zn319   1.948   .     S
O318   Zn320   1.948   .     S
C337   O370    1.293   .     A
C337   C361    1.429   .     S
C337   O367    1.285   .     A
C338   C362    1.429   .     S
C338   O368    1.285   .     A
C338   O369    1.293   .     A
C339   C343    1.414   .     A
C339   N365    1.370   .     A
C339   Cl377   1.759   .     S
C340   C344    1.414   .     A
C340   Cl378   1.759   .     S
C340   N366    1.370   .     A
C341   C345    1.416   .     A
C341   Cl379   1.760   .     S
C341   N365    1.368   .     A
C342   N366    1.368   .     A
C342   C346    1.416   .     A
C342   Cl380   1.760   .     S
C343   Cl389   1.772   .     S
C343   C349    1.419   .     A
C344   Cl390   1.772   .     S
C344   C350    1.419   .     A
C345   Cl391   1.771   .     S
C345   C349    1.422   .     A
C346   Cl392   1.771   .     S
C346   C350    1.422   .     A
C347   O374    1.281   .     A
C347   O371    1.280   .     A
C347   C351    1.364   .     S
C348   O372    1.280   .     A
C348   C352    1.364   .     S
C348   O373    1.281   .     A
C350   C237    1.550   1_565 S
C352   C575    1.164   .     S
C353   Cl381   1.772   .     S
C353   C363    1.411   .     A
C353   C357    1.391   .     A
C354   Cl382   1.772   .     S
C354   C364    1.411   .     A
C354   C358    1.391   .     A
C355   C364    1.411   .     A
C355   Cl383   1.772   .     S
C355   C359    1.392   .     A
C356   C363    1.411   .     A
C356   Cl384   1.772   .     S
C356   C360    1.392   .     A
C357   Cl385   1.770   .     S
C357   C361    1.403   .     A
C358   Cl386   1.770   .     S
C358   C362    1.403   .     A
C359   C362    1.402   .     A
C359   Cl387   1.769   .     S
C360   Cl388   1.769   .     S
C360   C361    1.402   .     A
C363   C420    1.492   1_455 S
C364   C419    1.492   .     S
N365   Zn376   2.021   .     S
N366   Zn375   2.021   .     S
O367   Zn375   1.994   .     S
O368   Zn376   1.994   .     S
O369   Zn375   1.967   .     S
O370   Zn376   1.967   .     S
O371   Zn375   1.944   .     S
O372   Zn376   1.944   .     S
O373   Zn375   1.948   .     S
O374   Zn376   1.948   .     S
C393   O426    1.293   .     A
C393   C417    1.429   .     S
C393   O423    1.285   .     A
C394   C418    1.429   .     S
C394   O424    1.285   .     A
C394   O425    1.293   .     A
C395   C399    1.414   .     A
C395   N421    1.370   .     A
C395   Cl433   1.759   .     S
C396   C400    1.414   .     A
C396   Cl434   1.759   .     S
C396   N422    1.370   .     A
C397   C401    1.416   .     A
C397   Cl435   1.760   .     S
C397   N421    1.368   .     A
C398   N422    1.368   .     A
C398   C402    1.416   .     A
C398   Cl436   1.760   .     S
C399   Cl445   1.772   .     S
C399   C405    1.419   .     A
C400   Cl446   1.772   .     S
C400   C406    1.419   .     A
C401   Cl447   1.771   .     S
C401   C405    1.422   .     A
C402   Cl448   1.771   .     S
C402   C406    1.422   .     A
C403   O430    1.281   .     A
C403   O427    1.280   .     A
C403   C407    1.364   .     S
C404   O428    1.280   .     A
C404   C408    1.364   .     S
C404   O429    1.281   .     A
C406   C293    1.550   1_565 S
C408   C631    1.164   .     S
C409   Cl437   1.772   .     S
C409   C419    1.411   .     A
C409   C413    1.391   .     A
C410   Cl438   1.772   .     S
C410   C420    1.411   .     A
C410   C414    1.391   .     A
C411   C420    1.411   .     A
C411   Cl439   1.772   .     S
C411   C415    1.392   .     A
C412   C419    1.411   .     A
C412   Cl440   1.772   .     S
C412   C416    1.392   .     A
C413   Cl441   1.770   .     S
C413   C417    1.403   .     A
C414   Cl442   1.770   .     S
C414   C418    1.403   .     A
C415   C418    1.402   .     A
C415   Cl443   1.769   .     S
C416   Cl444   1.769   .     S
C416   C417    1.402   .     A
C420   C363    1.492   1_655 S
N421   Zn432   2.021   .     S
N422   Zn431   2.021   .     S
O423   Zn431   1.994   .     S
O424   Zn432   1.994   .     S
O425   Zn431   1.967   .     S
O426   Zn432   1.967   .     S
O427   Zn431   1.944   .     S
O428   Zn432   1.944   .     S
O429   Zn431   1.948   .     S
O430   Zn432   1.948   .     S
C449   O482    1.293   .     A
C449   C473    1.429   .     S
C449   O479    1.285   .     A
C450   C474    1.429   .     S
C450   O480    1.285   .     A
C450   O481    1.293   .     A
C451   C455    1.414   .     A
C451   N477    1.370   .     A
C451   Cl489   1.759   .     S
C452   C456    1.414   .     A
C452   Cl490   1.759   .     S
C452   N478    1.370   .     A
C453   C457    1.416   .     A
C453   Cl491   1.760   .     S
C453   N477    1.368   .     A
C454   N478    1.368   .     A
C454   C458    1.416   .     A
C454   Cl492   1.760   .     S
C455   Cl501   1.772   .     S
C455   C461    1.419   .     A
C456   Cl502   1.772   .     S
C456   C462    1.419   .     A
C457   Cl503   1.771   .     S
C457   C461    1.422   .     A
C458   Cl504   1.771   .     S
C458   C462    1.422   .     A
C459   O486    1.281   .     A
C459   O483    1.280   .     A
C459   C463    1.364   .     S
C460   O484    1.280   .     A
C460   C464    1.364   .     S
C460   O485    1.281   .     A
C461   C574    1.550   1_545 S
C462   C573    1.550   .     S
C464   C15     1.164   1_556 S
C465   Cl493   1.772   .     S
C465   C475    1.411   .     A
C465   C469    1.391   .     A
C466   Cl494   1.772   .     S
C466   C476    1.411   .     A
C466   C470    1.391   .     A
C467   C476    1.411   .     A
C467   Cl495   1.772   .     S
C467   C471    1.392   .     A
C468   C475    1.411   .     A
C468   Cl496   1.772   .     S
C468   C472    1.392   .     A
C469   Cl497   1.770   .     S
C469   C473    1.403   .     A
C470   Cl498   1.770   .     S
C470   C474    1.403   .     A
C471   C474    1.402   .     A
C471   Cl499   1.769   .     S
C472   Cl500   1.769   .     S
C472   C473    1.402   .     A
C475   C532    1.492   1_455 S
C476   C531    1.492   .     S
N477   Zn488   2.021   .     S
N478   Zn487   2.021   .     S
O479   Zn487   1.994   .     S
O480   Zn488   1.994   .     S
O481   Zn487   1.967   .     S
O482   Zn488   1.967   .     S
O483   Zn487   1.944   .     S
O484   Zn488   1.944   .     S
O485   Zn487   1.948   .     S
O486   Zn488   1.948   .     S
C505   O538    1.293   .     A
C505   C529    1.429   .     S
C505   O535    1.285   .     A
C506   C530    1.429   .     S
C506   O536    1.285   .     A
C506   O537    1.293   .     A
C507   C511    1.414   .     A
C507   N533    1.370   .     A
C507   Cl545   1.759   .     S
C508   C512    1.414   .     A
C508   Cl546   1.759   .     S
C508   N534    1.370   .     A
C509   C513    1.416   .     A
C509   Cl547   1.760   .     S
C509   N533    1.368   .     A
C510   N534    1.368   .     A
C510   C514    1.416   .     A
C510   Cl548   1.760   .     S
C511   Cl557   1.772   .     S
C511   C517    1.419   .     A
C512   Cl558   1.772   .     S
C512   C518    1.419   .     A
C513   Cl559   1.771   .     S
C513   C517    1.422   .     A
C514   Cl560   1.771   .     S
C514   C518    1.422   .     A
C515   O542    1.281   .     A
C515   O539    1.280   .     A
C515   C519    1.364   .     S
C516   O540    1.280   .     A
C516   C520    1.364   .     S
C516   O541    1.281   .     A
C517   C630    1.550   1_545 S
C518   C629    1.550   .     S
C520   C71     1.164   1_556 S
C521   Cl549   1.772   .     S
C521   C531    1.411   .     A
C521   C525    1.391   .     A
C522   Cl550   1.772   .     S
C522   C532    1.411   .     A
C522   C526    1.391   .     A
C523   C532    1.411   .     A
C523   Cl551   1.772   .     S
C523   C527    1.392   .     A
C524   C531    1.411   .     A
C524   Cl552   1.772   .     S
C524   C528    1.392   .     A
C525   Cl553   1.770   .     S
C525   C529    1.403   .     A
C526   Cl554   1.770   .     S
C526   C530    1.403   .     A
C527   C530    1.402   .     A
C527   Cl555   1.769   .     S
C528   Cl556   1.769   .     S
C528   C529    1.402   .     A
C532   C475    1.492   1_655 S
N533   Zn544   2.021   .     S
N534   Zn543   2.021   .     S
O535   Zn543   1.994   .     S
O536   Zn544   1.994   .     S
O537   Zn543   1.967   .     S
O538   Zn544   1.967   .     S
O539   Zn543   1.944   .     S
O540   Zn544   1.944   .     S
O541   Zn543   1.948   .     S
O542   Zn544   1.948   .     S
C561   O594    1.293   .     A
C561   C585    1.429   .     S
C561   O591    1.285   .     A
C562   C586    1.429   .     S
C562   O592    1.285   .     A
C562   O593    1.293   .     A
C563   C567    1.414   .     A
C563   N589    1.370   .     A
C563   Cl601   1.759   .     S
C564   C568    1.414   .     A
C564   Cl602   1.759   .     S
C564   N590    1.370   .     A
C565   C569    1.416   .     A
C565   Cl603   1.760   .     S
C565   N589    1.368   .     A
C566   N590    1.368   .     A
C566   C570    1.416   .     A
C566   Cl604   1.760   .     S
C567   Cl613   1.772   .     S
C567   C573    1.419   .     A
C568   Cl614   1.772   .     S
C568   C574    1.419   .     A
C569   Cl615   1.771   .     S
C569   C573    1.422   .     A
C570   Cl616   1.771   .     S
C570   C574    1.422   .     A
C571   O598    1.281   .     A
C571   O595    1.280   .     A
C571   C575    1.364   .     S
C572   O596    1.280   .     A
C572   C576    1.364   .     S
C572   O597    1.281   .     A
C574   C461    1.550   1_565 S
C576   C127    1.164   1_556 S
C577   Cl605   1.772   .     S
C577   C587    1.411   .     A
C577   C581    1.391   .     A
C578   Cl606   1.772   .     S
C578   C588    1.411   .     A
C578   C582    1.391   .     A
C579   C588    1.411   .     A
C579   Cl607   1.772   .     S
C579   C583    1.392   .     A
C580   C587    1.411   .     A
C580   Cl608   1.772   .     S
C580   C584    1.392   .     A
C581   Cl609   1.770   .     S
C581   C585    1.403   .     A
C582   Cl610   1.770   .     S
C582   C586    1.403   .     A
C583   C586    1.402   .     A
C583   Cl611   1.769   .     S
C584   Cl612   1.769   .     S
C584   C585    1.402   .     A
C587   C644    1.492   1_455 S
C588   C643    1.492   .     S
N589   Zn600   2.021   .     S
N590   Zn599   2.021   .     S
O591   Zn599   1.994   .     S
O592   Zn600   1.994   .     S
O593   Zn599   1.967   .     S
O594   Zn600   1.967   .     S
O595   Zn599   1.944   .     S
O596   Zn600   1.944   .     S
O597   Zn599   1.948   .     S
O598   Zn600   1.948   .     S
C617   O650    1.293   .     A
C617   C641    1.429   .     S
C617   O647    1.285   .     A
C618   C642    1.429   .     S
C618   O648    1.285   .     A
C618   O649    1.293   .     A
C619   C623    1.414   .     A
C619   N645    1.370   .     A
C619   Cl657   1.759   .     S
C620   C624    1.414   .     A
C620   Cl658   1.759   .     S
C620   N646    1.370   .     A
C621   C625    1.416   .     A
C621   Cl659   1.760   .     S
C621   N645    1.368   .     A
C622   N646    1.368   .     A
C622   C626    1.416   .     A
C622   Cl660   1.760   .     S
C623   Cl669   1.772   .     S
C623   C629    1.419   .     A
C624   Cl670   1.772   .     S
C624   C630    1.419   .     A
C625   Cl671   1.771   .     S
C625   C629    1.422   .     A
C626   Cl672   1.771   .     S
C626   C630    1.422   .     A
C627   O654    1.281   .     A
C627   O651    1.280   .     A
C627   C631    1.364   .     S
C628   O652    1.280   .     A
C628   C632    1.364   .     S
C628   O653    1.281   .     A
C630   C517    1.550   1_565 S
C632   C183    1.164   1_556 S
C633   Cl661   1.772   .     S
C633   C643    1.411   .     A
C633   C637    1.391   .     A
C634   Cl662   1.772   .     S
C634   C644    1.411   .     A
C634   C638    1.391   .     A
C635   C644    1.411   .     A
C635   Cl663   1.772   .     S
C635   C639    1.392   .     A
C636   C643    1.411   .     A
C636   Cl664   1.772   .     S
C636   C640    1.392   .     A
C637   Cl665   1.770   .     S
C637   C641    1.403   .     A
C638   Cl666   1.770   .     S
C638   C642    1.403   .     A
C639   C642    1.402   .     A
C639   Cl667   1.769   .     S
C640   Cl668   1.769   .     S
C640   C641    1.402   .     A
C644   C587    1.492   1_655 S
N645   Zn656   2.021   .     S
N646   Zn655   2.021   .     S
O647   Zn655   1.994   .     S
O648   Zn656   1.994   .     S
O649   Zn655   1.967   .     S
O650   Zn656   1.967   .     S
O651   Zn655   1.944   .     S
O652   Zn656   1.944   .     S
O653   Zn655   1.948   .     S
O654   Zn656   1.948   .     S
