data_str_m3_o1_o17_pcu_sym.136
_audit_creation_date              2020-01-03
_audit_creation_method            'Materials Studio'
_symmetry_space_group_name_H-M    'P1'
_symmetry_Int_Tables_number       1
_symmetry_cell_setting            triclinic
loop_
_symmetry_equiv_pos_as_xyz
  x,y,z
_cell_length_a                    32.0995
_cell_length_b                    30.0721
_cell_length_c                    29.9356
_cell_angle_alpha                 90.0884
_cell_angle_beta                  92.0753
_cell_angle_gamma                 89.8852
loop_
_atom_site_label
_atom_site_type_symbol
_atom_site_fract_x
_atom_site_fract_y
_atom_site_fract_z
_atom_site_U_iso_or_equiv
_atom_site_adp_type
_atom_site_occupancy
C1     C     0.08682   0.16669   0.24988   0.00000  Uiso   1.00
C2     C     0.24652   0.16665   0.25012   0.00000  Uiso   1.00
C3     C     0.09218   0.15166   0.01985   0.00000  Uiso   1.00
C4     C     0.24116   0.18167   0.48015   0.00000  Uiso   1.00
C5     C     0.02143   0.12616   0.25119   0.00000  Uiso   1.00
C6     C     0.31191   0.20717   0.24881   0.00000  Uiso   1.00
C7     C     0.31216   0.12614   0.25105   0.00000  Uiso   1.00
C8     C     0.02118   0.20720   0.24895   0.00000  Uiso   1.00
C9     C     0.29078   0.16665   0.25005   0.00000  Uiso   1.00
C10    C     0.04255   0.16669   0.24995   0.00000  Uiso   1.00
C11    C     0.19294   0.02376   0.27833   0.00000  Uiso   1.00
C12    C     0.14039   0.30957   0.22167   0.00000  Uiso   1.00
C13    C     0.14039   0.02380   0.22167   0.00000  Uiso   1.00
C14    C     0.19294   0.30953   0.27833   0.00000  Uiso   1.00
C15    C     0.16584   0.16663   0.16370   0.00000  Uiso   1.00
C16    C     0.16750   0.16671   0.33630   0.00000  Uiso   1.00
C17    C     0.20553   0.16818   0.40848   0.00000  Uiso   1.00
C18    C     0.12781   0.16516   0.09152   0.00000  Uiso   1.00
C19    C     0.16749   0.16675   0.38408   0.00000  Uiso   1.00
C20    C     0.16584   0.16659   0.11592   0.00000  Uiso   1.00
C21    C     0.12915   0.16631   0.40495   0.00000  Uiso   1.00
C22    C     0.20419   0.16702   0.09505   0.00000  Uiso   1.00
C23    C     0.12882   0.16018   0.45131   0.00000  Uiso   1.00
C24    C     0.20452   0.17316   0.04869   0.00000  Uiso   1.00
C25    C     0.16673   0.16623   0.47655   0.00000  Uiso   1.00
C26    C     0.16660   0.16711   0.02345   0.00000  Uiso   1.00
C27    C     0.20486   0.17146   0.45496   0.00000  Uiso   1.00
C28    C     0.12847   0.16187   0.04504   0.00000  Uiso   1.00
C29    C     0.09235   0.14880   0.47370   0.00000  Uiso   1.00
C30    C     0.24098   0.18453   0.02630   0.00000  Uiso   1.00
H31    H     0.06369   0.14287   0.03574   0.00000  Uiso   1.00
H32    H     0.26964   0.19046   0.46426   0.00000  Uiso   1.00
H33    H     0.03760   0.09453   0.25232   0.00000  Uiso   1.00
H34    H     0.29573   0.23881   0.24768   0.00000  Uiso   1.00
H35    H     0.29618   0.09449   0.25160   0.00000  Uiso   1.00
H36    H     0.03716   0.23884   0.24840   0.00000  Uiso   1.00
N37    N     0.16667   0.28573   0.25000   0.00000  Uiso   1.00
N38    N     0.16667   0.04760   0.25000   0.00000  Uiso   1.00
O39    O     0.10559   0.20487   0.25000   0.00000  Uiso   1.00
O40    O     0.22774   0.12846   0.25000   0.00000  Uiso   1.00
O41    O     0.22774   0.20487   0.25000   0.00000  Uiso   1.00
O42    O     0.10559   0.12846   0.24999   0.00000  Uiso   1.00
O43    O     0.16666   0.20489   0.18393   0.00000  Uiso   1.00
O44    O     0.16667   0.12844   0.31607   0.00000  Uiso   1.00
O45    O     0.16667   0.20489   0.31607   0.00000  Uiso   1.00
O46    O     0.16666   0.12844   0.18392   0.00000  Uiso   1.00
Zn47   Zn    0.16667   0.21771   0.25000   0.00000  Uiso   1.00
Zn48   Zn    0.16667   0.11563   0.25000   0.00000  Uiso   1.00
I49    I     0.26366   0.16655   0.37499   0.00000  Uiso   1.00
I50    I     0.06967   0.16679   0.12501   0.00000  Uiso   1.00
I51    I     0.07534   0.19043   0.36760   0.00000  Uiso   1.00
I52    I     0.25799   0.14290   0.13240   0.00000  Uiso   1.00
I53    I     0.04014   0.11378   0.44498   0.00000  Uiso   1.00
I54    I     0.29319   0.21956   0.05502   0.00000  Uiso   1.00
I55    I     0.23467   0.05742   0.32345   0.00000  Uiso   1.00
I56    I     0.09866   0.27592   0.17655   0.00000  Uiso   1.00
I57    I     0.09861   0.05754   0.17661   0.00000  Uiso   1.00
I58    I     0.23473   0.27580   0.32339   0.00000  Uiso   1.00
C59    C     0.42015   0.16669   0.24988   0.00000  Uiso   1.00
C60    C     0.57985   0.16665   0.25012   0.00000  Uiso   1.00
C61    C     0.42551   0.15166   0.01985   0.00000  Uiso   1.00
C62    C     0.57449   0.18167   0.48015   0.00000  Uiso   1.00
C63    C     0.35476   0.12616   0.25119   0.00000  Uiso   1.00
C64    C     0.64524   0.20717   0.24881   0.00000  Uiso   1.00
C65    C     0.64549   0.12614   0.25105   0.00000  Uiso   1.00
C66    C     0.35451   0.20720   0.24895   0.00000  Uiso   1.00
C67    C     0.62412   0.16665   0.25005   0.00000  Uiso   1.00
C68    C     0.37588   0.16669   0.24995   0.00000  Uiso   1.00
C69    C     0.52627   0.02376   0.27833   0.00000  Uiso   1.00
C70    C     0.47373   0.30957   0.22167   0.00000  Uiso   1.00
C71    C     0.47372   0.02380   0.22167   0.00000  Uiso   1.00
C72    C     0.52628   0.30953   0.27833   0.00000  Uiso   1.00
C73    C     0.49917   0.16663   0.16370   0.00000  Uiso   1.00
C74    C     0.50083   0.16671   0.33630   0.00000  Uiso   1.00
C75    C     0.53886   0.16818   0.40848   0.00000  Uiso   1.00
C76    C     0.46114   0.16516   0.09152   0.00000  Uiso   1.00
C77    C     0.50082   0.16675   0.38408   0.00000  Uiso   1.00
C78    C     0.49918   0.16659   0.11592   0.00000  Uiso   1.00
C79    C     0.46248   0.16631   0.40495   0.00000  Uiso   1.00
C80    C     0.53752   0.16702   0.09505   0.00000  Uiso   1.00
C81    C     0.46215   0.16018   0.45131   0.00000  Uiso   1.00
C82    C     0.53785   0.17316   0.04869   0.00000  Uiso   1.00
C83    C     0.50007   0.16623   0.47655   0.00000  Uiso   1.00
C84    C     0.49993   0.16711   0.02345   0.00000  Uiso   1.00
C85    C     0.53819   0.17146   0.45496   0.00000  Uiso   1.00
C86    C     0.46181   0.16187   0.04504   0.00000  Uiso   1.00
C87    C     0.42569   0.14880   0.47370   0.00000  Uiso   1.00
C88    C     0.57431   0.18453   0.02630   0.00000  Uiso   1.00
H89    H     0.39703   0.14287   0.03574   0.00000  Uiso   1.00
H90    H     0.60297   0.19046   0.46426   0.00000  Uiso   1.00
H91    H     0.37094   0.09453   0.25232   0.00000  Uiso   1.00
H92    H     0.62906   0.23881   0.24768   0.00000  Uiso   1.00
H93    H     0.62951   0.09449   0.25160   0.00000  Uiso   1.00
H94    H     0.37049   0.23884   0.24840   0.00000  Uiso   1.00
N95    N     0.50000   0.28573   0.25000   0.00000  Uiso   1.00
N96    N     0.50000   0.04760   0.25000   0.00000  Uiso   1.00
O97    O     0.43892   0.20487   0.25000   0.00000  Uiso   1.00
O98    O     0.56108   0.12846   0.25000   0.00000  Uiso   1.00
O99    O     0.56108   0.20487   0.25000   0.00000  Uiso   1.00
O100   O     0.43892   0.12846   0.24999   0.00000  Uiso   1.00
O101   O     0.49999   0.20489   0.18393   0.00000  Uiso   1.00
O102   O     0.50001   0.12844   0.31607   0.00000  Uiso   1.00
O103   O     0.50001   0.20489   0.31607   0.00000  Uiso   1.00
O104   O     0.49999   0.12844   0.18392   0.00000  Uiso   1.00
Zn105  Zn    0.50000   0.21771   0.25000   0.00000  Uiso   1.00
Zn106  Zn    0.50000   0.11563   0.25000   0.00000  Uiso   1.00
I107   I     0.59700   0.16655   0.37499   0.00000  Uiso   1.00
I108   I     0.40300   0.16679   0.12501   0.00000  Uiso   1.00
I109   I     0.40868   0.19043   0.36760   0.00000  Uiso   1.00
I110   I     0.59132   0.14290   0.13240   0.00000  Uiso   1.00
I111   I     0.37348   0.11378   0.44498   0.00000  Uiso   1.00
I112   I     0.62652   0.21956   0.05502   0.00000  Uiso   1.00
I113   I     0.56801   0.05742   0.32345   0.00000  Uiso   1.00
I114   I     0.43199   0.27592   0.17655   0.00000  Uiso   1.00
I115   I     0.43194   0.05754   0.17661   0.00000  Uiso   1.00
I116   I     0.56806   0.27580   0.32339   0.00000  Uiso   1.00
C117   C     0.75348   0.16669   0.24988   0.00000  Uiso   1.00
C118   C     0.91318   0.16665   0.25012   0.00000  Uiso   1.00
C119   C     0.75884   0.15166   0.01985   0.00000  Uiso   1.00
C120   C     0.90782   0.18167   0.48015   0.00000  Uiso   1.00
C121   C     0.68810   0.12616   0.25119   0.00000  Uiso   1.00
C122   C     0.97857   0.20717   0.24881   0.00000  Uiso   1.00
C123   C     0.97882   0.12614   0.25105   0.00000  Uiso   1.00
C124   C     0.68784   0.20720   0.24895   0.00000  Uiso   1.00
C125   C     0.95745   0.16665   0.25005   0.00000  Uiso   1.00
C126   C     0.70922   0.16669   0.24995   0.00000  Uiso   1.00
C127   C     0.85961   0.02376   0.27833   0.00000  Uiso   1.00
C128   C     0.80706   0.30957   0.22167   0.00000  Uiso   1.00
C129   C     0.80706   0.02380   0.22167   0.00000  Uiso   1.00
C130   C     0.85961   0.30953   0.27833   0.00000  Uiso   1.00
C131   C     0.83250   0.16663   0.16370   0.00000  Uiso   1.00
C132   C     0.83416   0.16671   0.33630   0.00000  Uiso   1.00
C133   C     0.87219   0.16818   0.40848   0.00000  Uiso   1.00
C134   C     0.79447   0.16516   0.09152   0.00000  Uiso   1.00
C135   C     0.83416   0.16675   0.38408   0.00000  Uiso   1.00
C136   C     0.83251   0.16659   0.11592   0.00000  Uiso   1.00
C137   C     0.79581   0.16631   0.40495   0.00000  Uiso   1.00
C138   C     0.87085   0.16702   0.09505   0.00000  Uiso   1.00
C139   C     0.79548   0.16018   0.45131   0.00000  Uiso   1.00
C140   C     0.87118   0.17316   0.04869   0.00000  Uiso   1.00
C141   C     0.83340   0.16623   0.47655   0.00000  Uiso   1.00
C142   C     0.83327   0.16711   0.02345   0.00000  Uiso   1.00
C143   C     0.87153   0.17146   0.45496   0.00000  Uiso   1.00
C144   C     0.79514   0.16187   0.04504   0.00000  Uiso   1.00
C145   C     0.75902   0.14880   0.47370   0.00000  Uiso   1.00
C146   C     0.90765   0.18453   0.02630   0.00000  Uiso   1.00
H147   H     0.73036   0.14287   0.03574   0.00000  Uiso   1.00
H148   H     0.93631   0.19046   0.46426   0.00000  Uiso   1.00
H149   H     0.70427   0.09453   0.25232   0.00000  Uiso   1.00
H150   H     0.96240   0.23881   0.24768   0.00000  Uiso   1.00
H151   H     0.96285   0.09449   0.25160   0.00000  Uiso   1.00
H152   H     0.70382   0.23884   0.24840   0.00000  Uiso   1.00
N153   N     0.83333   0.28573   0.25000   0.00000  Uiso   1.00
N154   N     0.83333   0.04760   0.25000   0.00000  Uiso   1.00
O155   O     0.77226   0.20487   0.25000   0.00000  Uiso   1.00
O156   O     0.89441   0.12846   0.25000   0.00000  Uiso   1.00
O157   O     0.89441   0.20487   0.25000   0.00000  Uiso   1.00
O158   O     0.77226   0.12846   0.24999   0.00000  Uiso   1.00
O159   O     0.83333   0.20489   0.18393   0.00000  Uiso   1.00
O160   O     0.83334   0.12844   0.31607   0.00000  Uiso   1.00
O161   O     0.83334   0.20489   0.31607   0.00000  Uiso   1.00
O162   O     0.83333   0.12844   0.18392   0.00000  Uiso   1.00
Zn163  Zn    0.83333   0.21771   0.25000   0.00000  Uiso   1.00
Zn164  Zn    0.83333   0.11563   0.25000   0.00000  Uiso   1.00
I165   I     0.93033   0.16655   0.37499   0.00000  Uiso   1.00
I166   I     0.73634   0.16679   0.12501   0.00000  Uiso   1.00
I167   I     0.74201   0.19043   0.36760   0.00000  Uiso   1.00
I168   I     0.92466   0.14290   0.13240   0.00000  Uiso   1.00
I169   I     0.70681   0.11378   0.44498   0.00000  Uiso   1.00
I170   I     0.95986   0.21956   0.05502   0.00000  Uiso   1.00
I171   I     0.90134   0.05742   0.32345   0.00000  Uiso   1.00
I172   I     0.76533   0.27592   0.17655   0.00000  Uiso   1.00
I173   I     0.76527   0.05754   0.17661   0.00000  Uiso   1.00
I174   I     0.90139   0.27580   0.32339   0.00000  Uiso   1.00
C175   C     0.08682   0.50002   0.24988   0.00000  Uiso   1.00
C176   C     0.24652   0.49998   0.25012   0.00000  Uiso   1.00
C177   C     0.09218   0.48499   0.01985   0.00000  Uiso   1.00
C178   C     0.24116   0.51501   0.48015   0.00000  Uiso   1.00
C179   C     0.02143   0.45949   0.25119   0.00000  Uiso   1.00
C180   C     0.31191   0.54051   0.24881   0.00000  Uiso   1.00
C181   C     0.31216   0.45947   0.25105   0.00000  Uiso   1.00
C182   C     0.02118   0.54053   0.24895   0.00000  Uiso   1.00
C183   C     0.29078   0.49998   0.25005   0.00000  Uiso   1.00
C184   C     0.04255   0.50002   0.24995   0.00000  Uiso   1.00
C185   C     0.19294   0.35710   0.27833   0.00000  Uiso   1.00
C186   C     0.14039   0.64290   0.22167   0.00000  Uiso   1.00
C187   C     0.14039   0.35713   0.22167   0.00000  Uiso   1.00
C188   C     0.19294   0.64287   0.27833   0.00000  Uiso   1.00
C189   C     0.16584   0.49996   0.16370   0.00000  Uiso   1.00
C190   C     0.16750   0.50004   0.33630   0.00000  Uiso   1.00
C191   C     0.20553   0.50151   0.40848   0.00000  Uiso   1.00
C192   C     0.12781   0.49849   0.09152   0.00000  Uiso   1.00
C193   C     0.16749   0.50008   0.38408   0.00000  Uiso   1.00
C194   C     0.16584   0.49992   0.11592   0.00000  Uiso   1.00
C195   C     0.12915   0.49964   0.40495   0.00000  Uiso   1.00
C196   C     0.20419   0.50036   0.09505   0.00000  Uiso   1.00
C197   C     0.12882   0.49351   0.45131   0.00000  Uiso   1.00
C198   C     0.20452   0.50649   0.04869   0.00000  Uiso   1.00
C199   C     0.16673   0.49956   0.47655   0.00000  Uiso   1.00
C200   C     0.16660   0.50044   0.02345   0.00000  Uiso   1.00
C201   C     0.20486   0.50479   0.45496   0.00000  Uiso   1.00
C202   C     0.12847   0.49521   0.04504   0.00000  Uiso   1.00
C203   C     0.09235   0.48213   0.47370   0.00000  Uiso   1.00
C204   C     0.24098   0.51787   0.02630   0.00000  Uiso   1.00
H205   H     0.06369   0.47621   0.03574   0.00000  Uiso   1.00
H206   H     0.26964   0.52379   0.46426   0.00000  Uiso   1.00
H207   H     0.03760   0.42786   0.25232   0.00000  Uiso   1.00
H208   H     0.29573   0.57214   0.24768   0.00000  Uiso   1.00
H209   H     0.29618   0.42782   0.25160   0.00000  Uiso   1.00
H210   H     0.03716   0.57218   0.24840   0.00000  Uiso   1.00
N211   N     0.16667   0.61907   0.25000   0.00000  Uiso   1.00
N212   N     0.16667   0.38093   0.25000   0.00000  Uiso   1.00
O213   O     0.10559   0.53821   0.25000   0.00000  Uiso   1.00
O214   O     0.22774   0.46179   0.25000   0.00000  Uiso   1.00
O215   O     0.22774   0.53821   0.25000   0.00000  Uiso   1.00
O216   O     0.10559   0.46179   0.24999   0.00000  Uiso   1.00
O217   O     0.16666   0.53823   0.18393   0.00000  Uiso   1.00
O218   O     0.16667   0.46177   0.31607   0.00000  Uiso   1.00
O219   O     0.16667   0.53823   0.31607   0.00000  Uiso   1.00
O220   O     0.16666   0.46177   0.18392   0.00000  Uiso   1.00
Zn221  Zn    0.16667   0.55104   0.25000   0.00000  Uiso   1.00
Zn222  Zn    0.16667   0.44896   0.25000   0.00000  Uiso   1.00
I223   I     0.26366   0.49988   0.37499   0.00000  Uiso   1.00
I224   I     0.06967   0.50012   0.12501   0.00000  Uiso   1.00
I225   I     0.07534   0.52377   0.36760   0.00000  Uiso   1.00
I226   I     0.25799   0.47623   0.13240   0.00000  Uiso   1.00
I227   I     0.04014   0.44711   0.44498   0.00000  Uiso   1.00
I228   I     0.29319   0.55289   0.05502   0.00000  Uiso   1.00
I229   I     0.23467   0.39075   0.32345   0.00000  Uiso   1.00
I230   I     0.09866   0.60925   0.17655   0.00000  Uiso   1.00
I231   I     0.09861   0.39087   0.17661   0.00000  Uiso   1.00
I232   I     0.23473   0.60913   0.32339   0.00000  Uiso   1.00
C233   C     0.42015   0.50002   0.24988   0.00000  Uiso   1.00
C234   C     0.57985   0.49998   0.25012   0.00000  Uiso   1.00
C235   C     0.42551   0.48499   0.01985   0.00000  Uiso   1.00
C236   C     0.57449   0.51501   0.48015   0.00000  Uiso   1.00
C237   C     0.35476   0.45949   0.25119   0.00000  Uiso   1.00
C238   C     0.64524   0.54051   0.24881   0.00000  Uiso   1.00
C239   C     0.64549   0.45947   0.25105   0.00000  Uiso   1.00
C240   C     0.35451   0.54053   0.24895   0.00000  Uiso   1.00
C241   C     0.62412   0.49998   0.25005   0.00000  Uiso   1.00
C242   C     0.37588   0.50002   0.24995   0.00000  Uiso   1.00
C243   C     0.52627   0.35710   0.27833   0.00000  Uiso   1.00
C244   C     0.47373   0.64290   0.22167   0.00000  Uiso   1.00
C245   C     0.47372   0.35713   0.22167   0.00000  Uiso   1.00
C246   C     0.52628   0.64287   0.27833   0.00000  Uiso   1.00
C247   C     0.49917   0.49996   0.16370   0.00000  Uiso   1.00
C248   C     0.50083   0.50004   0.33630   0.00000  Uiso   1.00
C249   C     0.53886   0.50151   0.40848   0.00000  Uiso   1.00
C250   C     0.46114   0.49849   0.09152   0.00000  Uiso   1.00
C251   C     0.50082   0.50008   0.38408   0.00000  Uiso   1.00
C252   C     0.49918   0.49992   0.11592   0.00000  Uiso   1.00
C253   C     0.46248   0.49964   0.40495   0.00000  Uiso   1.00
C254   C     0.53752   0.50036   0.09505   0.00000  Uiso   1.00
C255   C     0.46215   0.49351   0.45131   0.00000  Uiso   1.00
C256   C     0.53785   0.50649   0.04869   0.00000  Uiso   1.00
C257   C     0.50007   0.49956   0.47655   0.00000  Uiso   1.00
C258   C     0.49993   0.50044   0.02345   0.00000  Uiso   1.00
C259   C     0.53819   0.50479   0.45496   0.00000  Uiso   1.00
C260   C     0.46181   0.49521   0.04504   0.00000  Uiso   1.00
C261   C     0.42569   0.48213   0.47370   0.00000  Uiso   1.00
C262   C     0.57431   0.51787   0.02630   0.00000  Uiso   1.00
H263   H     0.39703   0.47621   0.03574   0.00000  Uiso   1.00
H264   H     0.60297   0.52379   0.46426   0.00000  Uiso   1.00
H265   H     0.37094   0.42786   0.25232   0.00000  Uiso   1.00
H266   H     0.62906   0.57214   0.24768   0.00000  Uiso   1.00
H267   H     0.62951   0.42782   0.25160   0.00000  Uiso   1.00
H268   H     0.37049   0.57218   0.24840   0.00000  Uiso   1.00
N269   N     0.50000   0.61907   0.25000   0.00000  Uiso   1.00
N270   N     0.50000   0.38093   0.25000   0.00000  Uiso   1.00
O271   O     0.43892   0.53821   0.25000   0.00000  Uiso   1.00
O272   O     0.56108   0.46179   0.25000   0.00000  Uiso   1.00
O273   O     0.56108   0.53821   0.25000   0.00000  Uiso   1.00
O274   O     0.43892   0.46179   0.24999   0.00000  Uiso   1.00
O275   O     0.49999   0.53823   0.18393   0.00000  Uiso   1.00
O276   O     0.50001   0.46177   0.31607   0.00000  Uiso   1.00
O277   O     0.50001   0.53823   0.31607   0.00000  Uiso   1.00
O278   O     0.49999   0.46177   0.18392   0.00000  Uiso   1.00
Zn279  Zn    0.50000   0.55104   0.25000   0.00000  Uiso   1.00
Zn280  Zn    0.50000   0.44896   0.25000   0.00000  Uiso   1.00
I281   I     0.59700   0.49988   0.37499   0.00000  Uiso   1.00
I282   I     0.40300   0.50012   0.12501   0.00000  Uiso   1.00
I283   I     0.40868   0.52377   0.36760   0.00000  Uiso   1.00
I284   I     0.59132   0.47623   0.13240   0.00000  Uiso   1.00
I285   I     0.37348   0.44711   0.44498   0.00000  Uiso   1.00
I286   I     0.62652   0.55289   0.05502   0.00000  Uiso   1.00
I287   I     0.56801   0.39075   0.32345   0.00000  Uiso   1.00
I288   I     0.43199   0.60925   0.17655   0.00000  Uiso   1.00
I289   I     0.43194   0.39087   0.17661   0.00000  Uiso   1.00
I290   I     0.56806   0.60913   0.32339   0.00000  Uiso   1.00
C291   C     0.75348   0.50002   0.24988   0.00000  Uiso   1.00
C292   C     0.91318   0.49998   0.25012   0.00000  Uiso   1.00
C293   C     0.75884   0.48499   0.01985   0.00000  Uiso   1.00
C294   C     0.90782   0.51501   0.48015   0.00000  Uiso   1.00
C295   C     0.68810   0.45949   0.25119   0.00000  Uiso   1.00
C296   C     0.97857   0.54051   0.24881   0.00000  Uiso   1.00
C297   C     0.97882   0.45947   0.25105   0.00000  Uiso   1.00
C298   C     0.68784   0.54053   0.24895   0.00000  Uiso   1.00
C299   C     0.95745   0.49998   0.25005   0.00000  Uiso   1.00
C300   C     0.70922   0.50002   0.24995   0.00000  Uiso   1.00
C301   C     0.85961   0.35710   0.27833   0.00000  Uiso   1.00
C302   C     0.80706   0.64290   0.22167   0.00000  Uiso   1.00
C303   C     0.80706   0.35713   0.22167   0.00000  Uiso   1.00
C304   C     0.85961   0.64287   0.27833   0.00000  Uiso   1.00
C305   C     0.83250   0.49996   0.16370   0.00000  Uiso   1.00
C306   C     0.83416   0.50004   0.33630   0.00000  Uiso   1.00
C307   C     0.87219   0.50151   0.40848   0.00000  Uiso   1.00
C308   C     0.79447   0.49849   0.09152   0.00000  Uiso   1.00
C309   C     0.83416   0.50008   0.38408   0.00000  Uiso   1.00
C310   C     0.83251   0.49992   0.11592   0.00000  Uiso   1.00
C311   C     0.79581   0.49964   0.40495   0.00000  Uiso   1.00
C312   C     0.87085   0.50036   0.09505   0.00000  Uiso   1.00
C313   C     0.79548   0.49351   0.45131   0.00000  Uiso   1.00
C314   C     0.87118   0.50649   0.04869   0.00000  Uiso   1.00
C315   C     0.83340   0.49956   0.47655   0.00000  Uiso   1.00
C316   C     0.83327   0.50044   0.02345   0.00000  Uiso   1.00
C317   C     0.87153   0.50479   0.45496   0.00000  Uiso   1.00
C318   C     0.79514   0.49521   0.04504   0.00000  Uiso   1.00
C319   C     0.75902   0.48213   0.47370   0.00000  Uiso   1.00
C320   C     0.90765   0.51787   0.02630   0.00000  Uiso   1.00
H321   H     0.73036   0.47621   0.03574   0.00000  Uiso   1.00
H322   H     0.93631   0.52379   0.46426   0.00000  Uiso   1.00
H323   H     0.70427   0.42786   0.25232   0.00000  Uiso   1.00
H324   H     0.96240   0.57214   0.24768   0.00000  Uiso   1.00
H325   H     0.96285   0.42782   0.25160   0.00000  Uiso   1.00
H326   H     0.70382   0.57218   0.24840   0.00000  Uiso   1.00
N327   N     0.83333   0.61907   0.25000   0.00000  Uiso   1.00
N328   N     0.83333   0.38093   0.25000   0.00000  Uiso   1.00
O329   O     0.77226   0.53821   0.25000   0.00000  Uiso   1.00
O330   O     0.89441   0.46179   0.25000   0.00000  Uiso   1.00
O331   O     0.89441   0.53821   0.25000   0.00000  Uiso   1.00
O332   O     0.77226   0.46179   0.24999   0.00000  Uiso   1.00
O333   O     0.83333   0.53823   0.18393   0.00000  Uiso   1.00
O334   O     0.83334   0.46177   0.31607   0.00000  Uiso   1.00
O335   O     0.83334   0.53823   0.31607   0.00000  Uiso   1.00
O336   O     0.83333   0.46177   0.18392   0.00000  Uiso   1.00
Zn337  Zn    0.83333   0.55104   0.25000   0.00000  Uiso   1.00
Zn338  Zn    0.83333   0.44896   0.25000   0.00000  Uiso   1.00
I339   I     0.93033   0.49988   0.37499   0.00000  Uiso   1.00
I340   I     0.73634   0.50012   0.12501   0.00000  Uiso   1.00
I341   I     0.74201   0.52377   0.36760   0.00000  Uiso   1.00
I342   I     0.92466   0.47623   0.13240   0.00000  Uiso   1.00
I343   I     0.70681   0.44711   0.44498   0.00000  Uiso   1.00
I344   I     0.95986   0.55289   0.05502   0.00000  Uiso   1.00
I345   I     0.90134   0.39075   0.32345   0.00000  Uiso   1.00
I346   I     0.76533   0.60925   0.17655   0.00000  Uiso   1.00
I347   I     0.76527   0.39087   0.17661   0.00000  Uiso   1.00
I348   I     0.90139   0.60913   0.32339   0.00000  Uiso   1.00
C349   C     0.08682   0.83335   0.24988   0.00000  Uiso   1.00
C350   C     0.24652   0.83331   0.25012   0.00000  Uiso   1.00
C351   C     0.09218   0.81833   0.01985   0.00000  Uiso   1.00
C352   C     0.24116   0.84834   0.48015   0.00000  Uiso   1.00
C353   C     0.02143   0.79283   0.25119   0.00000  Uiso   1.00
C354   C     0.31191   0.87384   0.24881   0.00000  Uiso   1.00
C355   C     0.31216   0.79280   0.25105   0.00000  Uiso   1.00
C356   C     0.02118   0.87386   0.24895   0.00000  Uiso   1.00
C357   C     0.29078   0.83331   0.25005   0.00000  Uiso   1.00
C358   C     0.04255   0.83335   0.24995   0.00000  Uiso   1.00
C359   C     0.19294   0.69043   0.27833   0.00000  Uiso   1.00
C360   C     0.14039   0.97624   0.22167   0.00000  Uiso   1.00
C361   C     0.14039   0.69047   0.22167   0.00000  Uiso   1.00
C362   C     0.19294   0.97620   0.27833   0.00000  Uiso   1.00
C363   C     0.16584   0.83329   0.16370   0.00000  Uiso   1.00
C364   C     0.16750   0.83337   0.33630   0.00000  Uiso   1.00
C365   C     0.20553   0.83484   0.40848   0.00000  Uiso   1.00
C366   C     0.12781   0.83182   0.09152   0.00000  Uiso   1.00
C367   C     0.16749   0.83341   0.38408   0.00000  Uiso   1.00
C368   C     0.16584   0.83325   0.11592   0.00000  Uiso   1.00
C369   C     0.12915   0.83298   0.40495   0.00000  Uiso   1.00
C370   C     0.20419   0.83369   0.09505   0.00000  Uiso   1.00
C371   C     0.12882   0.82684   0.45131   0.00000  Uiso   1.00
C372   C     0.20452   0.83982   0.04869   0.00000  Uiso   1.00
C373   C     0.16673   0.83289   0.47655   0.00000  Uiso   1.00
C374   C     0.16660   0.83378   0.02345   0.00000  Uiso   1.00
C375   C     0.20486   0.83813   0.45496   0.00000  Uiso   1.00
C376   C     0.12847   0.82854   0.04504   0.00000  Uiso   1.00
C377   C     0.09235   0.81547   0.47370   0.00000  Uiso   1.00
C378   C     0.24098   0.85120   0.02630   0.00000  Uiso   1.00
H379   H     0.06369   0.80954   0.03574   0.00000  Uiso   1.00
H380   H     0.26964   0.85713   0.46426   0.00000  Uiso   1.00
H381   H     0.03760   0.76119   0.25232   0.00000  Uiso   1.00
H382   H     0.29573   0.90547   0.24768   0.00000  Uiso   1.00
H383   H     0.29618   0.76116   0.25160   0.00000  Uiso   1.00
H384   H     0.03716   0.90551   0.24840   0.00000  Uiso   1.00
N385   N     0.16667   0.95240   0.25000   0.00000  Uiso   1.00
N386   N     0.16667   0.71427   0.25000   0.00000  Uiso   1.00
O387   O     0.10559   0.87154   0.25000   0.00000  Uiso   1.00
O388   O     0.22774   0.79513   0.25000   0.00000  Uiso   1.00
O389   O     0.22774   0.87154   0.25000   0.00000  Uiso   1.00
O390   O     0.10559   0.79513   0.24999   0.00000  Uiso   1.00
O391   O     0.16666   0.87156   0.18393   0.00000  Uiso   1.00
O392   O     0.16667   0.79511   0.31607   0.00000  Uiso   1.00
O393   O     0.16667   0.87156   0.31607   0.00000  Uiso   1.00
O394   O     0.16666   0.79511   0.18392   0.00000  Uiso   1.00
Zn395  Zn    0.16667   0.88437   0.25000   0.00000  Uiso   1.00
Zn396  Zn    0.16667   0.78229   0.25000   0.00000  Uiso   1.00
I397   I     0.26366   0.83321   0.37499   0.00000  Uiso   1.00
I398   I     0.06967   0.83345   0.12501   0.00000  Uiso   1.00
I399   I     0.07534   0.85710   0.36760   0.00000  Uiso   1.00
I400   I     0.25799   0.80956   0.13240   0.00000  Uiso   1.00
I401   I     0.04014   0.78045   0.44498   0.00000  Uiso   1.00
I402   I     0.29319   0.88622   0.05502   0.00000  Uiso   1.00
I403   I     0.23467   0.72408   0.32345   0.00000  Uiso   1.00
I404   I     0.09866   0.94258   0.17655   0.00000  Uiso   1.00
I405   I     0.09861   0.72420   0.17661   0.00000  Uiso   1.00
I406   I     0.23473   0.94246   0.32339   0.00000  Uiso   1.00
C407   C     0.42015   0.83335   0.24988   0.00000  Uiso   1.00
C408   C     0.57985   0.83331   0.25012   0.00000  Uiso   1.00
C409   C     0.42551   0.81833   0.01985   0.00000  Uiso   1.00
C410   C     0.57449   0.84834   0.48015   0.00000  Uiso   1.00
C411   C     0.35476   0.79283   0.25119   0.00000  Uiso   1.00
C412   C     0.64524   0.87384   0.24881   0.00000  Uiso   1.00
C413   C     0.64549   0.79280   0.25105   0.00000  Uiso   1.00
C414   C     0.35451   0.87386   0.24895   0.00000  Uiso   1.00
C415   C     0.62412   0.83331   0.25005   0.00000  Uiso   1.00
C416   C     0.37588   0.83335   0.24995   0.00000  Uiso   1.00
C417   C     0.52627   0.69043   0.27833   0.00000  Uiso   1.00
C418   C     0.47373   0.97624   0.22167   0.00000  Uiso   1.00
C419   C     0.47372   0.69047   0.22167   0.00000  Uiso   1.00
C420   C     0.52628   0.97620   0.27833   0.00000  Uiso   1.00
C421   C     0.49917   0.83329   0.16370   0.00000  Uiso   1.00
C422   C     0.50083   0.83337   0.33630   0.00000  Uiso   1.00
C423   C     0.53886   0.83484   0.40848   0.00000  Uiso   1.00
C424   C     0.46114   0.83182   0.09152   0.00000  Uiso   1.00
C425   C     0.50082   0.83341   0.38408   0.00000  Uiso   1.00
C426   C     0.49918   0.83325   0.11592   0.00000  Uiso   1.00
C427   C     0.46248   0.83298   0.40495   0.00000  Uiso   1.00
C428   C     0.53752   0.83369   0.09505   0.00000  Uiso   1.00
C429   C     0.46215   0.82684   0.45131   0.00000  Uiso   1.00
C430   C     0.53785   0.83982   0.04869   0.00000  Uiso   1.00
C431   C     0.50007   0.83289   0.47655   0.00000  Uiso   1.00
C432   C     0.49993   0.83378   0.02345   0.00000  Uiso   1.00
C433   C     0.53819   0.83813   0.45496   0.00000  Uiso   1.00
C434   C     0.46181   0.82854   0.04504   0.00000  Uiso   1.00
C435   C     0.42569   0.81547   0.47370   0.00000  Uiso   1.00
C436   C     0.57431   0.85120   0.02630   0.00000  Uiso   1.00
H437   H     0.39703   0.80954   0.03574   0.00000  Uiso   1.00
H438   H     0.60297   0.85713   0.46426   0.00000  Uiso   1.00
H439   H     0.37094   0.76119   0.25232   0.00000  Uiso   1.00
H440   H     0.62906   0.90547   0.24768   0.00000  Uiso   1.00
H441   H     0.62951   0.76116   0.25160   0.00000  Uiso   1.00
H442   H     0.37049   0.90551   0.24840   0.00000  Uiso   1.00
N443   N     0.50000   0.95240   0.25000   0.00000  Uiso   1.00
N444   N     0.50000   0.71427   0.25000   0.00000  Uiso   1.00
O445   O     0.43892   0.87154   0.25000   0.00000  Uiso   1.00
O446   O     0.56108   0.79513   0.25000   0.00000  Uiso   1.00
O447   O     0.56108   0.87154   0.25000   0.00000  Uiso   1.00
O448   O     0.43892   0.79513   0.24999   0.00000  Uiso   1.00
O449   O     0.49999   0.87156   0.18393   0.00000  Uiso   1.00
O450   O     0.50001   0.79511   0.31607   0.00000  Uiso   1.00
O451   O     0.50001   0.87156   0.31607   0.00000  Uiso   1.00
O452   O     0.49999   0.79511   0.18392   0.00000  Uiso   1.00
Zn453  Zn    0.50000   0.88437   0.25000   0.00000  Uiso   1.00
Zn454  Zn    0.50000   0.78229   0.25000   0.00000  Uiso   1.00
I455   I     0.59700   0.83321   0.37499   0.00000  Uiso   1.00
I456   I     0.40300   0.83345   0.12501   0.00000  Uiso   1.00
I457   I     0.40868   0.85710   0.36760   0.00000  Uiso   1.00
I458   I     0.59132   0.80956   0.13240   0.00000  Uiso   1.00
I459   I     0.37348   0.78045   0.44498   0.00000  Uiso   1.00
I460   I     0.62652   0.88622   0.05502   0.00000  Uiso   1.00
I461   I     0.56801   0.72408   0.32345   0.00000  Uiso   1.00
I462   I     0.43199   0.94258   0.17655   0.00000  Uiso   1.00
I463   I     0.43194   0.72420   0.17661   0.00000  Uiso   1.00
I464   I     0.56806   0.94246   0.32339   0.00000  Uiso   1.00
C465   C     0.75348   0.83335   0.24988   0.00000  Uiso   1.00
C466   C     0.91318   0.83331   0.25012   0.00000  Uiso   1.00
C467   C     0.75884   0.81833   0.01985   0.00000  Uiso   1.00
C468   C     0.90782   0.84834   0.48015   0.00000  Uiso   1.00
C469   C     0.68810   0.79283   0.25119   0.00000  Uiso   1.00
C470   C     0.97857   0.87384   0.24881   0.00000  Uiso   1.00
C471   C     0.97882   0.79280   0.25105   0.00000  Uiso   1.00
C472   C     0.68784   0.87386   0.24895   0.00000  Uiso   1.00
C473   C     0.95745   0.83331   0.25005   0.00000  Uiso   1.00
C474   C     0.70922   0.83335   0.24995   0.00000  Uiso   1.00
C475   C     0.85961   0.69043   0.27833   0.00000  Uiso   1.00
C476   C     0.80706   0.97624   0.22167   0.00000  Uiso   1.00
C477   C     0.80706   0.69047   0.22167   0.00000  Uiso   1.00
C478   C     0.85961   0.97620   0.27833   0.00000  Uiso   1.00
C479   C     0.83250   0.83329   0.16370   0.00000  Uiso   1.00
C480   C     0.83416   0.83337   0.33630   0.00000  Uiso   1.00
C481   C     0.87219   0.83484   0.40848   0.00000  Uiso   1.00
C482   C     0.79447   0.83182   0.09152   0.00000  Uiso   1.00
C483   C     0.83416   0.83341   0.38408   0.00000  Uiso   1.00
C484   C     0.83251   0.83325   0.11592   0.00000  Uiso   1.00
C485   C     0.79581   0.83298   0.40495   0.00000  Uiso   1.00
C486   C     0.87085   0.83369   0.09505   0.00000  Uiso   1.00
C487   C     0.79548   0.82684   0.45131   0.00000  Uiso   1.00
C488   C     0.87118   0.83982   0.04869   0.00000  Uiso   1.00
C489   C     0.83340   0.83289   0.47655   0.00000  Uiso   1.00
C490   C     0.83327   0.83378   0.02345   0.00000  Uiso   1.00
C491   C     0.87153   0.83813   0.45496   0.00000  Uiso   1.00
C492   C     0.79514   0.82854   0.04504   0.00000  Uiso   1.00
C493   C     0.75902   0.81547   0.47370   0.00000  Uiso   1.00
C494   C     0.90765   0.85120   0.02630   0.00000  Uiso   1.00
H495   H     0.73036   0.80954   0.03574   0.00000  Uiso   1.00
H496   H     0.93631   0.85713   0.46426   0.00000  Uiso   1.00
H497   H     0.70427   0.76119   0.25232   0.00000  Uiso   1.00
H498   H     0.96240   0.90547   0.24768   0.00000  Uiso   1.00
H499   H     0.96285   0.76116   0.25160   0.00000  Uiso   1.00
H500   H     0.70382   0.90551   0.24840   0.00000  Uiso   1.00
N501   N     0.83333   0.95240   0.25000   0.00000  Uiso   1.00
N502   N     0.83333   0.71427   0.25000   0.00000  Uiso   1.00
O503   O     0.77226   0.87154   0.25000   0.00000  Uiso   1.00
O504   O     0.89441   0.79513   0.25000   0.00000  Uiso   1.00
O505   O     0.89441   0.87154   0.25000   0.00000  Uiso   1.00
O506   O     0.77226   0.79513   0.24999   0.00000  Uiso   1.00
O507   O     0.83333   0.87156   0.18393   0.00000  Uiso   1.00
O508   O     0.83334   0.79511   0.31607   0.00000  Uiso   1.00
O509   O     0.83334   0.87156   0.31607   0.00000  Uiso   1.00
O510   O     0.83333   0.79511   0.18392   0.00000  Uiso   1.00
Zn511  Zn    0.83333   0.88437   0.25000   0.00000  Uiso   1.00
Zn512  Zn    0.83333   0.78229   0.25000   0.00000  Uiso   1.00
I513   I     0.93033   0.83321   0.37499   0.00000  Uiso   1.00
I514   I     0.73634   0.83345   0.12501   0.00000  Uiso   1.00
I515   I     0.74201   0.85710   0.36760   0.00000  Uiso   1.00
I516   I     0.92466   0.80956   0.13240   0.00000  Uiso   1.00
I517   I     0.70681   0.78045   0.44498   0.00000  Uiso   1.00
I518   I     0.95986   0.88622   0.05502   0.00000  Uiso   1.00
I519   I     0.90134   0.72408   0.32345   0.00000  Uiso   1.00
I520   I     0.76533   0.94258   0.17655   0.00000  Uiso   1.00
I521   I     0.76527   0.72420   0.17661   0.00000  Uiso   1.00
I522   I     0.90139   0.94246   0.32339   0.00000  Uiso   1.00
C523   C     0.08682   0.16669   0.74988   0.00000  Uiso   1.00
C524   C     0.24652   0.16665   0.75012   0.00000  Uiso   1.00
C525   C     0.09218   0.15166   0.51985   0.00000  Uiso   1.00
C526   C     0.24116   0.18167   0.98015   0.00000  Uiso   1.00
C527   C     0.02143   0.12616   0.75119   0.00000  Uiso   1.00
C528   C     0.31191   0.20717   0.74881   0.00000  Uiso   1.00
C529   C     0.31216   0.12614   0.75105   0.00000  Uiso   1.00
C530   C     0.02118   0.20720   0.74895   0.00000  Uiso   1.00
C531   C     0.29078   0.16665   0.75005   0.00000  Uiso   1.00
C532   C     0.04255   0.16669   0.74995   0.00000  Uiso   1.00
C533   C     0.19294   0.02376   0.77833   0.00000  Uiso   1.00
C534   C     0.14039   0.30957   0.72167   0.00000  Uiso   1.00
C535   C     0.14039   0.02380   0.72167   0.00000  Uiso   1.00
C536   C     0.19294   0.30953   0.77833   0.00000  Uiso   1.00
C537   C     0.16584   0.16663   0.66370   0.00000  Uiso   1.00
C538   C     0.16750   0.16671   0.83630   0.00000  Uiso   1.00
C539   C     0.20553   0.16818   0.90848   0.00000  Uiso   1.00
C540   C     0.12781   0.16516   0.59152   0.00000  Uiso   1.00
C541   C     0.16749   0.16675   0.88408   0.00000  Uiso   1.00
C542   C     0.16584   0.16659   0.61592   0.00000  Uiso   1.00
C543   C     0.12915   0.16631   0.90495   0.00000  Uiso   1.00
C544   C     0.20419   0.16702   0.59505   0.00000  Uiso   1.00
C545   C     0.12882   0.16018   0.95131   0.00000  Uiso   1.00
C546   C     0.20452   0.17316   0.54869   0.00000  Uiso   1.00
C547   C     0.16673   0.16623   0.97655   0.00000  Uiso   1.00
C548   C     0.16660   0.16711   0.52345   0.00000  Uiso   1.00
C549   C     0.20486   0.17146   0.95496   0.00000  Uiso   1.00
C550   C     0.12847   0.16187   0.54504   0.00000  Uiso   1.00
C551   C     0.09235   0.14880   0.97370   0.00000  Uiso   1.00
C552   C     0.24098   0.18453   0.52630   0.00000  Uiso   1.00
H553   H     0.06369   0.14287   0.53574   0.00000  Uiso   1.00
H554   H     0.26964   0.19046   0.96426   0.00000  Uiso   1.00
H555   H     0.03760   0.09453   0.75232   0.00000  Uiso   1.00
H556   H     0.29573   0.23881   0.74768   0.00000  Uiso   1.00
H557   H     0.29618   0.09449   0.75160   0.00000  Uiso   1.00
H558   H     0.03716   0.23884   0.74840   0.00000  Uiso   1.00
N559   N     0.16667   0.28573   0.75000   0.00000  Uiso   1.00
N560   N     0.16667   0.04760   0.75000   0.00000  Uiso   1.00
O561   O     0.10559   0.20487   0.75000   0.00000  Uiso   1.00
O562   O     0.22774   0.12846   0.75000   0.00000  Uiso   1.00
O563   O     0.22774   0.20487   0.75000   0.00000  Uiso   1.00
O564   O     0.10559   0.12846   0.74999   0.00000  Uiso   1.00
O565   O     0.16666   0.20489   0.68393   0.00000  Uiso   1.00
O566   O     0.16667   0.12844   0.81607   0.00000  Uiso   1.00
O567   O     0.16667   0.20489   0.81607   0.00000  Uiso   1.00
O568   O     0.16666   0.12844   0.68392   0.00000  Uiso   1.00
Zn569  Zn    0.16667   0.21771   0.75000   0.00000  Uiso   1.00
Zn570  Zn    0.16667   0.11563   0.75000   0.00000  Uiso   1.00
I571   I     0.26366   0.16655   0.87499   0.00000  Uiso   1.00
I572   I     0.06967   0.16679   0.62501   0.00000  Uiso   1.00
I573   I     0.07534   0.19043   0.86760   0.00000  Uiso   1.00
I574   I     0.25799   0.14290   0.63240   0.00000  Uiso   1.00
I575   I     0.04014   0.11378   0.94498   0.00000  Uiso   1.00
I576   I     0.29319   0.21956   0.55502   0.00000  Uiso   1.00
I577   I     0.23467   0.05742   0.82345   0.00000  Uiso   1.00
I578   I     0.09866   0.27592   0.67655   0.00000  Uiso   1.00
I579   I     0.09861   0.05754   0.67661   0.00000  Uiso   1.00
I580   I     0.23473   0.27580   0.82339   0.00000  Uiso   1.00
C581   C     0.42015   0.16669   0.74988   0.00000  Uiso   1.00
C582   C     0.57985   0.16665   0.75012   0.00000  Uiso   1.00
C583   C     0.42551   0.15166   0.51985   0.00000  Uiso   1.00
C584   C     0.57449   0.18167   0.98015   0.00000  Uiso   1.00
C585   C     0.35476   0.12616   0.75119   0.00000  Uiso   1.00
C586   C     0.64524   0.20717   0.74881   0.00000  Uiso   1.00
C587   C     0.64549   0.12614   0.75105   0.00000  Uiso   1.00
C588   C     0.35451   0.20720   0.74895   0.00000  Uiso   1.00
C589   C     0.62412   0.16665   0.75005   0.00000  Uiso   1.00
C590   C     0.37588   0.16669   0.74995   0.00000  Uiso   1.00
C591   C     0.52627   0.02376   0.77833   0.00000  Uiso   1.00
C592   C     0.47373   0.30957   0.72167   0.00000  Uiso   1.00
C593   C     0.47372   0.02380   0.72167   0.00000  Uiso   1.00
C594   C     0.52628   0.30953   0.77833   0.00000  Uiso   1.00
C595   C     0.49917   0.16663   0.66370   0.00000  Uiso   1.00
C596   C     0.50083   0.16671   0.83630   0.00000  Uiso   1.00
C597   C     0.53886   0.16818   0.90848   0.00000  Uiso   1.00
C598   C     0.46114   0.16516   0.59152   0.00000  Uiso   1.00
C599   C     0.50082   0.16675   0.88408   0.00000  Uiso   1.00
C600   C     0.49918   0.16659   0.61592   0.00000  Uiso   1.00
C601   C     0.46248   0.16631   0.90495   0.00000  Uiso   1.00
C602   C     0.53752   0.16702   0.59505   0.00000  Uiso   1.00
C603   C     0.46215   0.16018   0.95131   0.00000  Uiso   1.00
C604   C     0.53785   0.17316   0.54869   0.00000  Uiso   1.00
C605   C     0.50007   0.16623   0.97655   0.00000  Uiso   1.00
C606   C     0.49993   0.16711   0.52345   0.00000  Uiso   1.00
C607   C     0.53819   0.17146   0.95496   0.00000  Uiso   1.00
C608   C     0.46181   0.16187   0.54504   0.00000  Uiso   1.00
C609   C     0.42569   0.14880   0.97370   0.00000  Uiso   1.00
C610   C     0.57431   0.18453   0.52630   0.00000  Uiso   1.00
H611   H     0.39703   0.14287   0.53574   0.00000  Uiso   1.00
H612   H     0.60297   0.19046   0.96426   0.00000  Uiso   1.00
H613   H     0.37094   0.09453   0.75232   0.00000  Uiso   1.00
H614   H     0.62906   0.23881   0.74768   0.00000  Uiso   1.00
H615   H     0.62951   0.09449   0.75160   0.00000  Uiso   1.00
H616   H     0.37049   0.23884   0.74840   0.00000  Uiso   1.00
N617   N     0.50000   0.28573   0.75000   0.00000  Uiso   1.00
N618   N     0.50000   0.04760   0.75000   0.00000  Uiso   1.00
O619   O     0.43892   0.20487   0.75000   0.00000  Uiso   1.00
O620   O     0.56108   0.12846   0.75000   0.00000  Uiso   1.00
O621   O     0.56108   0.20487   0.75000   0.00000  Uiso   1.00
O622   O     0.43892   0.12846   0.74999   0.00000  Uiso   1.00
O623   O     0.49999   0.20489   0.68393   0.00000  Uiso   1.00
O624   O     0.50001   0.12844   0.81607   0.00000  Uiso   1.00
O625   O     0.50001   0.20489   0.81607   0.00000  Uiso   1.00
O626   O     0.49999   0.12844   0.68392   0.00000  Uiso   1.00
Zn627  Zn    0.50000   0.21771   0.75000   0.00000  Uiso   1.00
Zn628  Zn    0.50000   0.11563   0.75000   0.00000  Uiso   1.00
I629   I     0.59700   0.16655   0.87499   0.00000  Uiso   1.00
I630   I     0.40300   0.16679   0.62501   0.00000  Uiso   1.00
I631   I     0.40868   0.19043   0.86760   0.00000  Uiso   1.00
I632   I     0.59132   0.14290   0.63240   0.00000  Uiso   1.00
I633   I     0.37348   0.11378   0.94498   0.00000  Uiso   1.00
I634   I     0.62652   0.21956   0.55502   0.00000  Uiso   1.00
I635   I     0.56801   0.05742   0.82345   0.00000  Uiso   1.00
I636   I     0.43199   0.27592   0.67655   0.00000  Uiso   1.00
I637   I     0.43194   0.05754   0.67661   0.00000  Uiso   1.00
I638   I     0.56806   0.27580   0.82339   0.00000  Uiso   1.00
C639   C     0.75348   0.16669   0.74988   0.00000  Uiso   1.00
C640   C     0.91318   0.16665   0.75012   0.00000  Uiso   1.00
C641   C     0.75884   0.15166   0.51985   0.00000  Uiso   1.00
C642   C     0.90782   0.18167   0.98015   0.00000  Uiso   1.00
C643   C     0.68810   0.12616   0.75119   0.00000  Uiso   1.00
C644   C     0.97857   0.20717   0.74881   0.00000  Uiso   1.00
C645   C     0.97882   0.12614   0.75105   0.00000  Uiso   1.00
C646   C     0.68784   0.20720   0.74895   0.00000  Uiso   1.00
C647   C     0.95745   0.16665   0.75005   0.00000  Uiso   1.00
C648   C     0.70922   0.16669   0.74995   0.00000  Uiso   1.00
C649   C     0.85961   0.02376   0.77833   0.00000  Uiso   1.00
C650   C     0.80706   0.30957   0.72167   0.00000  Uiso   1.00
C651   C     0.80706   0.02380   0.72167   0.00000  Uiso   1.00
C652   C     0.85961   0.30953   0.77833   0.00000  Uiso   1.00
C653   C     0.83250   0.16663   0.66370   0.00000  Uiso   1.00
C654   C     0.83416   0.16671   0.83630   0.00000  Uiso   1.00
C655   C     0.87219   0.16818   0.90848   0.00000  Uiso   1.00
C656   C     0.79447   0.16516   0.59152   0.00000  Uiso   1.00
C657   C     0.83416   0.16675   0.88408   0.00000  Uiso   1.00
C658   C     0.83251   0.16659   0.61592   0.00000  Uiso   1.00
C659   C     0.79581   0.16631   0.90495   0.00000  Uiso   1.00
C660   C     0.87085   0.16702   0.59505   0.00000  Uiso   1.00
C661   C     0.79548   0.16018   0.95131   0.00000  Uiso   1.00
C662   C     0.87118   0.17316   0.54869   0.00000  Uiso   1.00
C663   C     0.83340   0.16623   0.97655   0.00000  Uiso   1.00
C664   C     0.83327   0.16711   0.52345   0.00000  Uiso   1.00
C665   C     0.87153   0.17146   0.95496   0.00000  Uiso   1.00
C666   C     0.79514   0.16187   0.54504   0.00000  Uiso   1.00
C667   C     0.75902   0.14880   0.97370   0.00000  Uiso   1.00
C668   C     0.90765   0.18453   0.52630   0.00000  Uiso   1.00
H669   H     0.73036   0.14287   0.53574   0.00000  Uiso   1.00
H670   H     0.93631   0.19046   0.96426   0.00000  Uiso   1.00
H671   H     0.70427   0.09453   0.75232   0.00000  Uiso   1.00
H672   H     0.96240   0.23881   0.74768   0.00000  Uiso   1.00
H673   H     0.96285   0.09449   0.75160   0.00000  Uiso   1.00
H674   H     0.70382   0.23884   0.74840   0.00000  Uiso   1.00
N675   N     0.83333   0.28573   0.75000   0.00000  Uiso   1.00
N676   N     0.83333   0.04760   0.75000   0.00000  Uiso   1.00
O677   O     0.77226   0.20487   0.75000   0.00000  Uiso   1.00
O678   O     0.89441   0.12846   0.75000   0.00000  Uiso   1.00
O679   O     0.89441   0.20487   0.75000   0.00000  Uiso   1.00
O680   O     0.77226   0.12846   0.74999   0.00000  Uiso   1.00
O681   O     0.83333   0.20489   0.68393   0.00000  Uiso   1.00
O682   O     0.83334   0.12844   0.81607   0.00000  Uiso   1.00
O683   O     0.83334   0.20489   0.81607   0.00000  Uiso   1.00
O684   O     0.83333   0.12844   0.68392   0.00000  Uiso   1.00
Zn685  Zn    0.83333   0.21771   0.75000   0.00000  Uiso   1.00
Zn686  Zn    0.83333   0.11563   0.75000   0.00000  Uiso   1.00
I687   I     0.93033   0.16655   0.87499   0.00000  Uiso   1.00
I688   I     0.73634   0.16679   0.62501   0.00000  Uiso   1.00
I689   I     0.74201   0.19043   0.86760   0.00000  Uiso   1.00
I690   I     0.92466   0.14290   0.63240   0.00000  Uiso   1.00
I691   I     0.70681   0.11378   0.94498   0.00000  Uiso   1.00
I692   I     0.95986   0.21956   0.55502   0.00000  Uiso   1.00
I693   I     0.90134   0.05742   0.82345   0.00000  Uiso   1.00
I694   I     0.76533   0.27592   0.67655   0.00000  Uiso   1.00
I695   I     0.76527   0.05754   0.67661   0.00000  Uiso   1.00
I696   I     0.90139   0.27580   0.82339   0.00000  Uiso   1.00
C697   C     0.08682   0.50002   0.74988   0.00000  Uiso   1.00
C698   C     0.24652   0.49998   0.75012   0.00000  Uiso   1.00
C699   C     0.09218   0.48499   0.51985   0.00000  Uiso   1.00
C700   C     0.24116   0.51501   0.98015   0.00000  Uiso   1.00
C701   C     0.02143   0.45949   0.75119   0.00000  Uiso   1.00
C702   C     0.31191   0.54051   0.74881   0.00000  Uiso   1.00
C703   C     0.31216   0.45947   0.75105   0.00000  Uiso   1.00
C704   C     0.02118   0.54053   0.74895   0.00000  Uiso   1.00
C705   C     0.29078   0.49998   0.75005   0.00000  Uiso   1.00
C706   C     0.04255   0.50002   0.74995   0.00000  Uiso   1.00
C707   C     0.19294   0.35710   0.77833   0.00000  Uiso   1.00
C708   C     0.14039   0.64290   0.72167   0.00000  Uiso   1.00
C709   C     0.14039   0.35713   0.72167   0.00000  Uiso   1.00
C710   C     0.19294   0.64287   0.77833   0.00000  Uiso   1.00
C711   C     0.16584   0.49996   0.66370   0.00000  Uiso   1.00
C712   C     0.16750   0.50004   0.83630   0.00000  Uiso   1.00
C713   C     0.20553   0.50151   0.90848   0.00000  Uiso   1.00
C714   C     0.12781   0.49849   0.59152   0.00000  Uiso   1.00
C715   C     0.16749   0.50008   0.88408   0.00000  Uiso   1.00
C716   C     0.16584   0.49992   0.61592   0.00000  Uiso   1.00
C717   C     0.12915   0.49964   0.90495   0.00000  Uiso   1.00
C718   C     0.20419   0.50036   0.59505   0.00000  Uiso   1.00
C719   C     0.12882   0.49351   0.95131   0.00000  Uiso   1.00
C720   C     0.20452   0.50649   0.54869   0.00000  Uiso   1.00
C721   C     0.16673   0.49956   0.97655   0.00000  Uiso   1.00
C722   C     0.16660   0.50044   0.52345   0.00000  Uiso   1.00
C723   C     0.20486   0.50479   0.95496   0.00000  Uiso   1.00
C724   C     0.12847   0.49521   0.54504   0.00000  Uiso   1.00
C725   C     0.09235   0.48213   0.97370   0.00000  Uiso   1.00
C726   C     0.24098   0.51787   0.52630   0.00000  Uiso   1.00
H727   H     0.06369   0.47621   0.53574   0.00000  Uiso   1.00
H728   H     0.26964   0.52379   0.96426   0.00000  Uiso   1.00
H729   H     0.03760   0.42786   0.75232   0.00000  Uiso   1.00
H730   H     0.29573   0.57214   0.74768   0.00000  Uiso   1.00
H731   H     0.29618   0.42782   0.75160   0.00000  Uiso   1.00
H732   H     0.03716   0.57218   0.74840   0.00000  Uiso   1.00
N733   N     0.16667   0.61907   0.75000   0.00000  Uiso   1.00
N734   N     0.16667   0.38093   0.75000   0.00000  Uiso   1.00
O735   O     0.10559   0.53821   0.75000   0.00000  Uiso   1.00
O736   O     0.22774   0.46179   0.75000   0.00000  Uiso   1.00
O737   O     0.22774   0.53821   0.75000   0.00000  Uiso   1.00
O738   O     0.10559   0.46179   0.74999   0.00000  Uiso   1.00
O739   O     0.16666   0.53823   0.68393   0.00000  Uiso   1.00
O740   O     0.16667   0.46177   0.81607   0.00000  Uiso   1.00
O741   O     0.16667   0.53823   0.81607   0.00000  Uiso   1.00
O742   O     0.16666   0.46177   0.68392   0.00000  Uiso   1.00
Zn743  Zn    0.16667   0.55104   0.75000   0.00000  Uiso   1.00
Zn744  Zn    0.16667   0.44896   0.75000   0.00000  Uiso   1.00
I745   I     0.26366   0.49988   0.87499   0.00000  Uiso   1.00
I746   I     0.06967   0.50012   0.62501   0.00000  Uiso   1.00
I747   I     0.07534   0.52377   0.86760   0.00000  Uiso   1.00
I748   I     0.25799   0.47623   0.63240   0.00000  Uiso   1.00
I749   I     0.04014   0.44711   0.94498   0.00000  Uiso   1.00
I750   I     0.29319   0.55289   0.55502   0.00000  Uiso   1.00
I751   I     0.23467   0.39075   0.82345   0.00000  Uiso   1.00
I752   I     0.09866   0.60925   0.67655   0.00000  Uiso   1.00
I753   I     0.09861   0.39087   0.67661   0.00000  Uiso   1.00
I754   I     0.23473   0.60913   0.82339   0.00000  Uiso   1.00
C755   C     0.42015   0.50002   0.74988   0.00000  Uiso   1.00
C756   C     0.57985   0.49998   0.75012   0.00000  Uiso   1.00
C757   C     0.42551   0.48499   0.51985   0.00000  Uiso   1.00
C758   C     0.57449   0.51501   0.98015   0.00000  Uiso   1.00
C759   C     0.35476   0.45949   0.75119   0.00000  Uiso   1.00
C760   C     0.64524   0.54051   0.74881   0.00000  Uiso   1.00
C761   C     0.64549   0.45947   0.75105   0.00000  Uiso   1.00
C762   C     0.35451   0.54053   0.74895   0.00000  Uiso   1.00
C763   C     0.62412   0.49998   0.75005   0.00000  Uiso   1.00
C764   C     0.37588   0.50002   0.74995   0.00000  Uiso   1.00
C765   C     0.52627   0.35710   0.77833   0.00000  Uiso   1.00
C766   C     0.47373   0.64290   0.72167   0.00000  Uiso   1.00
C767   C     0.47372   0.35713   0.72167   0.00000  Uiso   1.00
C768   C     0.52628   0.64287   0.77833   0.00000  Uiso   1.00
C769   C     0.49917   0.49996   0.66370   0.00000  Uiso   1.00
C770   C     0.50083   0.50004   0.83630   0.00000  Uiso   1.00
C771   C     0.53886   0.50151   0.90848   0.00000  Uiso   1.00
C772   C     0.46114   0.49849   0.59152   0.00000  Uiso   1.00
C773   C     0.50082   0.50008   0.88408   0.00000  Uiso   1.00
C774   C     0.49918   0.49992   0.61592   0.00000  Uiso   1.00
C775   C     0.46248   0.49964   0.90495   0.00000  Uiso   1.00
C776   C     0.53752   0.50036   0.59505   0.00000  Uiso   1.00
C777   C     0.46215   0.49351   0.95131   0.00000  Uiso   1.00
C778   C     0.53785   0.50649   0.54869   0.00000  Uiso   1.00
C779   C     0.50007   0.49956   0.97655   0.00000  Uiso   1.00
C780   C     0.49993   0.50044   0.52345   0.00000  Uiso   1.00
C781   C     0.53819   0.50479   0.95496   0.00000  Uiso   1.00
C782   C     0.46181   0.49521   0.54504   0.00000  Uiso   1.00
C783   C     0.42569   0.48213   0.97370   0.00000  Uiso   1.00
C784   C     0.57431   0.51787   0.52630   0.00000  Uiso   1.00
H785   H     0.39703   0.47621   0.53574   0.00000  Uiso   1.00
H786   H     0.60297   0.52379   0.96426   0.00000  Uiso   1.00
H787   H     0.37094   0.42786   0.75232   0.00000  Uiso   1.00
H788   H     0.62906   0.57214   0.74768   0.00000  Uiso   1.00
H789   H     0.62951   0.42782   0.75160   0.00000  Uiso   1.00
H790   H     0.37049   0.57218   0.74840   0.00000  Uiso   1.00
N791   N     0.50000   0.61907   0.75000   0.00000  Uiso   1.00
N792   N     0.50000   0.38093   0.75000   0.00000  Uiso   1.00
O793   O     0.43892   0.53821   0.75000   0.00000  Uiso   1.00
O794   O     0.56108   0.46179   0.75000   0.00000  Uiso   1.00
O795   O     0.56108   0.53821   0.75000   0.00000  Uiso   1.00
O796   O     0.43892   0.46179   0.74999   0.00000  Uiso   1.00
O797   O     0.49999   0.53823   0.68393   0.00000  Uiso   1.00
O798   O     0.50001   0.46177   0.81607   0.00000  Uiso   1.00
O799   O     0.50001   0.53823   0.81607   0.00000  Uiso   1.00
O800   O     0.49999   0.46177   0.68392   0.00000  Uiso   1.00
Zn801  Zn    0.50000   0.55104   0.75000   0.00000  Uiso   1.00
Zn802  Zn    0.50000   0.44896   0.75000   0.00000  Uiso   1.00
I803   I     0.59700   0.49988   0.87499   0.00000  Uiso   1.00
I804   I     0.40300   0.50012   0.62501   0.00000  Uiso   1.00
I805   I     0.40868   0.52377   0.86760   0.00000  Uiso   1.00
I806   I     0.59132   0.47623   0.63240   0.00000  Uiso   1.00
I807   I     0.37348   0.44711   0.94498   0.00000  Uiso   1.00
I808   I     0.62652   0.55289   0.55502   0.00000  Uiso   1.00
I809   I     0.56801   0.39075   0.82345   0.00000  Uiso   1.00
I810   I     0.43199   0.60925   0.67655   0.00000  Uiso   1.00
I811   I     0.43194   0.39087   0.67661   0.00000  Uiso   1.00
I812   I     0.56806   0.60913   0.82339   0.00000  Uiso   1.00
C813   C     0.75348   0.50002   0.74988   0.00000  Uiso   1.00
C814   C     0.91318   0.49998   0.75012   0.00000  Uiso   1.00
C815   C     0.75884   0.48499   0.51985   0.00000  Uiso   1.00
C816   C     0.90782   0.51501   0.98015   0.00000  Uiso   1.00
C817   C     0.68810   0.45949   0.75119   0.00000  Uiso   1.00
C818   C     0.97857   0.54051   0.74881   0.00000  Uiso   1.00
C819   C     0.97882   0.45947   0.75105   0.00000  Uiso   1.00
C820   C     0.68784   0.54053   0.74895   0.00000  Uiso   1.00
C821   C     0.95745   0.49998   0.75005   0.00000  Uiso   1.00
C822   C     0.70922   0.50002   0.74995   0.00000  Uiso   1.00
C823   C     0.85961   0.35710   0.77833   0.00000  Uiso   1.00
C824   C     0.80706   0.64290   0.72167   0.00000  Uiso   1.00
C825   C     0.80706   0.35713   0.72167   0.00000  Uiso   1.00
C826   C     0.85961   0.64287   0.77833   0.00000  Uiso   1.00
C827   C     0.83250   0.49996   0.66370   0.00000  Uiso   1.00
C828   C     0.83416   0.50004   0.83630   0.00000  Uiso   1.00
C829   C     0.87219   0.50151   0.90848   0.00000  Uiso   1.00
C830   C     0.79447   0.49849   0.59152   0.00000  Uiso   1.00
C831   C     0.83416   0.50008   0.88408   0.00000  Uiso   1.00
C832   C     0.83251   0.49992   0.61592   0.00000  Uiso   1.00
C833   C     0.79581   0.49964   0.90495   0.00000  Uiso   1.00
C834   C     0.87085   0.50036   0.59505   0.00000  Uiso   1.00
C835   C     0.79548   0.49351   0.95131   0.00000  Uiso   1.00
C836   C     0.87118   0.50649   0.54869   0.00000  Uiso   1.00
C837   C     0.83340   0.49956   0.97655   0.00000  Uiso   1.00
C838   C     0.83327   0.50044   0.52345   0.00000  Uiso   1.00
C839   C     0.87153   0.50479   0.95496   0.00000  Uiso   1.00
C840   C     0.79514   0.49521   0.54504   0.00000  Uiso   1.00
C841   C     0.75902   0.48213   0.97370   0.00000  Uiso   1.00
C842   C     0.90765   0.51787   0.52630   0.00000  Uiso   1.00
H843   H     0.73036   0.47621   0.53574   0.00000  Uiso   1.00
H844   H     0.93631   0.52379   0.96426   0.00000  Uiso   1.00
H845   H     0.70427   0.42786   0.75232   0.00000  Uiso   1.00
H846   H     0.96240   0.57214   0.74768   0.00000  Uiso   1.00
H847   H     0.96285   0.42782   0.75160   0.00000  Uiso   1.00
H848   H     0.70382   0.57218   0.74840   0.00000  Uiso   1.00
N849   N     0.83333   0.61907   0.75000   0.00000  Uiso   1.00
N850   N     0.83333   0.38093   0.75000   0.00000  Uiso   1.00
O851   O     0.77226   0.53821   0.75000   0.00000  Uiso   1.00
O852   O     0.89441   0.46179   0.75000   0.00000  Uiso   1.00
O853   O     0.89441   0.53821   0.75000   0.00000  Uiso   1.00
O854   O     0.77226   0.46179   0.74999   0.00000  Uiso   1.00
O855   O     0.83333   0.53823   0.68393   0.00000  Uiso   1.00
O856   O     0.83334   0.46177   0.81607   0.00000  Uiso   1.00
O857   O     0.83334   0.53823   0.81607   0.00000  Uiso   1.00
O858   O     0.83333   0.46177   0.68392   0.00000  Uiso   1.00
Zn859  Zn    0.83333   0.55104   0.75000   0.00000  Uiso   1.00
Zn860  Zn    0.83333   0.44896   0.75000   0.00000  Uiso   1.00
I861   I     0.93033   0.49988   0.87499   0.00000  Uiso   1.00
I862   I     0.73634   0.50012   0.62501   0.00000  Uiso   1.00
I863   I     0.74201   0.52377   0.86760   0.00000  Uiso   1.00
I864   I     0.92466   0.47623   0.63240   0.00000  Uiso   1.00
I865   I     0.70681   0.44711   0.94498   0.00000  Uiso   1.00
I866   I     0.95986   0.55289   0.55502   0.00000  Uiso   1.00
I867   I     0.90134   0.39075   0.82345   0.00000  Uiso   1.00
I868   I     0.76533   0.60925   0.67655   0.00000  Uiso   1.00
I869   I     0.76527   0.39087   0.67661   0.00000  Uiso   1.00
I870   I     0.90139   0.60913   0.82339   0.00000  Uiso   1.00
C871   C     0.08682   0.83335   0.74988   0.00000  Uiso   1.00
C872   C     0.24652   0.83331   0.75012   0.00000  Uiso   1.00
C873   C     0.09218   0.81833   0.51985   0.00000  Uiso   1.00
C874   C     0.24116   0.84834   0.98015   0.00000  Uiso   1.00
C875   C     0.02143   0.79283   0.75119   0.00000  Uiso   1.00
C876   C     0.31191   0.87384   0.74881   0.00000  Uiso   1.00
C877   C     0.31216   0.79280   0.75105   0.00000  Uiso   1.00
C878   C     0.02118   0.87386   0.74895   0.00000  Uiso   1.00
C879   C     0.29078   0.83331   0.75005   0.00000  Uiso   1.00
C880   C     0.04255   0.83335   0.74995   0.00000  Uiso   1.00
C881   C     0.19294   0.69043   0.77833   0.00000  Uiso   1.00
C882   C     0.14039   0.97624   0.72167   0.00000  Uiso   1.00
C883   C     0.14039   0.69047   0.72167   0.00000  Uiso   1.00
C884   C     0.19294   0.97620   0.77833   0.00000  Uiso   1.00
C885   C     0.16584   0.83329   0.66370   0.00000  Uiso   1.00
C886   C     0.16750   0.83337   0.83630   0.00000  Uiso   1.00
C887   C     0.20553   0.83484   0.90848   0.00000  Uiso   1.00
C888   C     0.12781   0.83182   0.59152   0.00000  Uiso   1.00
C889   C     0.16749   0.83341   0.88408   0.00000  Uiso   1.00
C890   C     0.16584   0.83325   0.61592   0.00000  Uiso   1.00
C891   C     0.12915   0.83298   0.90495   0.00000  Uiso   1.00
C892   C     0.20419   0.83369   0.59505   0.00000  Uiso   1.00
C893   C     0.12882   0.82684   0.95131   0.00000  Uiso   1.00
C894   C     0.20452   0.83982   0.54869   0.00000  Uiso   1.00
C895   C     0.16673   0.83289   0.97655   0.00000  Uiso   1.00
C896   C     0.16660   0.83378   0.52345   0.00000  Uiso   1.00
C897   C     0.20486   0.83813   0.95496   0.00000  Uiso   1.00
C898   C     0.12847   0.82854   0.54504   0.00000  Uiso   1.00
C899   C     0.09235   0.81547   0.97370   0.00000  Uiso   1.00
C900   C     0.24098   0.85120   0.52630   0.00000  Uiso   1.00
H901   H     0.06369   0.80954   0.53574   0.00000  Uiso   1.00
H902   H     0.26964   0.85713   0.96426   0.00000  Uiso   1.00
H903   H     0.03760   0.76119   0.75232   0.00000  Uiso   1.00
H904   H     0.29573   0.90547   0.74768   0.00000  Uiso   1.00
H905   H     0.29618   0.76116   0.75160   0.00000  Uiso   1.00
H906   H     0.03716   0.90551   0.74840   0.00000  Uiso   1.00
N907   N     0.16667   0.95240   0.75000   0.00000  Uiso   1.00
N908   N     0.16667   0.71427   0.75000   0.00000  Uiso   1.00
O909   O     0.10559   0.87154   0.75000   0.00000  Uiso   1.00
O910   O     0.22774   0.79513   0.75000   0.00000  Uiso   1.00
O911   O     0.22774   0.87154   0.75000   0.00000  Uiso   1.00
O912   O     0.10559   0.79513   0.74999   0.00000  Uiso   1.00
O913   O     0.16666   0.87156   0.68393   0.00000  Uiso   1.00
O914   O     0.16667   0.79511   0.81607   0.00000  Uiso   1.00
O915   O     0.16667   0.87156   0.81607   0.00000  Uiso   1.00
O916   O     0.16666   0.79511   0.68392   0.00000  Uiso   1.00
Zn917  Zn    0.16667   0.88437   0.75000   0.00000  Uiso   1.00
Zn918  Zn    0.16667   0.78229   0.75000   0.00000  Uiso   1.00
I919   I     0.26366   0.83321   0.87499   0.00000  Uiso   1.00
I920   I     0.06967   0.83345   0.62501   0.00000  Uiso   1.00
I921   I     0.07534   0.85710   0.86760   0.00000  Uiso   1.00
I922   I     0.25799   0.80956   0.63240   0.00000  Uiso   1.00
I923   I     0.04014   0.78045   0.94498   0.00000  Uiso   1.00
I924   I     0.29319   0.88622   0.55502   0.00000  Uiso   1.00
I925   I     0.23467   0.72408   0.82345   0.00000  Uiso   1.00
I926   I     0.09866   0.94258   0.67655   0.00000  Uiso   1.00
I927   I     0.09861   0.72420   0.67661   0.00000  Uiso   1.00
I928   I     0.23473   0.94246   0.82339   0.00000  Uiso   1.00
C929   C     0.42015   0.83335   0.74988   0.00000  Uiso   1.00
C930   C     0.57985   0.83331   0.75012   0.00000  Uiso   1.00
C931   C     0.42551   0.81833   0.51985   0.00000  Uiso   1.00
C932   C     0.57449   0.84834   0.98015   0.00000  Uiso   1.00
C933   C     0.35476   0.79283   0.75119   0.00000  Uiso   1.00
C934   C     0.64524   0.87384   0.74881   0.00000  Uiso   1.00
C935   C     0.64549   0.79280   0.75105   0.00000  Uiso   1.00
C936   C     0.35451   0.87386   0.74895   0.00000  Uiso   1.00
C937   C     0.62412   0.83331   0.75005   0.00000  Uiso   1.00
C938   C     0.37588   0.83335   0.74995   0.00000  Uiso   1.00
C939   C     0.52627   0.69043   0.77833   0.00000  Uiso   1.00
C940   C     0.47373   0.97624   0.72167   0.00000  Uiso   1.00
C941   C     0.47372   0.69047   0.72167   0.00000  Uiso   1.00
C942   C     0.52628   0.97620   0.77833   0.00000  Uiso   1.00
C943   C     0.49917   0.83329   0.66370   0.00000  Uiso   1.00
C944   C     0.50083   0.83337   0.83630   0.00000  Uiso   1.00
C945   C     0.53886   0.83484   0.90848   0.00000  Uiso   1.00
C946   C     0.46114   0.83182   0.59152   0.00000  Uiso   1.00
C947   C     0.50082   0.83341   0.88408   0.00000  Uiso   1.00
C948   C     0.49918   0.83325   0.61592   0.00000  Uiso   1.00
C949   C     0.46248   0.83298   0.90495   0.00000  Uiso   1.00
C950   C     0.53752   0.83369   0.59505   0.00000  Uiso   1.00
C951   C     0.46215   0.82684   0.95131   0.00000  Uiso   1.00
C952   C     0.53785   0.83982   0.54869   0.00000  Uiso   1.00
C953   C     0.50007   0.83289   0.97655   0.00000  Uiso   1.00
C954   C     0.49993   0.83378   0.52345   0.00000  Uiso   1.00
C955   C     0.53819   0.83813   0.95496   0.00000  Uiso   1.00
C956   C     0.46181   0.82854   0.54504   0.00000  Uiso   1.00
C957   C     0.42569   0.81547   0.97370   0.00000  Uiso   1.00
C958   C     0.57431   0.85120   0.52630   0.00000  Uiso   1.00
H959   H     0.39703   0.80954   0.53574   0.00000  Uiso   1.00
H960   H     0.60297   0.85713   0.96426   0.00000  Uiso   1.00
H961   H     0.37094   0.76119   0.75232   0.00000  Uiso   1.00
H962   H     0.62906   0.90547   0.74768   0.00000  Uiso   1.00
H963   H     0.62951   0.76116   0.75160   0.00000  Uiso   1.00
H964   H     0.37049   0.90551   0.74840   0.00000  Uiso   1.00
N965   N     0.50000   0.95240   0.75000   0.00000  Uiso   1.00
N966   N     0.50000   0.71427   0.75000   0.00000  Uiso   1.00
O967   O     0.43892   0.87154   0.75000   0.00000  Uiso   1.00
O968   O     0.56108   0.79513   0.75000   0.00000  Uiso   1.00
O969   O     0.56108   0.87154   0.75000   0.00000  Uiso   1.00
O970   O     0.43892   0.79513   0.74999   0.00000  Uiso   1.00
O971   O     0.49999   0.87156   0.68393   0.00000  Uiso   1.00
O972   O     0.50001   0.79511   0.81607   0.00000  Uiso   1.00
O973   O     0.50001   0.87156   0.81607   0.00000  Uiso   1.00
O974   O     0.49999   0.79511   0.68392   0.00000  Uiso   1.00
Zn975  Zn    0.50000   0.88437   0.75000   0.00000  Uiso   1.00
Zn976  Zn    0.50000   0.78229   0.75000   0.00000  Uiso   1.00
I977   I     0.59700   0.83321   0.87499   0.00000  Uiso   1.00
I978   I     0.40300   0.83345   0.62501   0.00000  Uiso   1.00
I979   I     0.40868   0.85710   0.86760   0.00000  Uiso   1.00
I980   I     0.59132   0.80956   0.63240   0.00000  Uiso   1.00
I981   I     0.37348   0.78045   0.94498   0.00000  Uiso   1.00
I982   I     0.62652   0.88622   0.55502   0.00000  Uiso   1.00
I983   I     0.56801   0.72408   0.82345   0.00000  Uiso   1.00
I984   I     0.43199   0.94258   0.67655   0.00000  Uiso   1.00
I985   I     0.43194   0.72420   0.67661   0.00000  Uiso   1.00
I986   I     0.56806   0.94246   0.82339   0.00000  Uiso   1.00
C987   C     0.75348   0.83335   0.74988   0.00000  Uiso   1.00
C988   C     0.91318   0.83331   0.75012   0.00000  Uiso   1.00
C989   C     0.75884   0.81833   0.51985   0.00000  Uiso   1.00
C990   C     0.90782   0.84834   0.98015   0.00000  Uiso   1.00
C991   C     0.68810   0.79283   0.75119   0.00000  Uiso   1.00
C992   C     0.97857   0.87384   0.74881   0.00000  Uiso   1.00
C993   C     0.97882   0.79280   0.75105   0.00000  Uiso   1.00
C994   C     0.68784   0.87386   0.74895   0.00000  Uiso   1.00
C995   C     0.95745   0.83331   0.75005   0.00000  Uiso   1.00
C996   C     0.70922   0.83335   0.74995   0.00000  Uiso   1.00
C997   C     0.85961   0.69043   0.77833   0.00000  Uiso   1.00
C998   C     0.80706   0.97624   0.72167   0.00000  Uiso   1.00
C999   C     0.80706   0.69047   0.72167   0.00000  Uiso   1.00
C1000  C     0.85961   0.97620   0.77833   0.00000  Uiso   1.00
C1001  C     0.83250   0.83329   0.66370   0.00000  Uiso   1.00
C1002  C     0.83416   0.83337   0.83630   0.00000  Uiso   1.00
C1003  C     0.87219   0.83484   0.90848   0.00000  Uiso   1.00
C1004  C     0.79447   0.83182   0.59152   0.00000  Uiso   1.00
C1005  C     0.83416   0.83341   0.88408   0.00000  Uiso   1.00
C1006  C     0.83251   0.83325   0.61592   0.00000  Uiso   1.00
C1007  C     0.79581   0.83298   0.90495   0.00000  Uiso   1.00
C1008  C     0.87085   0.83369   0.59505   0.00000  Uiso   1.00
C1009  C     0.79548   0.82684   0.95131   0.00000  Uiso   1.00
C1010  C     0.87118   0.83982   0.54869   0.00000  Uiso   1.00
C1011  C     0.83340   0.83289   0.97655   0.00000  Uiso   1.00
C1012  C     0.83327   0.83378   0.52345   0.00000  Uiso   1.00
C1013  C     0.87153   0.83813   0.95496   0.00000  Uiso   1.00
C1014  C     0.79514   0.82854   0.54504   0.00000  Uiso   1.00
C1015  C     0.75902   0.81547   0.97370   0.00000  Uiso   1.00
C1016  C     0.90765   0.85120   0.52630   0.00000  Uiso   1.00
H1017  H     0.73036   0.80954   0.53574   0.00000  Uiso   1.00
H1018  H     0.93631   0.85713   0.96426   0.00000  Uiso   1.00
H1019  H     0.70427   0.76119   0.75232   0.00000  Uiso   1.00
H1020  H     0.96240   0.90547   0.74768   0.00000  Uiso   1.00
H1021  H     0.96285   0.76116   0.75160   0.00000  Uiso   1.00
H1022  H     0.70382   0.90551   0.74840   0.00000  Uiso   1.00
N1023  N     0.83333   0.95240   0.75000   0.00000  Uiso   1.00
N1024  N     0.83333   0.71427   0.75000   0.00000  Uiso   1.00
O1025  O     0.77226   0.87154   0.75000   0.00000  Uiso   1.00
O1026  O     0.89441   0.79513   0.75000   0.00000  Uiso   1.00
O1027  O     0.89441   0.87154   0.75000   0.00000  Uiso   1.00
O1028  O     0.77226   0.79513   0.74999   0.00000  Uiso   1.00
O1029  O     0.83333   0.87156   0.68393   0.00000  Uiso   1.00
O1030  O     0.83334   0.79511   0.81607   0.00000  Uiso   1.00
O1031  O     0.83334   0.87156   0.81607   0.00000  Uiso   1.00
O1032  O     0.83333   0.79511   0.68392   0.00000  Uiso   1.00
Zn1033 Zn    0.83333   0.88437   0.75000   0.00000  Uiso   1.00
Zn1034 Zn    0.83333   0.78229   0.75000   0.00000  Uiso   1.00
I1035  I     0.93033   0.83321   0.87499   0.00000  Uiso   1.00
I1036  I     0.73634   0.83345   0.62501   0.00000  Uiso   1.00
I1037  I     0.74201   0.85710   0.86760   0.00000  Uiso   1.00
I1038  I     0.92466   0.80956   0.63240   0.00000  Uiso   1.00
I1039  I     0.70681   0.78045   0.94498   0.00000  Uiso   1.00
I1040  I     0.95986   0.88622   0.55502   0.00000  Uiso   1.00
I1041  I     0.90134   0.72408   0.82345   0.00000  Uiso   1.00
I1042  I     0.76533   0.94258   0.67655   0.00000  Uiso   1.00
I1043  I     0.76527   0.72420   0.67661   0.00000  Uiso   1.00
I1044  I     0.90139   0.94246   0.82339   0.00000  Uiso   1.00
loop_
_geom_bond_atom_site_label_1
_geom_bond_atom_site_label_2
_geom_bond_distance
_geom_bond_site_symmetry_2
_ccdc_geom_bond_type
C1     O39     1.298   .     A
C1     O42     1.297   .     A
C1     C10     1.421   .     S
C2     C9      1.421   .     S
C2     O41     1.297   .     A
C2     O40     1.298   .     A
C3     H31     1.079   .     S
C3     C28     1.399   .     A
C3     C551    1.384   1_554 S
C4     H32     1.079   .     S
C4     C27     1.399   .     A
C4     C552    1.384   .     S
C5     C10     1.397   .     A
C5     H33     1.083   .     S
C5     C123    1.367   1_455 S
C6     C9      1.397   .     A
C6     H34     1.083   .     S
C6     C66     1.367   .     S
C7     C9      1.397   .     A
C7     H35     1.082   .     S
C7     C63     1.367   .     S
C8     H36     1.082   .     S
C8     C10     1.397   .     A
C8     C122    1.367   1_455 S
C11    N38     1.376   .     A
C11    I55     2.124   .     S
C11    C362    1.430   1_545 S
C12    I56     2.124   .     S
C12    N37     1.376   .     A
C12    C187    1.430   .     S
C13    N38     1.375   .     A
C13    I57     2.125   .     S
C13    C360    1.430   1_545 S
C14    N37     1.375   .     A
C14    I58     2.125   .     S
C14    C185    1.430   .     S
C15    O43     1.299   .     A
C15    C20     1.430   .     S
C15    O46     1.299   .     A
C16    O45     1.299   .     A
C16    O44     1.299   .     A
C16    C19     1.430   .     S
C17    C27     1.396   .     A
C17    I49     2.151   .     S
C17    C19     1.401   .     A
C18    C20     1.401   .     A
C18    C28     1.396   .     A
C18    I50     2.151   .     S
C19    C21     1.400   .     A
C20    C22     1.400   .     A
C21    C23     1.401   .     A
C21    I51     2.149   .     S
C22    I52     2.149   .     S
C22    C24     1.401   .     A
C23    C29     1.413   .     A
C23    C25     1.421   .     A
C24    C30     1.413   .     A
C24    C26     1.421   .     A
C25    C27     1.414   .     A
C25    C548    1.405   .     S
C26    C28     1.414   .     A
C26    C547    1.405   1_554 S
C29    I53     2.135   .     S
C29    C525    1.384   .     S
C30    I54     2.135   .     S
C30    C526    1.384   1_554 S
N37    Zn47    2.046   .     S
N38    Zn48    2.046   .     S
O39    Zn47    1.999   .     S
O40    Zn48    1.999   .     S
O41    Zn47    1.997   .     S
O42    Zn48    1.997   .     S
O43    Zn47    2.015   .     S
O44    Zn48    2.015   .     S
O45    Zn47    2.016   .     S
O46    Zn48    2.016   .     S
C59    O97     1.298   .     A
C59    O100    1.297   .     A
C59    C68     1.421   .     S
C60    C67     1.421   .     S
C60    O99     1.297   .     A
C60    O98     1.298   .     A
C61    H89     1.079   .     S
C61    C86     1.399   .     A
C61    C609    1.384   1_554 S
C62    H90     1.079   .     S
C62    C85     1.399   .     A
C62    C610    1.384   .     S
C63    C68     1.397   .     A
C63    H91     1.083   .     S
C64    C67     1.397   .     A
C64    H92     1.083   .     S
C64    C124    1.367   .     S
C65    C67     1.397   .     A
C65    H93     1.082   .     S
C65    C121    1.367   .     S
C66    H94     1.082   .     S
C66    C68     1.397   .     A
C69    N96     1.376   .     A
C69    I113    2.124   .     S
C69    C420    1.430   1_545 S
C70    I114    2.124   .     S
C70    N95     1.376   .     A
C70    C245    1.430   .     S
C71    N96     1.375   .     A
C71    I115    2.125   .     S
C71    C418    1.430   1_545 S
C72    N95     1.375   .     A
C72    I116    2.125   .     S
C72    C243    1.430   .     S
C73    O101    1.299   .     A
C73    C78     1.430   .     S
C73    O104    1.299   .     A
C74    O103    1.299   .     A
C74    O102    1.299   .     A
C74    C77     1.430   .     S
C75    C85     1.396   .     A
C75    I107    2.151   .     S
C75    C77     1.401   .     A
C76    C78     1.401   .     A
C76    C86     1.396   .     A
C76    I108    2.151   .     S
C77    C79     1.400   .     A
C78    C80     1.400   .     A
C79    C81     1.401   .     A
C79    I109    2.149   .     S
C80    I110    2.149   .     S
C80    C82     1.401   .     A
C81    C87     1.413   .     A
C81    C83     1.421   .     A
C82    C88     1.413   .     A
C82    C84     1.421   .     A
C83    C85     1.414   .     A
C83    C606    1.405   .     S
C84    C86     1.414   .     A
C84    C605    1.405   1_554 S
C87    I111    2.135   .     S
C87    C583    1.384   .     S
C88    I112    2.135   .     S
C88    C584    1.384   1_554 S
N95    Zn105   2.046   .     S
N96    Zn106   2.046   .     S
O97    Zn105   1.999   .     S
O98    Zn106   1.999   .     S
O99    Zn105   1.997   .     S
O100   Zn106   1.997   .     S
O101   Zn105   2.015   .     S
O102   Zn106   2.015   .     S
O103   Zn105   2.016   .     S
O104   Zn106   2.016   .     S
C117   O155    1.298   .     A
C117   O158    1.297   .     A
C117   C126    1.421   .     S
C118   C125    1.421   .     S
C118   O157    1.297   .     A
C118   O156    1.298   .     A
C119   H147    1.079   .     S
C119   C144    1.399   .     A
C119   C667    1.384   1_554 S
C120   H148    1.079   .     S
C120   C143    1.399   .     A
C120   C668    1.384   .     S
C121   C126    1.397   .     A
C121   H149    1.083   .     S
C122   C125    1.397   .     A
C122   H150    1.083   .     S
C122   C8      1.367   1_655 S
C123   C125    1.397   .     A
C123   H151    1.082   .     S
C123   C5      1.367   1_655 S
C124   H152    1.082   .     S
C124   C126    1.397   .     A
C127   N154    1.376   .     A
C127   I171    2.124   .     S
C127   C478    1.430   1_545 S
C128   I172    2.124   .     S
C128   N153    1.376   .     A
C128   C303    1.430   .     S
C129   N154    1.375   .     A
C129   I173    2.125   .     S
C129   C476    1.430   1_545 S
C130   N153    1.375   .     A
C130   I174    2.125   .     S
C130   C301    1.430   .     S
C131   O159    1.299   .     A
C131   C136    1.430   .     S
C131   O162    1.299   .     A
C132   O161    1.299   .     A
C132   O160    1.299   .     A
C132   C135    1.430   .     S
C133   C143    1.396   .     A
C133   I165    2.151   .     S
C133   C135    1.401   .     A
C134   C136    1.401   .     A
C134   C144    1.396   .     A
C134   I166    2.151   .     S
C135   C137    1.400   .     A
C136   C138    1.400   .     A
C137   C139    1.401   .     A
C137   I167    2.149   .     S
C138   I168    2.149   .     S
C138   C140    1.401   .     A
C139   C145    1.413   .     A
C139   C141    1.421   .     A
C140   C146    1.413   .     A
C140   C142    1.421   .     A
C141   C143    1.414   .     A
C141   C664    1.405   .     S
C142   C144    1.414   .     A
C142   C663    1.405   1_554 S
C145   I169    2.135   .     S
C145   C641    1.384   .     S
C146   I170    2.135   .     S
C146   C642    1.384   1_554 S
N153   Zn163   2.046   .     S
N154   Zn164   2.046   .     S
O155   Zn163   1.999   .     S
O156   Zn164   1.999   .     S
O157   Zn163   1.997   .     S
O158   Zn164   1.997   .     S
O159   Zn163   2.015   .     S
O160   Zn164   2.015   .     S
O161   Zn163   2.016   .     S
O162   Zn164   2.016   .     S
C175   O213    1.298   .     A
C175   O216    1.297   .     A
C175   C184    1.421   .     S
C176   C183    1.421   .     S
C176   O215    1.297   .     A
C176   O214    1.298   .     A
C177   H205    1.079   .     S
C177   C202    1.399   .     A
C177   C725    1.384   1_554 S
C178   H206    1.079   .     S
C178   C201    1.399   .     A
C178   C726    1.384   .     S
C179   C184    1.397   .     A
C179   H207    1.083   .     S
C179   C297    1.367   1_455 S
C180   C183    1.397   .     A
C180   H208    1.083   .     S
C180   C240    1.367   .     S
C181   C183    1.397   .     A
C181   H209    1.082   .     S
C181   C237    1.367   .     S
C182   H210    1.082   .     S
C182   C184    1.397   .     A
C182   C296    1.367   1_455 S
C185   N212    1.376   .     A
C185   I229    2.124   .     S
C186   I230    2.124   .     S
C186   N211    1.376   .     A
C186   C361    1.430   .     S
C187   N212    1.375   .     A
C187   I231    2.125   .     S
C188   N211    1.375   .     A
C188   I232    2.125   .     S
C188   C359    1.430   .     S
C189   O217    1.299   .     A
C189   C194    1.430   .     S
C189   O220    1.299   .     A
C190   O219    1.299   .     A
C190   O218    1.299   .     A
C190   C193    1.430   .     S
C191   C201    1.396   .     A
C191   I223    2.151   .     S
C191   C193    1.401   .     A
C192   C194    1.401   .     A
C192   C202    1.396   .     A
C192   I224    2.151   .     S
C193   C195    1.400   .     A
C194   C196    1.400   .     A
C195   C197    1.401   .     A
C195   I225    2.149   .     S
C196   I226    2.149   .     S
C196   C198    1.401   .     A
C197   C203    1.413   .     A
C197   C199    1.421   .     A
C198   C204    1.413   .     A
C198   C200    1.421   .     A
C199   C201    1.414   .     A
C199   C722    1.405   .     S
C200   C202    1.414   .     A
C200   C721    1.405   1_554 S
C203   I227    2.135   .     S
C203   C699    1.384   .     S
C204   I228    2.135   .     S
C204   C700    1.384   1_554 S
N211   Zn221   2.046   .     S
N212   Zn222   2.046   .     S
O213   Zn221   1.999   .     S
O214   Zn222   1.999   .     S
O215   Zn221   1.997   .     S
O216   Zn222   1.997   .     S
O217   Zn221   2.015   .     S
O218   Zn222   2.015   .     S
O219   Zn221   2.016   .     S
O220   Zn222   2.016   .     S
C233   O271    1.298   .     A
C233   O274    1.297   .     A
C233   C242    1.421   .     S
C234   C241    1.421   .     S
C234   O273    1.297   .     A
C234   O272    1.298   .     A
C235   H263    1.079   .     S
C235   C260    1.399   .     A
C235   C783    1.384   1_554 S
C236   H264    1.079   .     S
C236   C259    1.399   .     A
C236   C784    1.384   .     S
C237   C242    1.397   .     A
C237   H265    1.083   .     S
C238   C241    1.397   .     A
C238   H266    1.083   .     S
C238   C298    1.367   .     S
C239   C241    1.397   .     A
C239   H267    1.082   .     S
C239   C295    1.367   .     S
C240   H268    1.082   .     S
C240   C242    1.397   .     A
C243   N270    1.376   .     A
C243   I287    2.124   .     S
C244   I288    2.124   .     S
C244   N269    1.376   .     A
C244   C419    1.430   .     S
C245   N270    1.375   .     A
C245   I289    2.125   .     S
C246   N269    1.375   .     A
C246   I290    2.125   .     S
C246   C417    1.430   .     S
C247   O275    1.299   .     A
C247   C252    1.430   .     S
C247   O278    1.299   .     A
C248   O277    1.299   .     A
C248   O276    1.299   .     A
C248   C251    1.430   .     S
C249   C259    1.396   .     A
C249   I281    2.151   .     S
C249   C251    1.401   .     A
C250   C252    1.401   .     A
C250   C260    1.396   .     A
C250   I282    2.151   .     S
C251   C253    1.400   .     A
C252   C254    1.400   .     A
C253   C255    1.401   .     A
C253   I283    2.149   .     S
C254   I284    2.149   .     S
C254   C256    1.401   .     A
C255   C261    1.413   .     A
C255   C257    1.421   .     A
C256   C262    1.413   .     A
C256   C258    1.421   .     A
C257   C259    1.414   .     A
C257   C780    1.405   .     S
C258   C260    1.414   .     A
C258   C779    1.405   1_554 S
C261   I285    2.135   .     S
C261   C757    1.384   .     S
C262   I286    2.135   .     S
C262   C758    1.384   1_554 S
N269   Zn279   2.046   .     S
N270   Zn280   2.046   .     S
O271   Zn279   1.999   .     S
O272   Zn280   1.999   .     S
O273   Zn279   1.997   .     S
O274   Zn280   1.997   .     S
O275   Zn279   2.015   .     S
O276   Zn280   2.015   .     S
O277   Zn279   2.016   .     S
O278   Zn280   2.016   .     S
C291   O329    1.298   .     A
C291   O332    1.297   .     A
C291   C300    1.421   .     S
C292   C299    1.421   .     S
C292   O331    1.297   .     A
C292   O330    1.298   .     A
C293   H321    1.079   .     S
C293   C318    1.399   .     A
C293   C841    1.384   1_554 S
C294   H322    1.079   .     S
C294   C317    1.399   .     A
C294   C842    1.384   .     S
C295   C300    1.397   .     A
C295   H323    1.083   .     S
C296   C299    1.397   .     A
C296   H324    1.083   .     S
C296   C182    1.367   1_655 S
C297   C299    1.397   .     A
C297   H325    1.082   .     S
C297   C179    1.367   1_655 S
C298   H326    1.082   .     S
C298   C300    1.397   .     A
C301   N328    1.376   .     A
C301   I345    2.124   .     S
C302   I346    2.124   .     S
C302   N327    1.376   .     A
C302   C477    1.430   .     S
C303   N328    1.375   .     A
C303   I347    2.125   .     S
C304   N327    1.375   .     A
C304   I348    2.125   .     S
C304   C475    1.430   .     S
C305   O333    1.299   .     A
C305   C310    1.430   .     S
C305   O336    1.299   .     A
C306   O335    1.299   .     A
C306   O334    1.299   .     A
C306   C309    1.430   .     S
C307   C317    1.396   .     A
C307   I339    2.151   .     S
C307   C309    1.401   .     A
C308   C310    1.401   .     A
C308   C318    1.396   .     A
C308   I340    2.151   .     S
C309   C311    1.400   .     A
C310   C312    1.400   .     A
C311   C313    1.401   .     A
C311   I341    2.149   .     S
C312   I342    2.149   .     S
C312   C314    1.401   .     A
C313   C319    1.413   .     A
C313   C315    1.421   .     A
C314   C320    1.413   .     A
C314   C316    1.421   .     A
C315   C317    1.414   .     A
C315   C838    1.405   .     S
C316   C318    1.414   .     A
C316   C837    1.405   1_554 S
C319   I343    2.135   .     S
C319   C815    1.384   .     S
C320   I344    2.135   .     S
C320   C816    1.384   1_554 S
N327   Zn337   2.046   .     S
N328   Zn338   2.046   .     S
O329   Zn337   1.999   .     S
O330   Zn338   1.999   .     S
O331   Zn337   1.997   .     S
O332   Zn338   1.997   .     S
O333   Zn337   2.015   .     S
O334   Zn338   2.015   .     S
O335   Zn337   2.016   .     S
O336   Zn338   2.016   .     S
C349   O387    1.298   .     A
C349   O390    1.297   .     A
C349   C358    1.421   .     S
C350   C357    1.421   .     S
C350   O389    1.297   .     A
C350   O388    1.298   .     A
C351   H379    1.079   .     S
C351   C376    1.399   .     A
C351   C899    1.384   1_554 S
C352   H380    1.079   .     S
C352   C375    1.399   .     A
C352   C900    1.384   .     S
C353   C358    1.397   .     A
C353   H381    1.083   .     S
C353   C471    1.367   1_455 S
C354   C357    1.397   .     A
C354   H382    1.083   .     S
C354   C414    1.367   .     S
C355   C357    1.397   .     A
C355   H383    1.082   .     S
C355   C411    1.367   .     S
C356   H384    1.082   .     S
C356   C358    1.397   .     A
C356   C470    1.367   1_455 S
C359   N386    1.376   .     A
C359   I403    2.124   .     S
C360   I404    2.124   .     S
C360   N385    1.376   .     A
C360   C13     1.430   1_565 S
C361   N386    1.375   .     A
C361   I405    2.125   .     S
C362   N385    1.375   .     A
C362   I406    2.125   .     S
C362   C11     1.430   1_565 S
C363   O391    1.299   .     A
C363   C368    1.430   .     S
C363   O394    1.299   .     A
C364   O393    1.299   .     A
C364   O392    1.299   .     A
C364   C367    1.430   .     S
C365   C375    1.396   .     A
C365   I397    2.151   .     S
C365   C367    1.401   .     A
C366   C368    1.401   .     A
C366   C376    1.396   .     A
C366   I398    2.151   .     S
C367   C369    1.400   .     A
C368   C370    1.400   .     A
C369   C371    1.401   .     A
C369   I399    2.149   .     S
C370   I400    2.149   .     S
C370   C372    1.401   .     A
C371   C377    1.413   .     A
C371   C373    1.421   .     A
C372   C378    1.413   .     A
C372   C374    1.421   .     A
C373   C375    1.414   .     A
C373   C896    1.405   .     S
C374   C376    1.414   .     A
C374   C895    1.405   1_554 S
C377   I401    2.135   .     S
C377   C873    1.384   .     S
C378   I402    2.135   .     S
C378   C874    1.384   1_554 S
N385   Zn395   2.046   .     S
N386   Zn396   2.046   .     S
O387   Zn395   1.999   .     S
O388   Zn396   1.999   .     S
O389   Zn395   1.997   .     S
O390   Zn396   1.997   .     S
O391   Zn395   2.015   .     S
O392   Zn396   2.015   .     S
O393   Zn395   2.016   .     S
O394   Zn396   2.016   .     S
C407   O445    1.298   .     A
C407   O448    1.297   .     A
C407   C416    1.421   .     S
C408   C415    1.421   .     S
C408   O447    1.297   .     A
C408   O446    1.298   .     A
C409   H437    1.079   .     S
C409   C434    1.399   .     A
C409   C957    1.384   1_554 S
C410   H438    1.079   .     S
C410   C433    1.399   .     A
C410   C958    1.384   .     S
C411   C416    1.397   .     A
C411   H439    1.083   .     S
C412   C415    1.397   .     A
C412   H440    1.083   .     S
C412   C472    1.367   .     S
C413   C415    1.397   .     A
C413   H441    1.082   .     S
C413   C469    1.367   .     S
C414   H442    1.082   .     S
C414   C416    1.397   .     A
C417   N444    1.376   .     A
C417   I461    2.124   .     S
C418   I462    2.124   .     S
C418   N443    1.376   .     A
C418   C71     1.430   1_565 S
C419   N444    1.375   .     A
C419   I463    2.125   .     S
C420   N443    1.375   .     A
C420   I464    2.125   .     S
C420   C69     1.430   1_565 S
C421   O449    1.299   .     A
C421   C426    1.430   .     S
C421   O452    1.299   .     A
C422   O451    1.299   .     A
C422   O450    1.299   .     A
C422   C425    1.430   .     S
C423   C433    1.396   .     A
C423   I455    2.151   .     S
C423   C425    1.401   .     A
C424   C426    1.401   .     A
C424   C434    1.396   .     A
C424   I456    2.151   .     S
C425   C427    1.400   .     A
C426   C428    1.400   .     A
C427   C429    1.401   .     A
C427   I457    2.149   .     S
C428   I458    2.149   .     S
C428   C430    1.401   .     A
C429   C435    1.413   .     A
C429   C431    1.421   .     A
C430   C436    1.413   .     A
C430   C432    1.421   .     A
C431   C433    1.414   .     A
C431   C954    1.405   .     S
C432   C434    1.414   .     A
C432   C953    1.405   1_554 S
C435   I459    2.135   .     S
C435   C931    1.384   .     S
C436   I460    2.135   .     S
C436   C932    1.384   1_554 S
N443   Zn453   2.046   .     S
N444   Zn454   2.046   .     S
O445   Zn453   1.999   .     S
O446   Zn454   1.999   .     S
O447   Zn453   1.997   .     S
O448   Zn454   1.997   .     S
O449   Zn453   2.015   .     S
O450   Zn454   2.015   .     S
O451   Zn453   2.016   .     S
O452   Zn454   2.016   .     S
C465   O503    1.298   .     A
C465   O506    1.297   .     A
C465   C474    1.421   .     S
C466   C473    1.421   .     S
C466   O505    1.297   .     A
C466   O504    1.298   .     A
C467   H495    1.079   .     S
C467   C492    1.399   .     A
C467   C1015   1.384   1_554 S
C468   H496    1.079   .     S
C468   C491    1.399   .     A
C468   C1016   1.384   .     S
C469   C474    1.397   .     A
C469   H497    1.083   .     S
C470   C473    1.397   .     A
C470   H498    1.083   .     S
C470   C356    1.367   1_655 S
C471   C473    1.397   .     A
C471   H499    1.082   .     S
C471   C353    1.367   1_655 S
C472   H500    1.082   .     S
C472   C474    1.397   .     A
C475   N502    1.376   .     A
C475   I519    2.124   .     S
C476   I520    2.124   .     S
C476   N501    1.376   .     A
C476   C129    1.430   1_565 S
C477   N502    1.375   .     A
C477   I521    2.125   .     S
C478   N501    1.375   .     A
C478   I522    2.125   .     S
C478   C127    1.430   1_565 S
C479   O507    1.299   .     A
C479   C484    1.430   .     S
C479   O510    1.299   .     A
C480   O509    1.299   .     A
C480   O508    1.299   .     A
C480   C483    1.430   .     S
C481   C491    1.396   .     A
C481   I513    2.151   .     S
C481   C483    1.401   .     A
C482   C484    1.401   .     A
C482   C492    1.396   .     A
C482   I514    2.151   .     S
C483   C485    1.400   .     A
C484   C486    1.400   .     A
C485   C487    1.401   .     A
C485   I515    2.149   .     S
C486   I516    2.149   .     S
C486   C488    1.401   .     A
C487   C493    1.413   .     A
C487   C489    1.421   .     A
C488   C494    1.413   .     A
C488   C490    1.421   .     A
C489   C491    1.414   .     A
C489   C1012   1.405   .     S
C490   C492    1.414   .     A
C490   C1011   1.405   1_554 S
C493   I517    2.135   .     S
C493   C989    1.384   .     S
C494   I518    2.135   .     S
C494   C990    1.384   1_554 S
N501   Zn511   2.046   .     S
N502   Zn512   2.046   .     S
O503   Zn511   1.999   .     S
O504   Zn512   1.999   .     S
O505   Zn511   1.997   .     S
O506   Zn512   1.997   .     S
O507   Zn511   2.015   .     S
O508   Zn512   2.015   .     S
O509   Zn511   2.016   .     S
O510   Zn512   2.016   .     S
C523   O561    1.298   .     A
C523   O564    1.297   .     A
C523   C532    1.421   .     S
C524   C531    1.421   .     S
C524   O563    1.297   .     A
C524   O562    1.298   .     A
C525   H553    1.079   .     S
C525   C550    1.399   .     A
C526   H554    1.079   .     S
C526   C549    1.399   .     A
C526   C30     1.384   1_556 S
C527   C532    1.397   .     A
C527   H555    1.083   .     S
C527   C645    1.367   1_455 S
C528   C531    1.397   .     A
C528   H556    1.083   .     S
C528   C588    1.367   .     S
C529   C531    1.397   .     A
C529   H557    1.082   .     S
C529   C585    1.367   .     S
C530   H558    1.082   .     S
C530   C532    1.397   .     A
C530   C644    1.367   1_455 S
C533   N560    1.376   .     A
C533   I577    2.124   .     S
C533   C884    1.430   1_545 S
C534   I578    2.124   .     S
C534   N559    1.376   .     A
C534   C709    1.430   .     S
C535   N560    1.375   .     A
C535   I579    2.125   .     S
C535   C882    1.430   1_545 S
C536   N559    1.375   .     A
C536   I580    2.125   .     S
C536   C707    1.430   .     S
C537   O565    1.299   .     A
C537   C542    1.430   .     S
C537   O568    1.299   .     A
C538   O567    1.299   .     A
C538   O566    1.299   .     A
C538   C541    1.430   .     S
C539   C549    1.396   .     A
C539   I571    2.151   .     S
C539   C541    1.401   .     A
C540   C542    1.401   .     A
C540   C550    1.396   .     A
C540   I572    2.151   .     S
C541   C543    1.400   .     A
C542   C544    1.400   .     A
C543   C545    1.401   .     A
C543   I573    2.149   .     S
C544   I574    2.149   .     S
C544   C546    1.401   .     A
C545   C551    1.413   .     A
C545   C547    1.421   .     A
C546   C552    1.413   .     A
C546   C548    1.421   .     A
C547   C549    1.414   .     A
C547   C26     1.405   1_556 S
C548   C550    1.414   .     A
C551   I575    2.135   .     S
C551   C3      1.384   1_556 S
C552   I576    2.135   .     S
N559   Zn569   2.046   .     S
N560   Zn570   2.046   .     S
O561   Zn569   1.999   .     S
O562   Zn570   1.999   .     S
O563   Zn569   1.997   .     S
O564   Zn570   1.997   .     S
O565   Zn569   2.015   .     S
O566   Zn570   2.015   .     S
O567   Zn569   2.016   .     S
O568   Zn570   2.016   .     S
C581   O619    1.298   .     A
C581   O622    1.297   .     A
C581   C590    1.421   .     S
C582   C589    1.421   .     S
C582   O621    1.297   .     A
C582   O620    1.298   .     A
C583   H611    1.079   .     S
C583   C608    1.399   .     A
C584   H612    1.079   .     S
C584   C607    1.399   .     A
C584   C88     1.384   1_556 S
C585   C590    1.397   .     A
C585   H613    1.083   .     S
C586   C589    1.397   .     A
C586   H614    1.083   .     S
C586   C646    1.367   .     S
C587   C589    1.397   .     A
C587   H615    1.082   .     S
C587   C643    1.367   .     S
C588   H616    1.082   .     S
C588   C590    1.397   .     A
C591   N618    1.376   .     A
C591   I635    2.124   .     S
C591   C942    1.430   1_545 S
C592   I636    2.124   .     S
C592   N617    1.376   .     A
C592   C767    1.430   .     S
C593   N618    1.375   .     A
C593   I637    2.125   .     S
C593   C940    1.430   1_545 S
C594   N617    1.375   .     A
C594   I638    2.125   .     S
C594   C765    1.430   .     S
C595   O623    1.299   .     A
C595   C600    1.430   .     S
C595   O626    1.299   .     A
C596   O625    1.299   .     A
C596   O624    1.299   .     A
C596   C599    1.430   .     S
C597   C607    1.396   .     A
C597   I629    2.151   .     S
C597   C599    1.401   .     A
C598   C600    1.401   .     A
C598   C608    1.396   .     A
C598   I630    2.151   .     S
C599   C601    1.400   .     A
C600   C602    1.400   .     A
C601   C603    1.401   .     A
C601   I631    2.149   .     S
C602   I632    2.149   .     S
C602   C604    1.401   .     A
C603   C609    1.413   .     A
C603   C605    1.421   .     A
C604   C610    1.413   .     A
C604   C606    1.421   .     A
C605   C607    1.414   .     A
C605   C84     1.405   1_556 S
C606   C608    1.414   .     A
C609   I633    2.135   .     S
C609   C61     1.384   1_556 S
C610   I634    2.135   .     S
N617   Zn627   2.046   .     S
N618   Zn628   2.046   .     S
O619   Zn627   1.999   .     S
O620   Zn628   1.999   .     S
O621   Zn627   1.997   .     S
O622   Zn628   1.997   .     S
O623   Zn627   2.015   .     S
O624   Zn628   2.015   .     S
O625   Zn627   2.016   .     S
O626   Zn628   2.016   .     S
C639   O677    1.298   .     A
C639   O680    1.297   .     A
C639   C648    1.421   .     S
C640   C647    1.421   .     S
C640   O679    1.297   .     A
C640   O678    1.298   .     A
C641   H669    1.079   .     S
C641   C666    1.399   .     A
C642   H670    1.079   .     S
C642   C665    1.399   .     A
C642   C146    1.384   1_556 S
C643   C648    1.397   .     A
C643   H671    1.083   .     S
C644   C647    1.397   .     A
C644   H672    1.083   .     S
C644   C530    1.367   1_655 S
C645   C647    1.397   .     A
C645   H673    1.082   .     S
C645   C527    1.367   1_655 S
C646   H674    1.082   .     S
C646   C648    1.397   .     A
C649   N676    1.376   .     A
C649   I693    2.124   .     S
C649   C1000   1.430   1_545 S
C650   I694    2.124   .     S
C650   N675    1.376   .     A
C650   C825    1.430   .     S
C651   N676    1.375   .     A
C651   I695    2.125   .     S
C651   C998    1.430   1_545 S
C652   N675    1.375   .     A
C652   I696    2.125   .     S
C652   C823    1.430   .     S
C653   O681    1.299   .     A
C653   C658    1.430   .     S
C653   O684    1.299   .     A
C654   O683    1.299   .     A
C654   O682    1.299   .     A
C654   C657    1.430   .     S
C655   C665    1.396   .     A
C655   I687    2.151   .     S
C655   C657    1.401   .     A
C656   C658    1.401   .     A
C656   C666    1.396   .     A
C656   I688    2.151   .     S
C657   C659    1.400   .     A
C658   C660    1.400   .     A
C659   C661    1.401   .     A
C659   I689    2.149   .     S
C660   I690    2.149   .     S
C660   C662    1.401   .     A
C661   C667    1.413   .     A
C661   C663    1.421   .     A
C662   C668    1.413   .     A
C662   C664    1.421   .     A
C663   C665    1.414   .     A
C663   C142    1.405   1_556 S
C664   C666    1.414   .     A
C667   I691    2.135   .     S
C667   C119    1.384   1_556 S
C668   I692    2.135   .     S
N675   Zn685   2.046   .     S
N676   Zn686   2.046   .     S
O677   Zn685   1.999   .     S
O678   Zn686   1.999   .     S
O679   Zn685   1.997   .     S
O680   Zn686   1.997   .     S
O681   Zn685   2.015   .     S
O682   Zn686   2.015   .     S
O683   Zn685   2.016   .     S
O684   Zn686   2.016   .     S
C697   O735    1.298   .     A
C697   O738    1.297   .     A
C697   C706    1.421   .     S
C698   C705    1.421   .     S
C698   O737    1.297   .     A
C698   O736    1.298   .     A
C699   H727    1.079   .     S
C699   C724    1.399   .     A
C700   H728    1.079   .     S
C700   C723    1.399   .     A
C700   C204    1.384   1_556 S
C701   C706    1.397   .     A
C701   H729    1.083   .     S
C701   C819    1.367   1_455 S
C702   C705    1.397   .     A
C702   H730    1.083   .     S
C702   C762    1.367   .     S
C703   C705    1.397   .     A
C703   H731    1.082   .     S
C703   C759    1.367   .     S
C704   H732    1.082   .     S
C704   C706    1.397   .     A
C704   C818    1.367   1_455 S
C707   N734    1.376   .     A
C707   I751    2.124   .     S
C708   I752    2.124   .     S
C708   N733    1.376   .     A
C708   C883    1.430   .     S
C709   N734    1.375   .     A
C709   I753    2.125   .     S
C710   N733    1.375   .     A
C710   I754    2.125   .     S
C710   C881    1.430   .     S
C711   O739    1.299   .     A
C711   C716    1.430   .     S
C711   O742    1.299   .     A
C712   O741    1.299   .     A
C712   O740    1.299   .     A
C712   C715    1.430   .     S
C713   C723    1.396   .     A
C713   I745    2.151   .     S
C713   C715    1.401   .     A
C714   C716    1.401   .     A
C714   C724    1.396   .     A
C714   I746    2.151   .     S
C715   C717    1.400   .     A
C716   C718    1.400   .     A
C717   C719    1.401   .     A
C717   I747    2.149   .     S
C718   I748    2.149   .     S
C718   C720    1.401   .     A
C719   C725    1.413   .     A
C719   C721    1.421   .     A
C720   C726    1.413   .     A
C720   C722    1.421   .     A
C721   C723    1.414   .     A
C721   C200    1.405   1_556 S
C722   C724    1.414   .     A
C725   I749    2.135   .     S
C725   C177    1.384   1_556 S
C726   I750    2.135   .     S
N733   Zn743   2.046   .     S
N734   Zn744   2.046   .     S
O735   Zn743   1.999   .     S
O736   Zn744   1.999   .     S
O737   Zn743   1.997   .     S
O738   Zn744   1.997   .     S
O739   Zn743   2.015   .     S
O740   Zn744   2.015   .     S
O741   Zn743   2.016   .     S
O742   Zn744   2.016   .     S
C755   O793    1.298   .     A
C755   O796    1.297   .     A
C755   C764    1.421   .     S
C756   C763    1.421   .     S
C756   O795    1.297   .     A
C756   O794    1.298   .     A
C757   H785    1.079   .     S
C757   C782    1.399   .     A
C758   H786    1.079   .     S
C758   C781    1.399   .     A
C758   C262    1.384   1_556 S
C759   C764    1.397   .     A
C759   H787    1.083   .     S
C760   C763    1.397   .     A
C760   H788    1.083   .     S
C760   C820    1.367   .     S
C761   C763    1.397   .     A
C761   H789    1.082   .     S
C761   C817    1.367   .     S
C762   H790    1.082   .     S
C762   C764    1.397   .     A
C765   N792    1.376   .     A
C765   I809    2.124   .     S
C766   I810    2.124   .     S
C766   N791    1.376   .     A
C766   C941    1.430   .     S
C767   N792    1.375   .     A
C767   I811    2.125   .     S
C768   N791    1.375   .     A
C768   I812    2.125   .     S
C768   C939    1.430   .     S
C769   O797    1.299   .     A
C769   C774    1.430   .     S
C769   O800    1.299   .     A
C770   O799    1.299   .     A
C770   O798    1.299   .     A
C770   C773    1.430   .     S
C771   C781    1.396   .     A
C771   I803    2.151   .     S
C771   C773    1.401   .     A
C772   C774    1.401   .     A
C772   C782    1.396   .     A
C772   I804    2.151   .     S
C773   C775    1.400   .     A
C774   C776    1.400   .     A
C775   C777    1.401   .     A
C775   I805    2.149   .     S
C776   I806    2.149   .     S
C776   C778    1.401   .     A
C777   C783    1.413   .     A
C777   C779    1.421   .     A
C778   C784    1.413   .     A
C778   C780    1.421   .     A
C779   C781    1.414   .     A
C779   C258    1.405   1_556 S
C780   C782    1.414   .     A
C783   I807    2.135   .     S
C783   C235    1.384   1_556 S
C784   I808    2.135   .     S
N791   Zn801   2.046   .     S
N792   Zn802   2.046   .     S
O793   Zn801   1.999   .     S
O794   Zn802   1.999   .     S
O795   Zn801   1.997   .     S
O796   Zn802   1.997   .     S
O797   Zn801   2.015   .     S
O798   Zn802   2.015   .     S
O799   Zn801   2.016   .     S
O800   Zn802   2.016   .     S
C813   O851    1.298   .     A
C813   O854    1.297   .     A
C813   C822    1.421   .     S
C814   C821    1.421   .     S
C814   O853    1.297   .     A
C814   O852    1.298   .     A
C815   H843    1.079   .     S
C815   C840    1.399   .     A
C816   H844    1.079   .     S
C816   C839    1.399   .     A
C816   C320    1.384   1_556 S
C817   C822    1.397   .     A
C817   H845    1.083   .     S
C818   C821    1.397   .     A
C818   H846    1.083   .     S
C818   C704    1.367   1_655 S
C819   C821    1.397   .     A
C819   H847    1.082   .     S
C819   C701    1.367   1_655 S
C820   H848    1.082   .     S
C820   C822    1.397   .     A
C823   N850    1.376   .     A
C823   I867    2.124   .     S
C824   I868    2.124   .     S
C824   N849    1.376   .     A
C824   C999    1.430   .     S
C825   N850    1.375   .     A
C825   I869    2.125   .     S
C826   N849    1.375   .     A
C826   I870    2.125   .     S
C826   C997    1.430   .     S
C827   O855    1.299   .     A
C827   C832    1.430   .     S
C827   O858    1.299   .     A
C828   O857    1.299   .     A
C828   O856    1.299   .     A
C828   C831    1.430   .     S
C829   C839    1.396   .     A
C829   I861    2.151   .     S
C829   C831    1.401   .     A
C830   C832    1.401   .     A
C830   C840    1.396   .     A
C830   I862    2.151   .     S
C831   C833    1.400   .     A
C832   C834    1.400   .     A
C833   C835    1.401   .     A
C833   I863    2.149   .     S
C834   I864    2.149   .     S
C834   C836    1.401   .     A
C835   C841    1.413   .     A
C835   C837    1.421   .     A
C836   C842    1.413   .     A
C836   C838    1.421   .     A
C837   C839    1.414   .     A
C837   C316    1.405   1_556 S
C838   C840    1.414   .     A
C841   I865    2.135   .     S
C841   C293    1.384   1_556 S
C842   I866    2.135   .     S
N849   Zn859   2.046   .     S
N850   Zn860   2.046   .     S
O851   Zn859   1.999   .     S
O852   Zn860   1.999   .     S
O853   Zn859   1.997   .     S
O854   Zn860   1.997   .     S
O855   Zn859   2.015   .     S
O856   Zn860   2.015   .     S
O857   Zn859   2.016   .     S
O858   Zn860   2.016   .     S
C871   O909    1.298   .     A
C871   O912    1.297   .     A
C871   C880    1.421   .     S
C872   C879    1.421   .     S
C872   O911    1.297   .     A
C872   O910    1.298   .     A
C873   H901    1.079   .     S
C873   C898    1.399   .     A
C874   H902    1.079   .     S
C874   C897    1.399   .     A
C874   C378    1.384   1_556 S
C875   C880    1.397   .     A
C875   H903    1.083   .     S
C875   C993    1.367   1_455 S
C876   C879    1.397   .     A
C876   H904    1.083   .     S
C876   C936    1.367   .     S
C877   C879    1.397   .     A
C877   H905    1.082   .     S
C877   C933    1.367   .     S
C878   H906    1.082   .     S
C878   C880    1.397   .     A
C878   C992    1.367   1_455 S
C881   N908    1.376   .     A
C881   I925    2.124   .     S
C882   I926    2.124   .     S
C882   N907    1.376   .     A
C882   C535    1.430   1_565 S
C883   N908    1.375   .     A
C883   I927    2.125   .     S
C884   N907    1.375   .     A
C884   I928    2.125   .     S
C884   C533    1.430   1_565 S
C885   O913    1.299   .     A
C885   C890    1.430   .     S
C885   O916    1.299   .     A
C886   O915    1.299   .     A
C886   O914    1.299   .     A
C886   C889    1.430   .     S
C887   C897    1.396   .     A
C887   I919    2.151   .     S
C887   C889    1.401   .     A
C888   C890    1.401   .     A
C888   C898    1.396   .     A
C888   I920    2.151   .     S
C889   C891    1.400   .     A
C890   C892    1.400   .     A
C891   C893    1.401   .     A
C891   I921    2.149   .     S
C892   I922    2.149   .     S
C892   C894    1.401   .     A
C893   C899    1.413   .     A
C893   C895    1.421   .     A
C894   C900    1.413   .     A
C894   C896    1.421   .     A
C895   C897    1.414   .     A
C895   C374    1.405   1_556 S
C896   C898    1.414   .     A
C899   I923    2.135   .     S
C899   C351    1.384   1_556 S
C900   I924    2.135   .     S
N907   Zn917   2.046   .     S
N908   Zn918   2.046   .     S
O909   Zn917   1.999   .     S
O910   Zn918   1.999   .     S
O911   Zn917   1.997   .     S
O912   Zn918   1.997   .     S
O913   Zn917   2.015   .     S
O914   Zn918   2.015   .     S
O915   Zn917   2.016   .     S
O916   Zn918   2.016   .     S
C929   O967    1.298   .     A
C929   O970    1.297   .     A
C929   C938    1.421   .     S
C930   C937    1.421   .     S
C930   O969    1.297   .     A
C930   O968    1.298   .     A
C931   H959    1.079   .     S
C931   C956    1.399   .     A
C932   H960    1.079   .     S
C932   C955    1.399   .     A
C932   C436    1.384   1_556 S
C933   C938    1.397   .     A
C933   H961    1.083   .     S
C934   C937    1.397   .     A
C934   H962    1.083   .     S
C934   C994    1.367   .     S
C935   C937    1.397   .     A
C935   H963    1.082   .     S
C935   C991    1.367   .     S
C936   H964    1.082   .     S
C936   C938    1.397   .     A
C939   N966    1.376   .     A
C939   I983    2.124   .     S
C940   I984    2.124   .     S
C940   N965    1.376   .     A
C940   C593    1.430   1_565 S
C941   N966    1.375   .     A
C941   I985    2.125   .     S
C942   N965    1.375   .     A
C942   I986    2.125   .     S
C942   C591    1.430   1_565 S
C943   O971    1.299   .     A
C943   C948    1.430   .     S
C943   O974    1.299   .     A
C944   O973    1.299   .     A
C944   O972    1.299   .     A
C944   C947    1.430   .     S
C945   C955    1.396   .     A
C945   I977    2.151   .     S
C945   C947    1.401   .     A
C946   C948    1.401   .     A
C946   C956    1.396   .     A
C946   I978    2.151   .     S
C947   C949    1.400   .     A
C948   C950    1.400   .     A
C949   C951    1.401   .     A
C949   I979    2.149   .     S
C950   I980    2.149   .     S
C950   C952    1.401   .     A
C951   C957    1.413   .     A
C951   C953    1.421   .     A
C952   C958    1.413   .     A
C952   C954    1.421   .     A
C953   C955    1.414   .     A
C953   C432    1.405   1_556 S
C954   C956    1.414   .     A
C957   I981    2.135   .     S
C957   C409    1.384   1_556 S
C958   I982    2.135   .     S
N965   Zn975   2.046   .     S
N966   Zn976   2.046   .     S
O967   Zn975   1.999   .     S
O968   Zn976   1.999   .     S
O969   Zn975   1.997   .     S
O970   Zn976   1.997   .     S
O971   Zn975   2.015   .     S
O972   Zn976   2.015   .     S
O973   Zn975   2.016   .     S
O974   Zn976   2.016   .     S
C987   O1025   1.298   .     A
C987   O1028   1.297   .     A
C987   C996    1.421   .     S
C988   C995    1.421   .     S
C988   O1027   1.297   .     A
C988   O1026   1.298   .     A
C989   H1017   1.079   .     S
C989   C1014   1.399   .     A
C990   H1018   1.079   .     S
C990   C1013   1.399   .     A
C990   C494    1.384   1_556 S
C991   C996    1.397   .     A
C991   H1019   1.083   .     S
C992   C995    1.397   .     A
C992   H1020   1.083   .     S
C992   C878    1.367   1_655 S
C993   C995    1.397   .     A
C993   H1021   1.082   .     S
C993   C875    1.367   1_655 S
C994   H1022   1.082   .     S
C994   C996    1.397   .     A
C997   N1024   1.376   .     A
C997   I1041   2.124   .     S
C998   I1042   2.124   .     S
C998   N1023   1.376   .     A
C998   C651    1.430   1_565 S
C999   N1024   1.375   .     A
C999   I1043   2.125   .     S
C1000  N1023   1.375   .     A
C1000  I1044   2.125   .     S
C1000  C649    1.430   1_565 S
C1001  O1029   1.299   .     A
C1001  C1006   1.430   .     S
C1001  O1032   1.299   .     A
C1002  O1031   1.299   .     A
C1002  O1030   1.299   .     A
C1002  C1005   1.430   .     S
C1003  C1013   1.396   .     A
C1003  I1035   2.151   .     S
C1003  C1005   1.401   .     A
C1004  C1006   1.401   .     A
C1004  C1014   1.396   .     A
C1004  I1036   2.151   .     S
C1005  C1007   1.400   .     A
C1006  C1008   1.400   .     A
C1007  C1009   1.401   .     A
C1007  I1037   2.149   .     S
C1008  I1038   2.149   .     S
C1008  C1010   1.401   .     A
C1009  C1015   1.413   .     A
C1009  C1011   1.421   .     A
C1010  C1016   1.413   .     A
C1010  C1012   1.421   .     A
C1011  C1013   1.414   .     A
C1011  C490    1.405   1_556 S
C1012  C1014   1.414   .     A
C1015  I1039   2.135   .     S
C1015  C467    1.384   1_556 S
C1016  I1040   2.135   .     S
N1023  Zn1033  2.046   .     S
N1024  Zn1034  2.046   .     S
O1025  Zn1033  1.999   .     S
O1026  Zn1034  1.999   .     S
O1027  Zn1033  1.997   .     S
O1028  Zn1034  1.997   .     S
O1029  Zn1033  2.015   .     S
O1030  Zn1034  2.015   .     S
O1031  Zn1033  2.016   .     S
O1032  Zn1034  2.016   .     S
