data_str_m3_o1_o5_pcu_sym.27
_audit_creation_date              2020-01-03
_audit_creation_method            'Materials Studio'
_symmetry_space_group_name_H-M    'P1'
_symmetry_Int_Tables_number       1
_symmetry_cell_setting            triclinic
loop_
_symmetry_equiv_pos_as_xyz
  x,y,z
_cell_length_a                    31.9037
_cell_length_b                    29.6987
_cell_length_c                    26.7681
_cell_angle_alpha                 89.9990
_cell_angle_beta                  91.8722
_cell_angle_gamma                 90.0023
loop_
_atom_site_label
_atom_site_type_symbol
_atom_site_fract_x
_atom_site_fract_y
_atom_site_fract_z
_atom_site_U_iso_or_equiv
_atom_site_adp_type
_atom_site_occupancy
C1     C     0.08692   0.16682   0.17274   0.00000  Uiso   1.00
C2     C     0.02071   0.20889   0.17517   0.00000  Uiso   1.00
C3     C     0.29117   0.16756   0.15450   0.00000  Uiso   1.00
C4     C     0.04217   0.16755   0.17885   0.00000  Uiso   1.00
C5     C     0.19052   0.02424   0.20138   0.00000  Uiso   1.00
C6     C     0.14275   0.30919   0.13205   0.00000  Uiso   1.00
C7     C     0.14282   0.02424   0.13195   0.00000  Uiso   1.00
C8     C     0.19058   0.30919   0.20129   0.00000  Uiso   1.00
C9     C     0.25732   0.04613   0.24409   0.00000  Uiso   1.00
C10    C     0.13223   0.28405   0.04632   0.00000  Uiso   1.00
C11    C     0.07602   0.04615   0.08925   0.00000  Uiso   1.00
C12    C     0.24642   0.16683   0.16060   0.00000  Uiso   1.00
C13    C     0.20108   0.28406   0.28702   0.00000  Uiso   1.00
C14    C     0.16650   0.16666   0.07291   0.00000  Uiso   1.00
C15    C     0.16684   0.16666   0.26042   0.00000  Uiso   1.00
C16    C     0.16662   0.16661   0.02179   0.00000  Uiso   1.00
C17    C     0.16672   0.16661   0.31154   0.00000  Uiso   1.00
C18    C     0.02037   0.12671   0.17604   0.00000  Uiso   1.00
C19    C     0.31263   0.20889   0.15820   0.00000  Uiso   1.00
C20    C     0.31297   0.12671   0.15730   0.00000  Uiso   1.00
H21    H     0.19678   0.05161   0.27290   0.00000  Uiso   1.00
H22    H     0.06633   0.02944   0.05362   0.00000  Uiso   1.00
H23    H     0.06269   0.08064   0.08906   0.00000  Uiso   1.00
H24    H     0.06283   0.02700   0.12060   0.00000  Uiso   1.00
H25    H     0.24745   0.28912   0.23426   0.00000  Uiso   1.00
H26    H     0.21062   0.31512   0.30725   0.00000  Uiso   1.00
H27    H     0.21523   0.25499   0.30744   0.00000  Uiso   1.00
H28    H     0.16641   0.28072   0.28683   0.00000  Uiso   1.00
H29    H     0.26699   0.02941   0.27972   0.00000  Uiso   1.00
H30    H     0.27067   0.08062   0.24431   0.00000  Uiso   1.00
H31    H     0.27052   0.02699   0.21274   0.00000  Uiso   1.00
H32    H     0.08587   0.28912   0.09909   0.00000  Uiso   1.00
H33    H     0.12261   0.31506   0.02605   0.00000  Uiso   1.00
H34    H     0.11813   0.25491   0.02595   0.00000  Uiso   1.00
H35    H     0.16691   0.28079   0.04651   0.00000  Uiso   1.00
H36    H     0.13656   0.05150   0.06040   0.00000  Uiso   1.00
I37    I     0.04245   0.06883   0.21622   0.00000  Uiso   1.00
I38    I     0.28730   0.26990   0.12650   0.00000  Uiso   1.00
I39    I     0.29088   0.06884   0.11711   0.00000  Uiso   1.00
I40    I     0.04605   0.26988   0.20690   0.00000  Uiso   1.00
N41    N     0.16667   0.28573   0.16667   0.00000  Uiso   1.00
N42    N     0.16667   0.04760   0.16667   0.00000  Uiso   1.00
N43    N     0.21207   0.04904   0.23970   0.00000  Uiso   1.00
N44    N     0.11771   0.28441   0.09686   0.00000  Uiso   1.00
N45    N     0.12128   0.04904   0.09362   0.00000  Uiso   1.00
N46    N     0.21561   0.28441   0.23649   0.00000  Uiso   1.00
O47    O     0.10559   0.20487   0.16666   0.00000  Uiso   1.00
O48    O     0.22774   0.12846   0.16667   0.00000  Uiso   1.00
O49    O     0.22774   0.20487   0.16667   0.00000  Uiso   1.00
O50    O     0.10559   0.12846   0.16666   0.00000  Uiso   1.00
O51    O     0.16667   0.20488   0.09511   0.00000  Uiso   1.00
O52    O     0.16666   0.12845   0.23822   0.00000  Uiso   1.00
O53    O     0.16666   0.20488   0.23822   0.00000  Uiso   1.00
O54    O     0.16667   0.12845   0.09511   0.00000  Uiso   1.00
Zn55   Zn    0.16667   0.21771   0.16667   0.00000  Uiso   1.00
Zn56   Zn    0.16667   0.11563   0.16667   0.00000  Uiso   1.00
C57    C     0.42025   0.16682   0.17274   0.00000  Uiso   1.00
C58    C     0.35404   0.20889   0.17517   0.00000  Uiso   1.00
C59    C     0.62450   0.16756   0.15450   0.00000  Uiso   1.00
C60    C     0.37550   0.16755   0.17885   0.00000  Uiso   1.00
C61    C     0.52385   0.02424   0.20138   0.00000  Uiso   1.00
C62    C     0.47609   0.30919   0.13205   0.00000  Uiso   1.00
C63    C     0.47615   0.02424   0.13195   0.00000  Uiso   1.00
C64    C     0.52391   0.30919   0.20129   0.00000  Uiso   1.00
C65    C     0.59066   0.04613   0.24409   0.00000  Uiso   1.00
C66    C     0.46556   0.28405   0.04632   0.00000  Uiso   1.00
C67    C     0.40935   0.04615   0.08925   0.00000  Uiso   1.00
C68    C     0.57975   0.16683   0.16060   0.00000  Uiso   1.00
C69    C     0.53441   0.28406   0.28702   0.00000  Uiso   1.00
C70    C     0.49983   0.16666   0.07291   0.00000  Uiso   1.00
C71    C     0.50017   0.16666   0.26042   0.00000  Uiso   1.00
C72    C     0.49995   0.16661   0.02179   0.00000  Uiso   1.00
C73    C     0.50005   0.16661   0.31154   0.00000  Uiso   1.00
C74    C     0.35370   0.12671   0.17604   0.00000  Uiso   1.00
C75    C     0.64596   0.20889   0.15820   0.00000  Uiso   1.00
C76    C     0.64630   0.12671   0.15730   0.00000  Uiso   1.00
H77    H     0.53011   0.05161   0.27290   0.00000  Uiso   1.00
H78    H     0.39966   0.02944   0.05362   0.00000  Uiso   1.00
H79    H     0.39602   0.08064   0.08906   0.00000  Uiso   1.00
H80    H     0.39616   0.02700   0.12060   0.00000  Uiso   1.00
H81    H     0.58079   0.28912   0.23426   0.00000  Uiso   1.00
H82    H     0.54395   0.31512   0.30725   0.00000  Uiso   1.00
H83    H     0.54856   0.25499   0.30744   0.00000  Uiso   1.00
H84    H     0.49974   0.28072   0.28683   0.00000  Uiso   1.00
H85    H     0.60033   0.02941   0.27972   0.00000  Uiso   1.00
H86    H     0.60401   0.08062   0.24431   0.00000  Uiso   1.00
H87    H     0.60385   0.02699   0.21274   0.00000  Uiso   1.00
H88    H     0.41920   0.28912   0.09909   0.00000  Uiso   1.00
H89    H     0.45594   0.31506   0.02605   0.00000  Uiso   1.00
H90    H     0.45147   0.25491   0.02595   0.00000  Uiso   1.00
H91    H     0.50024   0.28079   0.04651   0.00000  Uiso   1.00
H92    H     0.46989   0.05150   0.06040   0.00000  Uiso   1.00
I93    I     0.37579   0.06883   0.21622   0.00000  Uiso   1.00
I94    I     0.62064   0.26990   0.12650   0.00000  Uiso   1.00
I95    I     0.62421   0.06884   0.11711   0.00000  Uiso   1.00
I96    I     0.37938   0.26988   0.20690   0.00000  Uiso   1.00
N97    N     0.50000   0.28573   0.16667   0.00000  Uiso   1.00
N98    N     0.50000   0.04760   0.16667   0.00000  Uiso   1.00
N99    N     0.54540   0.04904   0.23970   0.00000  Uiso   1.00
N100   N     0.45104   0.28441   0.09686   0.00000  Uiso   1.00
N101   N     0.45461   0.04904   0.09362   0.00000  Uiso   1.00
N102   N     0.54895   0.28441   0.23649   0.00000  Uiso   1.00
O103   O     0.43892   0.20487   0.16666   0.00000  Uiso   1.00
O104   O     0.56108   0.12846   0.16667   0.00000  Uiso   1.00
O105   O     0.56108   0.20487   0.16667   0.00000  Uiso   1.00
O106   O     0.43892   0.12846   0.16666   0.00000  Uiso   1.00
O107   O     0.50000   0.20488   0.09511   0.00000  Uiso   1.00
O108   O     0.50000   0.12845   0.23822   0.00000  Uiso   1.00
O109   O     0.50000   0.20488   0.23822   0.00000  Uiso   1.00
O110   O     0.50000   0.12845   0.09511   0.00000  Uiso   1.00
Zn111  Zn    0.50000   0.21771   0.16667   0.00000  Uiso   1.00
Zn112  Zn    0.50000   0.11563   0.16667   0.00000  Uiso   1.00
C113   C     0.75358   0.16682   0.17274   0.00000  Uiso   1.00
C114   C     0.68738   0.20889   0.17517   0.00000  Uiso   1.00
C115   C     0.95784   0.16756   0.15450   0.00000  Uiso   1.00
C116   C     0.70883   0.16755   0.17885   0.00000  Uiso   1.00
C117   C     0.85718   0.02424   0.20138   0.00000  Uiso   1.00
C118   C     0.80942   0.30919   0.13205   0.00000  Uiso   1.00
C119   C     0.80948   0.02424   0.13195   0.00000  Uiso   1.00
C120   C     0.85725   0.30919   0.20129   0.00000  Uiso   1.00
C121   C     0.92399   0.04613   0.24409   0.00000  Uiso   1.00
C122   C     0.79890   0.28405   0.04632   0.00000  Uiso   1.00
C123   C     0.74269   0.04615   0.08925   0.00000  Uiso   1.00
C124   C     0.91308   0.16683   0.16060   0.00000  Uiso   1.00
C125   C     0.86775   0.28406   0.28702   0.00000  Uiso   1.00
C126   C     0.83317   0.16666   0.07291   0.00000  Uiso   1.00
C127   C     0.83350   0.16666   0.26042   0.00000  Uiso   1.00
C128   C     0.83328   0.16661   0.02179   0.00000  Uiso   1.00
C129   C     0.83339   0.16661   0.31154   0.00000  Uiso   1.00
C130   C     0.68703   0.12671   0.17604   0.00000  Uiso   1.00
C131   C     0.97930   0.20889   0.15820   0.00000  Uiso   1.00
C132   C     0.97963   0.12671   0.15730   0.00000  Uiso   1.00
H133   H     0.86344   0.05161   0.27290   0.00000  Uiso   1.00
H134   H     0.73299   0.02944   0.05362   0.00000  Uiso   1.00
H135   H     0.72935   0.08064   0.08906   0.00000  Uiso   1.00
H136   H     0.72950   0.02700   0.12060   0.00000  Uiso   1.00
H137   H     0.91412   0.28912   0.23426   0.00000  Uiso   1.00
H138   H     0.87729   0.31512   0.30725   0.00000  Uiso   1.00
H139   H     0.88190   0.25499   0.30744   0.00000  Uiso   1.00
H140   H     0.83308   0.28072   0.28683   0.00000  Uiso   1.00
H141   H     0.93366   0.02941   0.27972   0.00000  Uiso   1.00
H142   H     0.93734   0.08062   0.24431   0.00000  Uiso   1.00
H143   H     0.93718   0.02699   0.21274   0.00000  Uiso   1.00
H144   H     0.75253   0.28912   0.09909   0.00000  Uiso   1.00
H145   H     0.78928   0.31506   0.02605   0.00000  Uiso   1.00
H146   H     0.78480   0.25491   0.02595   0.00000  Uiso   1.00
H147   H     0.83358   0.28079   0.04651   0.00000  Uiso   1.00
H148   H     0.80322   0.05150   0.06040   0.00000  Uiso   1.00
I149   I     0.70912   0.06883   0.21622   0.00000  Uiso   1.00
I150   I     0.95397   0.26990   0.12650   0.00000  Uiso   1.00
I151   I     0.95754   0.06884   0.11711   0.00000  Uiso   1.00
I152   I     0.71272   0.26988   0.20690   0.00000  Uiso   1.00
N153   N     0.83333   0.28573   0.16667   0.00000  Uiso   1.00
N154   N     0.83333   0.04760   0.16667   0.00000  Uiso   1.00
N155   N     0.87874   0.04904   0.23970   0.00000  Uiso   1.00
N156   N     0.78437   0.28441   0.09686   0.00000  Uiso   1.00
N157   N     0.78794   0.04904   0.09362   0.00000  Uiso   1.00
N158   N     0.88228   0.28441   0.23649   0.00000  Uiso   1.00
O159   O     0.77226   0.20487   0.16666   0.00000  Uiso   1.00
O160   O     0.89441   0.12846   0.16667   0.00000  Uiso   1.00
O161   O     0.89441   0.20487   0.16667   0.00000  Uiso   1.00
O162   O     0.77226   0.12846   0.16666   0.00000  Uiso   1.00
O163   O     0.83334   0.20488   0.09511   0.00000  Uiso   1.00
O164   O     0.83333   0.12845   0.23822   0.00000  Uiso   1.00
O165   O     0.83333   0.20488   0.23822   0.00000  Uiso   1.00
O166   O     0.83334   0.12845   0.09511   0.00000  Uiso   1.00
Zn167  Zn    0.83333   0.21771   0.16667   0.00000  Uiso   1.00
Zn168  Zn    0.83333   0.11563   0.16667   0.00000  Uiso   1.00
C169   C     0.08692   0.50016   0.17274   0.00000  Uiso   1.00
C170   C     0.02071   0.54222   0.17517   0.00000  Uiso   1.00
C171   C     0.29117   0.50089   0.15450   0.00000  Uiso   1.00
C172   C     0.04217   0.50089   0.17885   0.00000  Uiso   1.00
C173   C     0.19052   0.35757   0.20138   0.00000  Uiso   1.00
C174   C     0.14275   0.64252   0.13205   0.00000  Uiso   1.00
C175   C     0.14282   0.35757   0.13195   0.00000  Uiso   1.00
C176   C     0.19058   0.64252   0.20129   0.00000  Uiso   1.00
C177   C     0.25732   0.37947   0.24409   0.00000  Uiso   1.00
C178   C     0.13223   0.61738   0.04632   0.00000  Uiso   1.00
C179   C     0.07602   0.37948   0.08925   0.00000  Uiso   1.00
C180   C     0.24642   0.50016   0.16060   0.00000  Uiso   1.00
C181   C     0.20108   0.61740   0.28702   0.00000  Uiso   1.00
C182   C     0.16650   0.49999   0.07291   0.00000  Uiso   1.00
C183   C     0.16684   0.49999   0.26042   0.00000  Uiso   1.00
C184   C     0.16662   0.49995   0.02179   0.00000  Uiso   1.00
C185   C     0.16672   0.49995   0.31154   0.00000  Uiso   1.00
C186   C     0.02037   0.46004   0.17604   0.00000  Uiso   1.00
C187   C     0.31263   0.54223   0.15820   0.00000  Uiso   1.00
C188   C     0.31297   0.46004   0.15730   0.00000  Uiso   1.00
H189   H     0.19678   0.38494   0.27290   0.00000  Uiso   1.00
H190   H     0.06633   0.36277   0.05362   0.00000  Uiso   1.00
H191   H     0.06269   0.41397   0.08906   0.00000  Uiso   1.00
H192   H     0.06283   0.36033   0.12060   0.00000  Uiso   1.00
H193   H     0.24745   0.62245   0.23426   0.00000  Uiso   1.00
H194   H     0.21062   0.64846   0.30725   0.00000  Uiso   1.00
H195   H     0.21523   0.58832   0.30744   0.00000  Uiso   1.00
H196   H     0.16641   0.61406   0.28683   0.00000  Uiso   1.00
H197   H     0.26699   0.36274   0.27972   0.00000  Uiso   1.00
H198   H     0.27067   0.41396   0.24431   0.00000  Uiso   1.00
H199   H     0.27052   0.36033   0.21274   0.00000  Uiso   1.00
H200   H     0.08587   0.62245   0.09909   0.00000  Uiso   1.00
H201   H     0.12261   0.64840   0.02605   0.00000  Uiso   1.00
H202   H     0.11813   0.58824   0.02595   0.00000  Uiso   1.00
H203   H     0.16691   0.61413   0.04651   0.00000  Uiso   1.00
H204   H     0.13656   0.38484   0.06040   0.00000  Uiso   1.00
I205   I     0.04245   0.40217   0.21622   0.00000  Uiso   1.00
I206   I     0.28730   0.60323   0.12650   0.00000  Uiso   1.00
I207   I     0.29088   0.40217   0.11711   0.00000  Uiso   1.00
I208   I     0.04605   0.60322   0.20690   0.00000  Uiso   1.00
N209   N     0.16667   0.61907   0.16667   0.00000  Uiso   1.00
N210   N     0.16667   0.38093   0.16667   0.00000  Uiso   1.00
N211   N     0.21207   0.38238   0.23970   0.00000  Uiso   1.00
N212   N     0.11771   0.61774   0.09686   0.00000  Uiso   1.00
N213   N     0.12128   0.38237   0.09362   0.00000  Uiso   1.00
N214   N     0.21561   0.61774   0.23649   0.00000  Uiso   1.00
O215   O     0.10559   0.53821   0.16666   0.00000  Uiso   1.00
O216   O     0.22774   0.46179   0.16667   0.00000  Uiso   1.00
O217   O     0.22774   0.53821   0.16667   0.00000  Uiso   1.00
O218   O     0.10559   0.46179   0.16666   0.00000  Uiso   1.00
O219   O     0.16667   0.53821   0.09511   0.00000  Uiso   1.00
O220   O     0.16666   0.46179   0.23822   0.00000  Uiso   1.00
O221   O     0.16666   0.53821   0.23822   0.00000  Uiso   1.00
O222   O     0.16667   0.46179   0.09511   0.00000  Uiso   1.00
Zn223  Zn    0.16667   0.55104   0.16667   0.00000  Uiso   1.00
Zn224  Zn    0.16667   0.44896   0.16667   0.00000  Uiso   1.00
C225   C     0.42025   0.50016   0.17274   0.00000  Uiso   1.00
C226   C     0.35404   0.54222   0.17517   0.00000  Uiso   1.00
C227   C     0.62450   0.50089   0.15450   0.00000  Uiso   1.00
C228   C     0.37550   0.50089   0.17885   0.00000  Uiso   1.00
C229   C     0.52385   0.35757   0.20138   0.00000  Uiso   1.00
C230   C     0.47609   0.64252   0.13205   0.00000  Uiso   1.00
C231   C     0.47615   0.35757   0.13195   0.00000  Uiso   1.00
C232   C     0.52391   0.64252   0.20129   0.00000  Uiso   1.00
C233   C     0.59066   0.37947   0.24409   0.00000  Uiso   1.00
C234   C     0.46556   0.61738   0.04632   0.00000  Uiso   1.00
C235   C     0.40935   0.37948   0.08925   0.00000  Uiso   1.00
C236   C     0.57975   0.50016   0.16060   0.00000  Uiso   1.00
C237   C     0.53441   0.61740   0.28702   0.00000  Uiso   1.00
C238   C     0.49983   0.49999   0.07291   0.00000  Uiso   1.00
C239   C     0.50017   0.49999   0.26042   0.00000  Uiso   1.00
C240   C     0.49995   0.49995   0.02179   0.00000  Uiso   1.00
C241   C     0.50005   0.49995   0.31154   0.00000  Uiso   1.00
C242   C     0.35370   0.46004   0.17604   0.00000  Uiso   1.00
C243   C     0.64596   0.54223   0.15820   0.00000  Uiso   1.00
C244   C     0.64630   0.46004   0.15730   0.00000  Uiso   1.00
H245   H     0.53011   0.38494   0.27290   0.00000  Uiso   1.00
H246   H     0.39966   0.36277   0.05362   0.00000  Uiso   1.00
H247   H     0.39602   0.41397   0.08906   0.00000  Uiso   1.00
H248   H     0.39616   0.36033   0.12060   0.00000  Uiso   1.00
H249   H     0.58079   0.62245   0.23426   0.00000  Uiso   1.00
H250   H     0.54395   0.64846   0.30725   0.00000  Uiso   1.00
H251   H     0.54856   0.58832   0.30744   0.00000  Uiso   1.00
H252   H     0.49974   0.61406   0.28683   0.00000  Uiso   1.00
H253   H     0.60033   0.36274   0.27972   0.00000  Uiso   1.00
H254   H     0.60401   0.41396   0.24431   0.00000  Uiso   1.00
H255   H     0.60385   0.36033   0.21274   0.00000  Uiso   1.00
H256   H     0.41920   0.62245   0.09909   0.00000  Uiso   1.00
H257   H     0.45594   0.64840   0.02605   0.00000  Uiso   1.00
H258   H     0.45147   0.58824   0.02595   0.00000  Uiso   1.00
H259   H     0.50024   0.61413   0.04651   0.00000  Uiso   1.00
H260   H     0.46989   0.38484   0.06040   0.00000  Uiso   1.00
I261   I     0.37579   0.40217   0.21622   0.00000  Uiso   1.00
I262   I     0.62064   0.60323   0.12650   0.00000  Uiso   1.00
I263   I     0.62421   0.40217   0.11711   0.00000  Uiso   1.00
I264   I     0.37938   0.60322   0.20690   0.00000  Uiso   1.00
N265   N     0.50000   0.61907   0.16667   0.00000  Uiso   1.00
N266   N     0.50000   0.38093   0.16667   0.00000  Uiso   1.00
N267   N     0.54540   0.38238   0.23970   0.00000  Uiso   1.00
N268   N     0.45104   0.61774   0.09686   0.00000  Uiso   1.00
N269   N     0.45461   0.38237   0.09362   0.00000  Uiso   1.00
N270   N     0.54895   0.61774   0.23649   0.00000  Uiso   1.00
O271   O     0.43892   0.53821   0.16666   0.00000  Uiso   1.00
O272   O     0.56108   0.46179   0.16667   0.00000  Uiso   1.00
O273   O     0.56108   0.53821   0.16667   0.00000  Uiso   1.00
O274   O     0.43892   0.46179   0.16666   0.00000  Uiso   1.00
O275   O     0.50000   0.53821   0.09511   0.00000  Uiso   1.00
O276   O     0.50000   0.46179   0.23822   0.00000  Uiso   1.00
O277   O     0.50000   0.53821   0.23822   0.00000  Uiso   1.00
O278   O     0.50000   0.46179   0.09511   0.00000  Uiso   1.00
Zn279  Zn    0.50000   0.55104   0.16667   0.00000  Uiso   1.00
Zn280  Zn    0.50000   0.44896   0.16667   0.00000  Uiso   1.00
C281   C     0.75358   0.50016   0.17274   0.00000  Uiso   1.00
C282   C     0.68738   0.54222   0.17517   0.00000  Uiso   1.00
C283   C     0.95784   0.50089   0.15450   0.00000  Uiso   1.00
C284   C     0.70883   0.50089   0.17885   0.00000  Uiso   1.00
C285   C     0.85718   0.35757   0.20138   0.00000  Uiso   1.00
C286   C     0.80942   0.64252   0.13205   0.00000  Uiso   1.00
C287   C     0.80948   0.35757   0.13195   0.00000  Uiso   1.00
C288   C     0.85725   0.64252   0.20129   0.00000  Uiso   1.00
C289   C     0.92399   0.37947   0.24409   0.00000  Uiso   1.00
C290   C     0.79890   0.61738   0.04632   0.00000  Uiso   1.00
C291   C     0.74269   0.37948   0.08925   0.00000  Uiso   1.00
C292   C     0.91308   0.50016   0.16060   0.00000  Uiso   1.00
C293   C     0.86775   0.61740   0.28702   0.00000  Uiso   1.00
C294   C     0.83317   0.49999   0.07291   0.00000  Uiso   1.00
C295   C     0.83350   0.49999   0.26042   0.00000  Uiso   1.00
C296   C     0.83328   0.49995   0.02179   0.00000  Uiso   1.00
C297   C     0.83339   0.49995   0.31154   0.00000  Uiso   1.00
C298   C     0.68703   0.46004   0.17604   0.00000  Uiso   1.00
C299   C     0.97930   0.54223   0.15820   0.00000  Uiso   1.00
C300   C     0.97963   0.46004   0.15730   0.00000  Uiso   1.00
H301   H     0.86344   0.38494   0.27290   0.00000  Uiso   1.00
H302   H     0.73299   0.36277   0.05362   0.00000  Uiso   1.00
H303   H     0.72935   0.41397   0.08906   0.00000  Uiso   1.00
H304   H     0.72950   0.36033   0.12060   0.00000  Uiso   1.00
H305   H     0.91412   0.62245   0.23426   0.00000  Uiso   1.00
H306   H     0.87729   0.64846   0.30725   0.00000  Uiso   1.00
H307   H     0.88190   0.58832   0.30744   0.00000  Uiso   1.00
H308   H     0.83308   0.61406   0.28683   0.00000  Uiso   1.00
H309   H     0.93366   0.36274   0.27972   0.00000  Uiso   1.00
H310   H     0.93734   0.41396   0.24431   0.00000  Uiso   1.00
H311   H     0.93718   0.36033   0.21274   0.00000  Uiso   1.00
H312   H     0.75253   0.62245   0.09909   0.00000  Uiso   1.00
H313   H     0.78928   0.64840   0.02605   0.00000  Uiso   1.00
H314   H     0.78480   0.58824   0.02595   0.00000  Uiso   1.00
H315   H     0.83358   0.61413   0.04651   0.00000  Uiso   1.00
H316   H     0.80322   0.38484   0.06040   0.00000  Uiso   1.00
I317   I     0.70912   0.40217   0.21622   0.00000  Uiso   1.00
I318   I     0.95397   0.60323   0.12650   0.00000  Uiso   1.00
I319   I     0.95754   0.40217   0.11711   0.00000  Uiso   1.00
I320   I     0.71272   0.60322   0.20690   0.00000  Uiso   1.00
N321   N     0.83333   0.61907   0.16667   0.00000  Uiso   1.00
N322   N     0.83333   0.38093   0.16667   0.00000  Uiso   1.00
N323   N     0.87874   0.38238   0.23970   0.00000  Uiso   1.00
N324   N     0.78437   0.61774   0.09686   0.00000  Uiso   1.00
N325   N     0.78794   0.38237   0.09362   0.00000  Uiso   1.00
N326   N     0.88228   0.61774   0.23649   0.00000  Uiso   1.00
O327   O     0.77226   0.53821   0.16666   0.00000  Uiso   1.00
O328   O     0.89441   0.46179   0.16667   0.00000  Uiso   1.00
O329   O     0.89441   0.53821   0.16667   0.00000  Uiso   1.00
O330   O     0.77226   0.46179   0.16666   0.00000  Uiso   1.00
O331   O     0.83334   0.53821   0.09511   0.00000  Uiso   1.00
O332   O     0.83333   0.46179   0.23822   0.00000  Uiso   1.00
O333   O     0.83333   0.53821   0.23822   0.00000  Uiso   1.00
O334   O     0.83334   0.46179   0.09511   0.00000  Uiso   1.00
Zn335  Zn    0.83333   0.55104   0.16667   0.00000  Uiso   1.00
Zn336  Zn    0.83333   0.44896   0.16667   0.00000  Uiso   1.00
C337   C     0.08692   0.83349   0.17274   0.00000  Uiso   1.00
C338   C     0.02071   0.87556   0.17517   0.00000  Uiso   1.00
C339   C     0.29117   0.83423   0.15450   0.00000  Uiso   1.00
C340   C     0.04217   0.83422   0.17885   0.00000  Uiso   1.00
C341   C     0.19052   0.69090   0.20138   0.00000  Uiso   1.00
C342   C     0.14275   0.97585   0.13205   0.00000  Uiso   1.00
C343   C     0.14282   0.69090   0.13195   0.00000  Uiso   1.00
C344   C     0.19058   0.97585   0.20129   0.00000  Uiso   1.00
C345   C     0.25732   0.71280   0.24409   0.00000  Uiso   1.00
C346   C     0.13223   0.95071   0.04632   0.00000  Uiso   1.00
C347   C     0.07602   0.71281   0.08925   0.00000  Uiso   1.00
C348   C     0.24642   0.83349   0.16060   0.00000  Uiso   1.00
C349   C     0.20108   0.95073   0.28702   0.00000  Uiso   1.00
C350   C     0.16650   0.83332   0.07291   0.00000  Uiso   1.00
C351   C     0.16684   0.83332   0.26042   0.00000  Uiso   1.00
C352   C     0.16662   0.83328   0.02179   0.00000  Uiso   1.00
C353   C     0.16672   0.83328   0.31154   0.00000  Uiso   1.00
C354   C     0.02037   0.79337   0.17604   0.00000  Uiso   1.00
C355   C     0.31263   0.87556   0.15820   0.00000  Uiso   1.00
C356   C     0.31297   0.79338   0.15730   0.00000  Uiso   1.00
H357   H     0.19678   0.71827   0.27290   0.00000  Uiso   1.00
H358   H     0.06633   0.69611   0.05362   0.00000  Uiso   1.00
H359   H     0.06269   0.74731   0.08906   0.00000  Uiso   1.00
H360   H     0.06283   0.69366   0.12060   0.00000  Uiso   1.00
H361   H     0.24745   0.95579   0.23426   0.00000  Uiso   1.00
H362   H     0.21062   0.98179   0.30725   0.00000  Uiso   1.00
H363   H     0.21523   0.92165   0.30744   0.00000  Uiso   1.00
H364   H     0.16641   0.94739   0.28683   0.00000  Uiso   1.00
H365   H     0.26699   0.69608   0.27972   0.00000  Uiso   1.00
H366   H     0.27067   0.74729   0.24431   0.00000  Uiso   1.00
H367   H     0.27052   0.69366   0.21274   0.00000  Uiso   1.00
H368   H     0.08587   0.95579   0.09909   0.00000  Uiso   1.00
H369   H     0.12261   0.98173   0.02605   0.00000  Uiso   1.00
H370   H     0.11813   0.92157   0.02595   0.00000  Uiso   1.00
H371   H     0.16691   0.94746   0.04651   0.00000  Uiso   1.00
H372   H     0.13656   0.71817   0.06040   0.00000  Uiso   1.00
I373   I     0.04245   0.73550   0.21622   0.00000  Uiso   1.00
I374   I     0.28730   0.93657   0.12650   0.00000  Uiso   1.00
I375   I     0.29088   0.73551   0.11711   0.00000  Uiso   1.00
I376   I     0.04605   0.93655   0.20690   0.00000  Uiso   1.00
N377   N     0.16667   0.95240   0.16667   0.00000  Uiso   1.00
N378   N     0.16667   0.71427   0.16667   0.00000  Uiso   1.00
N379   N     0.21207   0.71571   0.23970   0.00000  Uiso   1.00
N380   N     0.11771   0.95108   0.09686   0.00000  Uiso   1.00
N381   N     0.12128   0.71571   0.09362   0.00000  Uiso   1.00
N382   N     0.21561   0.95108   0.23649   0.00000  Uiso   1.00
O383   O     0.10559   0.87154   0.16666   0.00000  Uiso   1.00
O384   O     0.22774   0.79513   0.16667   0.00000  Uiso   1.00
O385   O     0.22774   0.87154   0.16667   0.00000  Uiso   1.00
O386   O     0.10559   0.79513   0.16666   0.00000  Uiso   1.00
O387   O     0.16667   0.87155   0.09511   0.00000  Uiso   1.00
O388   O     0.16666   0.79512   0.23822   0.00000  Uiso   1.00
O389   O     0.16666   0.87155   0.23822   0.00000  Uiso   1.00
O390   O     0.16667   0.79512   0.09511   0.00000  Uiso   1.00
Zn391  Zn    0.16667   0.88437   0.16667   0.00000  Uiso   1.00
Zn392  Zn    0.16667   0.78229   0.16667   0.00000  Uiso   1.00
C393   C     0.42025   0.83349   0.17274   0.00000  Uiso   1.00
C394   C     0.35404   0.87556   0.17517   0.00000  Uiso   1.00
C395   C     0.62450   0.83423   0.15450   0.00000  Uiso   1.00
C396   C     0.37550   0.83422   0.17885   0.00000  Uiso   1.00
C397   C     0.52385   0.69090   0.20138   0.00000  Uiso   1.00
C398   C     0.47609   0.97585   0.13205   0.00000  Uiso   1.00
C399   C     0.47615   0.69090   0.13195   0.00000  Uiso   1.00
C400   C     0.52391   0.97585   0.20129   0.00000  Uiso   1.00
C401   C     0.59066   0.71280   0.24409   0.00000  Uiso   1.00
C402   C     0.46556   0.95071   0.04632   0.00000  Uiso   1.00
C403   C     0.40935   0.71281   0.08925   0.00000  Uiso   1.00
C404   C     0.57975   0.83349   0.16060   0.00000  Uiso   1.00
C405   C     0.53441   0.95073   0.28702   0.00000  Uiso   1.00
C406   C     0.49983   0.83332   0.07291   0.00000  Uiso   1.00
C407   C     0.50017   0.83332   0.26042   0.00000  Uiso   1.00
C408   C     0.49995   0.83328   0.02179   0.00000  Uiso   1.00
C409   C     0.50005   0.83328   0.31154   0.00000  Uiso   1.00
C410   C     0.35370   0.79337   0.17604   0.00000  Uiso   1.00
C411   C     0.64596   0.87556   0.15820   0.00000  Uiso   1.00
C412   C     0.64630   0.79338   0.15730   0.00000  Uiso   1.00
H413   H     0.53011   0.71827   0.27290   0.00000  Uiso   1.00
H414   H     0.39966   0.69611   0.05362   0.00000  Uiso   1.00
H415   H     0.39602   0.74731   0.08906   0.00000  Uiso   1.00
H416   H     0.39616   0.69366   0.12060   0.00000  Uiso   1.00
H417   H     0.58079   0.95579   0.23426   0.00000  Uiso   1.00
H418   H     0.54395   0.98179   0.30725   0.00000  Uiso   1.00
H419   H     0.54856   0.92165   0.30744   0.00000  Uiso   1.00
H420   H     0.49974   0.94739   0.28683   0.00000  Uiso   1.00
H421   H     0.60033   0.69608   0.27972   0.00000  Uiso   1.00
H422   H     0.60401   0.74729   0.24431   0.00000  Uiso   1.00
H423   H     0.60385   0.69366   0.21274   0.00000  Uiso   1.00
H424   H     0.41920   0.95579   0.09909   0.00000  Uiso   1.00
H425   H     0.45594   0.98173   0.02605   0.00000  Uiso   1.00
H426   H     0.45147   0.92157   0.02595   0.00000  Uiso   1.00
H427   H     0.50024   0.94746   0.04651   0.00000  Uiso   1.00
H428   H     0.46989   0.71817   0.06040   0.00000  Uiso   1.00
I429   I     0.37579   0.73550   0.21622   0.00000  Uiso   1.00
I430   I     0.62064   0.93657   0.12650   0.00000  Uiso   1.00
I431   I     0.62421   0.73551   0.11711   0.00000  Uiso   1.00
I432   I     0.37938   0.93655   0.20690   0.00000  Uiso   1.00
N433   N     0.50000   0.95240   0.16667   0.00000  Uiso   1.00
N434   N     0.50000   0.71427   0.16667   0.00000  Uiso   1.00
N435   N     0.54540   0.71571   0.23970   0.00000  Uiso   1.00
N436   N     0.45104   0.95108   0.09686   0.00000  Uiso   1.00
N437   N     0.45461   0.71571   0.09362   0.00000  Uiso   1.00
N438   N     0.54895   0.95108   0.23649   0.00000  Uiso   1.00
O439   O     0.43892   0.87154   0.16666   0.00000  Uiso   1.00
O440   O     0.56108   0.79513   0.16667   0.00000  Uiso   1.00
O441   O     0.56108   0.87154   0.16667   0.00000  Uiso   1.00
O442   O     0.43892   0.79513   0.16666   0.00000  Uiso   1.00
O443   O     0.50000   0.87155   0.09511   0.00000  Uiso   1.00
O444   O     0.50000   0.79512   0.23822   0.00000  Uiso   1.00
O445   O     0.50000   0.87155   0.23822   0.00000  Uiso   1.00
O446   O     0.50000   0.79512   0.09511   0.00000  Uiso   1.00
Zn447  Zn    0.50000   0.88437   0.16667   0.00000  Uiso   1.00
Zn448  Zn    0.50000   0.78229   0.16667   0.00000  Uiso   1.00
C449   C     0.75358   0.83349   0.17274   0.00000  Uiso   1.00
C450   C     0.68738   0.87556   0.17517   0.00000  Uiso   1.00
C451   C     0.95784   0.83423   0.15450   0.00000  Uiso   1.00
C452   C     0.70883   0.83422   0.17885   0.00000  Uiso   1.00
C453   C     0.85718   0.69090   0.20138   0.00000  Uiso   1.00
C454   C     0.80942   0.97585   0.13205   0.00000  Uiso   1.00
C455   C     0.80948   0.69090   0.13195   0.00000  Uiso   1.00
C456   C     0.85725   0.97585   0.20129   0.00000  Uiso   1.00
C457   C     0.92399   0.71280   0.24409   0.00000  Uiso   1.00
C458   C     0.79890   0.95071   0.04632   0.00000  Uiso   1.00
C459   C     0.74269   0.71281   0.08925   0.00000  Uiso   1.00
C460   C     0.91308   0.83349   0.16060   0.00000  Uiso   1.00
C461   C     0.86775   0.95073   0.28702   0.00000  Uiso   1.00
C462   C     0.83317   0.83332   0.07291   0.00000  Uiso   1.00
C463   C     0.83350   0.83332   0.26042   0.00000  Uiso   1.00
C464   C     0.83328   0.83328   0.02179   0.00000  Uiso   1.00
C465   C     0.83339   0.83328   0.31154   0.00000  Uiso   1.00
C466   C     0.68703   0.79337   0.17604   0.00000  Uiso   1.00
C467   C     0.97930   0.87556   0.15820   0.00000  Uiso   1.00
C468   C     0.97963   0.79338   0.15730   0.00000  Uiso   1.00
H469   H     0.86344   0.71827   0.27290   0.00000  Uiso   1.00
H470   H     0.73299   0.69611   0.05362   0.00000  Uiso   1.00
H471   H     0.72935   0.74731   0.08906   0.00000  Uiso   1.00
H472   H     0.72950   0.69366   0.12060   0.00000  Uiso   1.00
H473   H     0.91412   0.95579   0.23426   0.00000  Uiso   1.00
H474   H     0.87729   0.98179   0.30725   0.00000  Uiso   1.00
H475   H     0.88190   0.92165   0.30744   0.00000  Uiso   1.00
H476   H     0.83308   0.94739   0.28683   0.00000  Uiso   1.00
H477   H     0.93366   0.69608   0.27972   0.00000  Uiso   1.00
H478   H     0.93734   0.74729   0.24431   0.00000  Uiso   1.00
H479   H     0.93718   0.69366   0.21274   0.00000  Uiso   1.00
H480   H     0.75253   0.95579   0.09909   0.00000  Uiso   1.00
H481   H     0.78928   0.98173   0.02605   0.00000  Uiso   1.00
H482   H     0.78480   0.92157   0.02595   0.00000  Uiso   1.00
H483   H     0.83358   0.94746   0.04651   0.00000  Uiso   1.00
H484   H     0.80322   0.71817   0.06040   0.00000  Uiso   1.00
I485   I     0.70912   0.73550   0.21622   0.00000  Uiso   1.00
I486   I     0.95397   0.93657   0.12650   0.00000  Uiso   1.00
I487   I     0.95754   0.73551   0.11711   0.00000  Uiso   1.00
I488   I     0.71272   0.93655   0.20690   0.00000  Uiso   1.00
N489   N     0.83333   0.95240   0.16667   0.00000  Uiso   1.00
N490   N     0.83333   0.71427   0.16667   0.00000  Uiso   1.00
N491   N     0.87874   0.71571   0.23970   0.00000  Uiso   1.00
N492   N     0.78437   0.95108   0.09686   0.00000  Uiso   1.00
N493   N     0.78794   0.71571   0.09362   0.00000  Uiso   1.00
N494   N     0.88228   0.95108   0.23649   0.00000  Uiso   1.00
O495   O     0.77226   0.87154   0.16666   0.00000  Uiso   1.00
O496   O     0.89441   0.79513   0.16667   0.00000  Uiso   1.00
O497   O     0.89441   0.87154   0.16667   0.00000  Uiso   1.00
O498   O     0.77226   0.79513   0.16666   0.00000  Uiso   1.00
O499   O     0.83334   0.87155   0.09511   0.00000  Uiso   1.00
O500   O     0.83333   0.79512   0.23822   0.00000  Uiso   1.00
O501   O     0.83333   0.87155   0.23822   0.00000  Uiso   1.00
O502   O     0.83334   0.79512   0.09511   0.00000  Uiso   1.00
Zn503  Zn    0.83333   0.88437   0.16667   0.00000  Uiso   1.00
Zn504  Zn    0.83333   0.78229   0.16667   0.00000  Uiso   1.00
C505   C     0.08692   0.16682   0.50607   0.00000  Uiso   1.00
C506   C     0.02071   0.20889   0.50851   0.00000  Uiso   1.00
C507   C     0.29117   0.16756   0.48783   0.00000  Uiso   1.00
C508   C     0.04217   0.16755   0.51219   0.00000  Uiso   1.00
C509   C     0.19052   0.02424   0.53471   0.00000  Uiso   1.00
C510   C     0.14275   0.30919   0.46538   0.00000  Uiso   1.00
C511   C     0.14282   0.02424   0.46529   0.00000  Uiso   1.00
C512   C     0.19058   0.30919   0.53462   0.00000  Uiso   1.00
C513   C     0.25732   0.04613   0.57742   0.00000  Uiso   1.00
C514   C     0.13223   0.28405   0.37965   0.00000  Uiso   1.00
C515   C     0.07602   0.04615   0.42258   0.00000  Uiso   1.00
C516   C     0.24642   0.16683   0.49393   0.00000  Uiso   1.00
C517   C     0.20108   0.28406   0.62036   0.00000  Uiso   1.00
C518   C     0.16650   0.16666   0.40625   0.00000  Uiso   1.00
C519   C     0.16684   0.16666   0.59375   0.00000  Uiso   1.00
C520   C     0.16662   0.16661   0.35513   0.00000  Uiso   1.00
C521   C     0.16672   0.16661   0.64487   0.00000  Uiso   1.00
C522   C     0.02037   0.12671   0.50938   0.00000  Uiso   1.00
C523   C     0.31263   0.20889   0.49153   0.00000  Uiso   1.00
C524   C     0.31297   0.12671   0.49063   0.00000  Uiso   1.00
H525   H     0.19678   0.05161   0.60623   0.00000  Uiso   1.00
H526   H     0.06633   0.02944   0.38695   0.00000  Uiso   1.00
H527   H     0.06269   0.08064   0.42239   0.00000  Uiso   1.00
H528   H     0.06283   0.02700   0.45393   0.00000  Uiso   1.00
H529   H     0.24745   0.28912   0.56759   0.00000  Uiso   1.00
H530   H     0.21062   0.31512   0.64058   0.00000  Uiso   1.00
H531   H     0.21523   0.25499   0.64077   0.00000  Uiso   1.00
H532   H     0.16641   0.28072   0.62016   0.00000  Uiso   1.00
H533   H     0.26699   0.02941   0.61305   0.00000  Uiso   1.00
H534   H     0.27067   0.08062   0.57764   0.00000  Uiso   1.00
H535   H     0.27052   0.02699   0.54607   0.00000  Uiso   1.00
H536   H     0.08587   0.28912   0.43243   0.00000  Uiso   1.00
H537   H     0.12261   0.31506   0.35938   0.00000  Uiso   1.00
H538   H     0.11813   0.25491   0.35928   0.00000  Uiso   1.00
H539   H     0.16691   0.28079   0.37984   0.00000  Uiso   1.00
H540   H     0.13656   0.05150   0.39373   0.00000  Uiso   1.00
I541   I     0.04245   0.06883   0.54955   0.00000  Uiso   1.00
I542   I     0.28730   0.26990   0.45983   0.00000  Uiso   1.00
I543   I     0.29088   0.06884   0.45045   0.00000  Uiso   1.00
I544   I     0.04605   0.26988   0.54023   0.00000  Uiso   1.00
N545   N     0.16667   0.28573   0.50000   0.00000  Uiso   1.00
N546   N     0.16667   0.04760   0.50000   0.00000  Uiso   1.00
N547   N     0.21207   0.04904   0.57303   0.00000  Uiso   1.00
N548   N     0.11771   0.28441   0.43019   0.00000  Uiso   1.00
N549   N     0.12128   0.04904   0.42695   0.00000  Uiso   1.00
N550   N     0.21561   0.28441   0.56982   0.00000  Uiso   1.00
O551   O     0.10559   0.20487   0.50000   0.00000  Uiso   1.00
O552   O     0.22774   0.12846   0.50000   0.00000  Uiso   1.00
O553   O     0.22774   0.20487   0.50000   0.00000  Uiso   1.00
O554   O     0.10559   0.12846   0.50000   0.00000  Uiso   1.00
O555   O     0.16667   0.20488   0.42845   0.00000  Uiso   1.00
O556   O     0.16666   0.12845   0.57155   0.00000  Uiso   1.00
O557   O     0.16666   0.20488   0.57155   0.00000  Uiso   1.00
O558   O     0.16667   0.12845   0.42845   0.00000  Uiso   1.00
Zn559  Zn    0.16667   0.21771   0.50000   0.00000  Uiso   1.00
Zn560  Zn    0.16667   0.11563   0.50000   0.00000  Uiso   1.00
C561   C     0.42025   0.16682   0.50607   0.00000  Uiso   1.00
C562   C     0.35404   0.20889   0.50851   0.00000  Uiso   1.00
C563   C     0.62450   0.16756   0.48783   0.00000  Uiso   1.00
C564   C     0.37550   0.16755   0.51219   0.00000  Uiso   1.00
C565   C     0.52385   0.02424   0.53471   0.00000  Uiso   1.00
C566   C     0.47609   0.30919   0.46538   0.00000  Uiso   1.00
C567   C     0.47615   0.02424   0.46529   0.00000  Uiso   1.00
C568   C     0.52391   0.30919   0.53462   0.00000  Uiso   1.00
C569   C     0.59066   0.04613   0.57742   0.00000  Uiso   1.00
C570   C     0.46556   0.28405   0.37965   0.00000  Uiso   1.00
C571   C     0.40935   0.04615   0.42258   0.00000  Uiso   1.00
C572   C     0.57975   0.16683   0.49393   0.00000  Uiso   1.00
C573   C     0.53441   0.28406   0.62036   0.00000  Uiso   1.00
C574   C     0.49983   0.16666   0.40625   0.00000  Uiso   1.00
C575   C     0.50017   0.16666   0.59375   0.00000  Uiso   1.00
C576   C     0.49995   0.16661   0.35513   0.00000  Uiso   1.00
C577   C     0.50005   0.16661   0.64487   0.00000  Uiso   1.00
C578   C     0.35370   0.12671   0.50938   0.00000  Uiso   1.00
C579   C     0.64596   0.20889   0.49153   0.00000  Uiso   1.00
C580   C     0.64630   0.12671   0.49063   0.00000  Uiso   1.00
H581   H     0.53011   0.05161   0.60623   0.00000  Uiso   1.00
H582   H     0.39966   0.02944   0.38695   0.00000  Uiso   1.00
H583   H     0.39602   0.08064   0.42239   0.00000  Uiso   1.00
H584   H     0.39616   0.02700   0.45393   0.00000  Uiso   1.00
H585   H     0.58079   0.28912   0.56759   0.00000  Uiso   1.00
H586   H     0.54395   0.31512   0.64058   0.00000  Uiso   1.00
H587   H     0.54856   0.25499   0.64077   0.00000  Uiso   1.00
H588   H     0.49974   0.28072   0.62016   0.00000  Uiso   1.00
H589   H     0.60033   0.02941   0.61305   0.00000  Uiso   1.00
H590   H     0.60401   0.08062   0.57764   0.00000  Uiso   1.00
H591   H     0.60385   0.02699   0.54607   0.00000  Uiso   1.00
H592   H     0.41920   0.28912   0.43243   0.00000  Uiso   1.00
H593   H     0.45594   0.31506   0.35938   0.00000  Uiso   1.00
H594   H     0.45147   0.25491   0.35928   0.00000  Uiso   1.00
H595   H     0.50024   0.28079   0.37984   0.00000  Uiso   1.00
H596   H     0.46989   0.05150   0.39373   0.00000  Uiso   1.00
I597   I     0.37579   0.06883   0.54955   0.00000  Uiso   1.00
I598   I     0.62064   0.26990   0.45983   0.00000  Uiso   1.00
I599   I     0.62421   0.06884   0.45045   0.00000  Uiso   1.00
I600   I     0.37938   0.26988   0.54023   0.00000  Uiso   1.00
N601   N     0.50000   0.28573   0.50000   0.00000  Uiso   1.00
N602   N     0.50000   0.04760   0.50000   0.00000  Uiso   1.00
N603   N     0.54540   0.04904   0.57303   0.00000  Uiso   1.00
N604   N     0.45104   0.28441   0.43019   0.00000  Uiso   1.00
N605   N     0.45461   0.04904   0.42695   0.00000  Uiso   1.00
N606   N     0.54895   0.28441   0.56982   0.00000  Uiso   1.00
O607   O     0.43892   0.20487   0.50000   0.00000  Uiso   1.00
O608   O     0.56108   0.12846   0.50000   0.00000  Uiso   1.00
O609   O     0.56108   0.20487   0.50000   0.00000  Uiso   1.00
O610   O     0.43892   0.12846   0.50000   0.00000  Uiso   1.00
O611   O     0.50000   0.20488   0.42845   0.00000  Uiso   1.00
O612   O     0.50000   0.12845   0.57155   0.00000  Uiso   1.00
O613   O     0.50000   0.20488   0.57155   0.00000  Uiso   1.00
O614   O     0.50000   0.12845   0.42845   0.00000  Uiso   1.00
Zn615  Zn    0.50000   0.21771   0.50000   0.00000  Uiso   1.00
Zn616  Zn    0.50000   0.11563   0.50000   0.00000  Uiso   1.00
C617   C     0.75358   0.16682   0.50607   0.00000  Uiso   1.00
C618   C     0.68738   0.20889   0.50851   0.00000  Uiso   1.00
C619   C     0.95784   0.16756   0.48783   0.00000  Uiso   1.00
C620   C     0.70883   0.16755   0.51219   0.00000  Uiso   1.00
C621   C     0.85718   0.02424   0.53471   0.00000  Uiso   1.00
C622   C     0.80942   0.30919   0.46538   0.00000  Uiso   1.00
C623   C     0.80948   0.02424   0.46529   0.00000  Uiso   1.00
C624   C     0.85725   0.30919   0.53462   0.00000  Uiso   1.00
C625   C     0.92399   0.04613   0.57742   0.00000  Uiso   1.00
C626   C     0.79890   0.28405   0.37965   0.00000  Uiso   1.00
C627   C     0.74269   0.04615   0.42258   0.00000  Uiso   1.00
C628   C     0.91308   0.16683   0.49393   0.00000  Uiso   1.00
C629   C     0.86775   0.28406   0.62036   0.00000  Uiso   1.00
C630   C     0.83317   0.16666   0.40625   0.00000  Uiso   1.00
C631   C     0.83350   0.16666   0.59375   0.00000  Uiso   1.00
C632   C     0.83328   0.16661   0.35513   0.00000  Uiso   1.00
C633   C     0.83339   0.16661   0.64487   0.00000  Uiso   1.00
C634   C     0.68703   0.12671   0.50938   0.00000  Uiso   1.00
C635   C     0.97930   0.20889   0.49153   0.00000  Uiso   1.00
C636   C     0.97963   0.12671   0.49063   0.00000  Uiso   1.00
H637   H     0.86344   0.05161   0.60623   0.00000  Uiso   1.00
H638   H     0.73299   0.02944   0.38695   0.00000  Uiso   1.00
H639   H     0.72935   0.08064   0.42239   0.00000  Uiso   1.00
H640   H     0.72950   0.02700   0.45393   0.00000  Uiso   1.00
H641   H     0.91412   0.28912   0.56759   0.00000  Uiso   1.00
H642   H     0.87729   0.31512   0.64058   0.00000  Uiso   1.00
H643   H     0.88190   0.25499   0.64077   0.00000  Uiso   1.00
H644   H     0.83308   0.28072   0.62016   0.00000  Uiso   1.00
H645   H     0.93366   0.02941   0.61305   0.00000  Uiso   1.00
H646   H     0.93734   0.08062   0.57764   0.00000  Uiso   1.00
H647   H     0.93718   0.02699   0.54607   0.00000  Uiso   1.00
H648   H     0.75253   0.28912   0.43243   0.00000  Uiso   1.00
H649   H     0.78928   0.31506   0.35938   0.00000  Uiso   1.00
H650   H     0.78480   0.25491   0.35928   0.00000  Uiso   1.00
H651   H     0.83358   0.28079   0.37984   0.00000  Uiso   1.00
H652   H     0.80322   0.05150   0.39373   0.00000  Uiso   1.00
I653   I     0.70912   0.06883   0.54955   0.00000  Uiso   1.00
I654   I     0.95397   0.26990   0.45983   0.00000  Uiso   1.00
I655   I     0.95754   0.06884   0.45045   0.00000  Uiso   1.00
I656   I     0.71272   0.26988   0.54023   0.00000  Uiso   1.00
N657   N     0.83333   0.28573   0.50000   0.00000  Uiso   1.00
N658   N     0.83333   0.04760   0.50000   0.00000  Uiso   1.00
N659   N     0.87874   0.04904   0.57303   0.00000  Uiso   1.00
N660   N     0.78437   0.28441   0.43019   0.00000  Uiso   1.00
N661   N     0.78794   0.04904   0.42695   0.00000  Uiso   1.00
N662   N     0.88228   0.28441   0.56982   0.00000  Uiso   1.00
O663   O     0.77226   0.20487   0.50000   0.00000  Uiso   1.00
O664   O     0.89441   0.12846   0.50000   0.00000  Uiso   1.00
O665   O     0.89441   0.20487   0.50000   0.00000  Uiso   1.00
O666   O     0.77226   0.12846   0.50000   0.00000  Uiso   1.00
O667   O     0.83334   0.20488   0.42845   0.00000  Uiso   1.00
O668   O     0.83333   0.12845   0.57155   0.00000  Uiso   1.00
O669   O     0.83333   0.20488   0.57155   0.00000  Uiso   1.00
O670   O     0.83334   0.12845   0.42845   0.00000  Uiso   1.00
Zn671  Zn    0.83333   0.21771   0.50000   0.00000  Uiso   1.00
Zn672  Zn    0.83333   0.11563   0.50000   0.00000  Uiso   1.00
C673   C     0.08692   0.50016   0.50607   0.00000  Uiso   1.00
C674   C     0.02071   0.54222   0.50851   0.00000  Uiso   1.00
C675   C     0.29117   0.50089   0.48783   0.00000  Uiso   1.00
C676   C     0.04217   0.50089   0.51219   0.00000  Uiso   1.00
C677   C     0.19052   0.35757   0.53471   0.00000  Uiso   1.00
C678   C     0.14275   0.64252   0.46538   0.00000  Uiso   1.00
C679   C     0.14282   0.35757   0.46529   0.00000  Uiso   1.00
C680   C     0.19058   0.64252   0.53462   0.00000  Uiso   1.00
C681   C     0.25732   0.37947   0.57742   0.00000  Uiso   1.00
C682   C     0.13223   0.61738   0.37965   0.00000  Uiso   1.00
C683   C     0.07602   0.37948   0.42258   0.00000  Uiso   1.00
C684   C     0.24642   0.50016   0.49393   0.00000  Uiso   1.00
C685   C     0.20108   0.61740   0.62036   0.00000  Uiso   1.00
C686   C     0.16650   0.49999   0.40625   0.00000  Uiso   1.00
C687   C     0.16684   0.49999   0.59375   0.00000  Uiso   1.00
C688   C     0.16662   0.49995   0.35513   0.00000  Uiso   1.00
C689   C     0.16672   0.49995   0.64487   0.00000  Uiso   1.00
C690   C     0.02037   0.46004   0.50938   0.00000  Uiso   1.00
C691   C     0.31263   0.54223   0.49153   0.00000  Uiso   1.00
C692   C     0.31297   0.46004   0.49063   0.00000  Uiso   1.00
H693   H     0.19678   0.38494   0.60623   0.00000  Uiso   1.00
H694   H     0.06633   0.36277   0.38695   0.00000  Uiso   1.00
H695   H     0.06269   0.41397   0.42239   0.00000  Uiso   1.00
H696   H     0.06283   0.36033   0.45393   0.00000  Uiso   1.00
H697   H     0.24745   0.62245   0.56759   0.00000  Uiso   1.00
H698   H     0.21062   0.64846   0.64058   0.00000  Uiso   1.00
H699   H     0.21523   0.58832   0.64077   0.00000  Uiso   1.00
H700   H     0.16641   0.61406   0.62016   0.00000  Uiso   1.00
H701   H     0.26699   0.36274   0.61305   0.00000  Uiso   1.00
H702   H     0.27067   0.41396   0.57764   0.00000  Uiso   1.00
H703   H     0.27052   0.36033   0.54607   0.00000  Uiso   1.00
H704   H     0.08587   0.62245   0.43243   0.00000  Uiso   1.00
H705   H     0.12261   0.64840   0.35938   0.00000  Uiso   1.00
H706   H     0.11813   0.58824   0.35928   0.00000  Uiso   1.00
H707   H     0.16691   0.61413   0.37984   0.00000  Uiso   1.00
H708   H     0.13656   0.38484   0.39373   0.00000  Uiso   1.00
I709   I     0.04245   0.40217   0.54955   0.00000  Uiso   1.00
I710   I     0.28730   0.60323   0.45983   0.00000  Uiso   1.00
I711   I     0.29088   0.40217   0.45045   0.00000  Uiso   1.00
I712   I     0.04605   0.60322   0.54023   0.00000  Uiso   1.00
N713   N     0.16667   0.61907   0.50000   0.00000  Uiso   1.00
N714   N     0.16667   0.38093   0.50000   0.00000  Uiso   1.00
N715   N     0.21207   0.38238   0.57303   0.00000  Uiso   1.00
N716   N     0.11771   0.61774   0.43019   0.00000  Uiso   1.00
N717   N     0.12128   0.38237   0.42695   0.00000  Uiso   1.00
N718   N     0.21561   0.61774   0.56982   0.00000  Uiso   1.00
O719   O     0.10559   0.53821   0.50000   0.00000  Uiso   1.00
O720   O     0.22774   0.46179   0.50000   0.00000  Uiso   1.00
O721   O     0.22774   0.53821   0.50000   0.00000  Uiso   1.00
O722   O     0.10559   0.46179   0.50000   0.00000  Uiso   1.00
O723   O     0.16667   0.53821   0.42845   0.00000  Uiso   1.00
O724   O     0.16666   0.46179   0.57155   0.00000  Uiso   1.00
O725   O     0.16666   0.53821   0.57155   0.00000  Uiso   1.00
O726   O     0.16667   0.46179   0.42845   0.00000  Uiso   1.00
Zn727  Zn    0.16667   0.55104   0.50000   0.00000  Uiso   1.00
Zn728  Zn    0.16667   0.44896   0.50000   0.00000  Uiso   1.00
C729   C     0.42025   0.50016   0.50607   0.00000  Uiso   1.00
C730   C     0.35404   0.54222   0.50851   0.00000  Uiso   1.00
C731   C     0.62450   0.50089   0.48783   0.00000  Uiso   1.00
C732   C     0.37550   0.50089   0.51219   0.00000  Uiso   1.00
C733   C     0.52385   0.35757   0.53471   0.00000  Uiso   1.00
C734   C     0.47609   0.64252   0.46538   0.00000  Uiso   1.00
C735   C     0.47615   0.35757   0.46529   0.00000  Uiso   1.00
C736   C     0.52391   0.64252   0.53462   0.00000  Uiso   1.00
C737   C     0.59066   0.37947   0.57742   0.00000  Uiso   1.00
C738   C     0.46556   0.61738   0.37965   0.00000  Uiso   1.00
C739   C     0.40935   0.37948   0.42258   0.00000  Uiso   1.00
C740   C     0.57975   0.50016   0.49393   0.00000  Uiso   1.00
C741   C     0.53441   0.61740   0.62036   0.00000  Uiso   1.00
C742   C     0.49983   0.49999   0.40625   0.00000  Uiso   1.00
C743   C     0.50017   0.49999   0.59375   0.00000  Uiso   1.00
C744   C     0.49995   0.49995   0.35513   0.00000  Uiso   1.00
C745   C     0.50005   0.49995   0.64487   0.00000  Uiso   1.00
C746   C     0.35370   0.46004   0.50938   0.00000  Uiso   1.00
C747   C     0.64596   0.54223   0.49153   0.00000  Uiso   1.00
C748   C     0.64630   0.46004   0.49063   0.00000  Uiso   1.00
H749   H     0.53011   0.38494   0.60623   0.00000  Uiso   1.00
H750   H     0.39966   0.36277   0.38695   0.00000  Uiso   1.00
H751   H     0.39602   0.41397   0.42239   0.00000  Uiso   1.00
H752   H     0.39616   0.36033   0.45393   0.00000  Uiso   1.00
H753   H     0.58079   0.62245   0.56759   0.00000  Uiso   1.00
H754   H     0.54395   0.64846   0.64058   0.00000  Uiso   1.00
H755   H     0.54856   0.58832   0.64077   0.00000  Uiso   1.00
H756   H     0.49974   0.61406   0.62016   0.00000  Uiso   1.00
H757   H     0.60033   0.36274   0.61305   0.00000  Uiso   1.00
H758   H     0.60401   0.41396   0.57764   0.00000  Uiso   1.00
H759   H     0.60385   0.36033   0.54607   0.00000  Uiso   1.00
H760   H     0.41920   0.62245   0.43243   0.00000  Uiso   1.00
H761   H     0.45594   0.64840   0.35938   0.00000  Uiso   1.00
H762   H     0.45147   0.58824   0.35928   0.00000  Uiso   1.00
H763   H     0.50024   0.61413   0.37984   0.00000  Uiso   1.00
H764   H     0.46989   0.38484   0.39373   0.00000  Uiso   1.00
I765   I     0.37579   0.40217   0.54955   0.00000  Uiso   1.00
I766   I     0.62064   0.60323   0.45983   0.00000  Uiso   1.00
I767   I     0.62421   0.40217   0.45045   0.00000  Uiso   1.00
I768   I     0.37938   0.60322   0.54023   0.00000  Uiso   1.00
N769   N     0.50000   0.61907   0.50000   0.00000  Uiso   1.00
N770   N     0.50000   0.38093   0.50000   0.00000  Uiso   1.00
N771   N     0.54540   0.38238   0.57303   0.00000  Uiso   1.00
N772   N     0.45104   0.61774   0.43019   0.00000  Uiso   1.00
N773   N     0.45461   0.38237   0.42695   0.00000  Uiso   1.00
N774   N     0.54895   0.61774   0.56982   0.00000  Uiso   1.00
O775   O     0.43892   0.53821   0.50000   0.00000  Uiso   1.00
O776   O     0.56108   0.46179   0.50000   0.00000  Uiso   1.00
O777   O     0.56108   0.53821   0.50000   0.00000  Uiso   1.00
O778   O     0.43892   0.46179   0.50000   0.00000  Uiso   1.00
O779   O     0.50000   0.53821   0.42845   0.00000  Uiso   1.00
O780   O     0.50000   0.46179   0.57155   0.00000  Uiso   1.00
O781   O     0.50000   0.53821   0.57155   0.00000  Uiso   1.00
O782   O     0.50000   0.46179   0.42845   0.00000  Uiso   1.00
Zn783  Zn    0.50000   0.55104   0.50000   0.00000  Uiso   1.00
Zn784  Zn    0.50000   0.44896   0.50000   0.00000  Uiso   1.00
C785   C     0.75358   0.50016   0.50607   0.00000  Uiso   1.00
C786   C     0.68738   0.54222   0.50851   0.00000  Uiso   1.00
C787   C     0.95784   0.50089   0.48783   0.00000  Uiso   1.00
C788   C     0.70883   0.50089   0.51219   0.00000  Uiso   1.00
C789   C     0.85718   0.35757   0.53471   0.00000  Uiso   1.00
C790   C     0.80942   0.64252   0.46538   0.00000  Uiso   1.00
C791   C     0.80948   0.35757   0.46529   0.00000  Uiso   1.00
C792   C     0.85725   0.64252   0.53462   0.00000  Uiso   1.00
C793   C     0.92399   0.37947   0.57742   0.00000  Uiso   1.00
C794   C     0.79890   0.61738   0.37965   0.00000  Uiso   1.00
C795   C     0.74269   0.37948   0.42258   0.00000  Uiso   1.00
C796   C     0.91308   0.50016   0.49393   0.00000  Uiso   1.00
C797   C     0.86775   0.61740   0.62036   0.00000  Uiso   1.00
C798   C     0.83317   0.49999   0.40625   0.00000  Uiso   1.00
C799   C     0.83350   0.49999   0.59375   0.00000  Uiso   1.00
C800   C     0.83328   0.49995   0.35513   0.00000  Uiso   1.00
C801   C     0.83339   0.49995   0.64487   0.00000  Uiso   1.00
C802   C     0.68703   0.46004   0.50938   0.00000  Uiso   1.00
C803   C     0.97930   0.54223   0.49153   0.00000  Uiso   1.00
C804   C     0.97963   0.46004   0.49063   0.00000  Uiso   1.00
H805   H     0.86344   0.38494   0.60623   0.00000  Uiso   1.00
H806   H     0.73299   0.36277   0.38695   0.00000  Uiso   1.00
H807   H     0.72935   0.41397   0.42239   0.00000  Uiso   1.00
H808   H     0.72950   0.36033   0.45393   0.00000  Uiso   1.00
H809   H     0.91412   0.62245   0.56759   0.00000  Uiso   1.00
H810   H     0.87729   0.64846   0.64058   0.00000  Uiso   1.00
H811   H     0.88190   0.58832   0.64077   0.00000  Uiso   1.00
H812   H     0.83308   0.61406   0.62016   0.00000  Uiso   1.00
H813   H     0.93366   0.36274   0.61305   0.00000  Uiso   1.00
H814   H     0.93734   0.41396   0.57764   0.00000  Uiso   1.00
H815   H     0.93718   0.36033   0.54607   0.00000  Uiso   1.00
H816   H     0.75253   0.62245   0.43243   0.00000  Uiso   1.00
H817   H     0.78928   0.64840   0.35938   0.00000  Uiso   1.00
H818   H     0.78480   0.58824   0.35928   0.00000  Uiso   1.00
H819   H     0.83358   0.61413   0.37984   0.00000  Uiso   1.00
H820   H     0.80322   0.38484   0.39373   0.00000  Uiso   1.00
I821   I     0.70912   0.40217   0.54955   0.00000  Uiso   1.00
I822   I     0.95397   0.60323   0.45983   0.00000  Uiso   1.00
I823   I     0.95754   0.40217   0.45045   0.00000  Uiso   1.00
I824   I     0.71272   0.60322   0.54023   0.00000  Uiso   1.00
N825   N     0.83333   0.61907   0.50000   0.00000  Uiso   1.00
N826   N     0.83333   0.38093   0.50000   0.00000  Uiso   1.00
N827   N     0.87874   0.38238   0.57303   0.00000  Uiso   1.00
N828   N     0.78437   0.61774   0.43019   0.00000  Uiso   1.00
N829   N     0.78794   0.38237   0.42695   0.00000  Uiso   1.00
N830   N     0.88228   0.61774   0.56982   0.00000  Uiso   1.00
O831   O     0.77226   0.53821   0.50000   0.00000  Uiso   1.00
O832   O     0.89441   0.46179   0.50000   0.00000  Uiso   1.00
O833   O     0.89441   0.53821   0.50000   0.00000  Uiso   1.00
O834   O     0.77226   0.46179   0.50000   0.00000  Uiso   1.00
O835   O     0.83334   0.53821   0.42845   0.00000  Uiso   1.00
O836   O     0.83333   0.46179   0.57155   0.00000  Uiso   1.00
O837   O     0.83333   0.53821   0.57155   0.00000  Uiso   1.00
O838   O     0.83334   0.46179   0.42845   0.00000  Uiso   1.00
Zn839  Zn    0.83333   0.55104   0.50000   0.00000  Uiso   1.00
Zn840  Zn    0.83333   0.44896   0.50000   0.00000  Uiso   1.00
C841   C     0.08692   0.83349   0.50607   0.00000  Uiso   1.00
C842   C     0.02071   0.87556   0.50851   0.00000  Uiso   1.00
C843   C     0.29117   0.83423   0.48783   0.00000  Uiso   1.00
C844   C     0.04217   0.83422   0.51219   0.00000  Uiso   1.00
C845   C     0.19052   0.69090   0.53471   0.00000  Uiso   1.00
C846   C     0.14275   0.97585   0.46538   0.00000  Uiso   1.00
C847   C     0.14282   0.69090   0.46529   0.00000  Uiso   1.00
C848   C     0.19058   0.97585   0.53462   0.00000  Uiso   1.00
C849   C     0.25732   0.71280   0.57742   0.00000  Uiso   1.00
C850   C     0.13223   0.95071   0.37965   0.00000  Uiso   1.00
C851   C     0.07602   0.71281   0.42258   0.00000  Uiso   1.00
C852   C     0.24642   0.83349   0.49393   0.00000  Uiso   1.00
C853   C     0.20108   0.95073   0.62036   0.00000  Uiso   1.00
C854   C     0.16650   0.83332   0.40625   0.00000  Uiso   1.00
C855   C     0.16684   0.83332   0.59375   0.00000  Uiso   1.00
C856   C     0.16662   0.83328   0.35513   0.00000  Uiso   1.00
C857   C     0.16672   0.83328   0.64487   0.00000  Uiso   1.00
C858   C     0.02037   0.79337   0.50938   0.00000  Uiso   1.00
C859   C     0.31263   0.87556   0.49153   0.00000  Uiso   1.00
C860   C     0.31297   0.79338   0.49063   0.00000  Uiso   1.00
H861   H     0.19678   0.71827   0.60623   0.00000  Uiso   1.00
H862   H     0.06633   0.69611   0.38695   0.00000  Uiso   1.00
H863   H     0.06269   0.74731   0.42239   0.00000  Uiso   1.00
H864   H     0.06283   0.69366   0.45393   0.00000  Uiso   1.00
H865   H     0.24745   0.95579   0.56759   0.00000  Uiso   1.00
H866   H     0.21062   0.98179   0.64058   0.00000  Uiso   1.00
H867   H     0.21523   0.92165   0.64077   0.00000  Uiso   1.00
H868   H     0.16641   0.94739   0.62016   0.00000  Uiso   1.00
H869   H     0.26699   0.69608   0.61305   0.00000  Uiso   1.00
H870   H     0.27067   0.74729   0.57764   0.00000  Uiso   1.00
H871   H     0.27052   0.69366   0.54607   0.00000  Uiso   1.00
H872   H     0.08587   0.95579   0.43243   0.00000  Uiso   1.00
H873   H     0.12261   0.98173   0.35938   0.00000  Uiso   1.00
H874   H     0.11813   0.92157   0.35928   0.00000  Uiso   1.00
H875   H     0.16691   0.94746   0.37984   0.00000  Uiso   1.00
H876   H     0.13656   0.71817   0.39373   0.00000  Uiso   1.00
I877   I     0.04245   0.73550   0.54955   0.00000  Uiso   1.00
I878   I     0.28730   0.93657   0.45983   0.00000  Uiso   1.00
I879   I     0.29088   0.73551   0.45045   0.00000  Uiso   1.00
I880   I     0.04605   0.93655   0.54023   0.00000  Uiso   1.00
N881   N     0.16667   0.95240   0.50000   0.00000  Uiso   1.00
N882   N     0.16667   0.71427   0.50000   0.00000  Uiso   1.00
N883   N     0.21207   0.71571   0.57303   0.00000  Uiso   1.00
N884   N     0.11771   0.95108   0.43019   0.00000  Uiso   1.00
N885   N     0.12128   0.71571   0.42695   0.00000  Uiso   1.00
N886   N     0.21561   0.95108   0.56982   0.00000  Uiso   1.00
O887   O     0.10559   0.87154   0.50000   0.00000  Uiso   1.00
O888   O     0.22774   0.79513   0.50000   0.00000  Uiso   1.00
O889   O     0.22774   0.87154   0.50000   0.00000  Uiso   1.00
O890   O     0.10559   0.79513   0.50000   0.00000  Uiso   1.00
O891   O     0.16667   0.87155   0.42845   0.00000  Uiso   1.00
O892   O     0.16666   0.79512   0.57155   0.00000  Uiso   1.00
O893   O     0.16666   0.87155   0.57155   0.00000  Uiso   1.00
O894   O     0.16667   0.79512   0.42845   0.00000  Uiso   1.00
Zn895  Zn    0.16667   0.88437   0.50000   0.00000  Uiso   1.00
Zn896  Zn    0.16667   0.78229   0.50000   0.00000  Uiso   1.00
C897   C     0.42025   0.83349   0.50607   0.00000  Uiso   1.00
C898   C     0.35404   0.87556   0.50851   0.00000  Uiso   1.00
C899   C     0.62450   0.83423   0.48783   0.00000  Uiso   1.00
C900   C     0.37550   0.83422   0.51219   0.00000  Uiso   1.00
C901   C     0.52385   0.69090   0.53471   0.00000  Uiso   1.00
C902   C     0.47609   0.97585   0.46538   0.00000  Uiso   1.00
C903   C     0.47615   0.69090   0.46529   0.00000  Uiso   1.00
C904   C     0.52391   0.97585   0.53462   0.00000  Uiso   1.00
C905   C     0.59066   0.71280   0.57742   0.00000  Uiso   1.00
C906   C     0.46556   0.95071   0.37965   0.00000  Uiso   1.00
C907   C     0.40935   0.71281   0.42258   0.00000  Uiso   1.00
C908   C     0.57975   0.83349   0.49393   0.00000  Uiso   1.00
C909   C     0.53441   0.95073   0.62036   0.00000  Uiso   1.00
C910   C     0.49983   0.83332   0.40625   0.00000  Uiso   1.00
C911   C     0.50017   0.83332   0.59375   0.00000  Uiso   1.00
C912   C     0.49995   0.83328   0.35513   0.00000  Uiso   1.00
C913   C     0.50005   0.83328   0.64487   0.00000  Uiso   1.00
C914   C     0.35370   0.79337   0.50938   0.00000  Uiso   1.00
C915   C     0.64596   0.87556   0.49153   0.00000  Uiso   1.00
C916   C     0.64630   0.79338   0.49063   0.00000  Uiso   1.00
H917   H     0.53011   0.71827   0.60623   0.00000  Uiso   1.00
H918   H     0.39966   0.69611   0.38695   0.00000  Uiso   1.00
H919   H     0.39602   0.74731   0.42239   0.00000  Uiso   1.00
H920   H     0.39616   0.69366   0.45393   0.00000  Uiso   1.00
H921   H     0.58079   0.95579   0.56759   0.00000  Uiso   1.00
H922   H     0.54395   0.98179   0.64058   0.00000  Uiso   1.00
H923   H     0.54856   0.92165   0.64077   0.00000  Uiso   1.00
H924   H     0.49974   0.94739   0.62016   0.00000  Uiso   1.00
H925   H     0.60033   0.69608   0.61305   0.00000  Uiso   1.00
H926   H     0.60401   0.74729   0.57764   0.00000  Uiso   1.00
H927   H     0.60385   0.69366   0.54607   0.00000  Uiso   1.00
H928   H     0.41920   0.95579   0.43243   0.00000  Uiso   1.00
H929   H     0.45594   0.98173   0.35938   0.00000  Uiso   1.00
H930   H     0.45147   0.92157   0.35928   0.00000  Uiso   1.00
H931   H     0.50024   0.94746   0.37984   0.00000  Uiso   1.00
H932   H     0.46989   0.71817   0.39373   0.00000  Uiso   1.00
I933   I     0.37579   0.73550   0.54955   0.00000  Uiso   1.00
I934   I     0.62064   0.93657   0.45983   0.00000  Uiso   1.00
I935   I     0.62421   0.73551   0.45045   0.00000  Uiso   1.00
I936   I     0.37938   0.93655   0.54023   0.00000  Uiso   1.00
N937   N     0.50000   0.95240   0.50000   0.00000  Uiso   1.00
N938   N     0.50000   0.71427   0.50000   0.00000  Uiso   1.00
N939   N     0.54540   0.71571   0.57303   0.00000  Uiso   1.00
N940   N     0.45104   0.95108   0.43019   0.00000  Uiso   1.00
N941   N     0.45461   0.71571   0.42695   0.00000  Uiso   1.00
N942   N     0.54895   0.95108   0.56982   0.00000  Uiso   1.00
O943   O     0.43892   0.87154   0.50000   0.00000  Uiso   1.00
O944   O     0.56108   0.79513   0.50000   0.00000  Uiso   1.00
O945   O     0.56108   0.87154   0.50000   0.00000  Uiso   1.00
O946   O     0.43892   0.79513   0.50000   0.00000  Uiso   1.00
O947   O     0.50000   0.87155   0.42845   0.00000  Uiso   1.00
O948   O     0.50000   0.79512   0.57155   0.00000  Uiso   1.00
O949   O     0.50000   0.87155   0.57155   0.00000  Uiso   1.00
O950   O     0.50000   0.79512   0.42845   0.00000  Uiso   1.00
Zn951  Zn    0.50000   0.88437   0.50000   0.00000  Uiso   1.00
Zn952  Zn    0.50000   0.78229   0.50000   0.00000  Uiso   1.00
C953   C     0.75358   0.83349   0.50607   0.00000  Uiso   1.00
C954   C     0.68738   0.87556   0.50851   0.00000  Uiso   1.00
C955   C     0.95784   0.83423   0.48783   0.00000  Uiso   1.00
C956   C     0.70883   0.83422   0.51219   0.00000  Uiso   1.00
C957   C     0.85718   0.69090   0.53471   0.00000  Uiso   1.00
C958   C     0.80942   0.97585   0.46538   0.00000  Uiso   1.00
C959   C     0.80948   0.69090   0.46529   0.00000  Uiso   1.00
C960   C     0.85725   0.97585   0.53462   0.00000  Uiso   1.00
C961   C     0.92399   0.71280   0.57742   0.00000  Uiso   1.00
C962   C     0.79890   0.95071   0.37965   0.00000  Uiso   1.00
C963   C     0.74269   0.71281   0.42258   0.00000  Uiso   1.00
C964   C     0.91308   0.83349   0.49393   0.00000  Uiso   1.00
C965   C     0.86775   0.95073   0.62036   0.00000  Uiso   1.00
C966   C     0.83317   0.83332   0.40625   0.00000  Uiso   1.00
C967   C     0.83350   0.83332   0.59375   0.00000  Uiso   1.00
C968   C     0.83328   0.83328   0.35513   0.00000  Uiso   1.00
C969   C     0.83339   0.83328   0.64487   0.00000  Uiso   1.00
C970   C     0.68703   0.79337   0.50938   0.00000  Uiso   1.00
C971   C     0.97930   0.87556   0.49153   0.00000  Uiso   1.00
C972   C     0.97963   0.79338   0.49063   0.00000  Uiso   1.00
H973   H     0.86344   0.71827   0.60623   0.00000  Uiso   1.00
H974   H     0.73299   0.69611   0.38695   0.00000  Uiso   1.00
H975   H     0.72935   0.74731   0.42239   0.00000  Uiso   1.00
H976   H     0.72950   0.69366   0.45393   0.00000  Uiso   1.00
H977   H     0.91412   0.95579   0.56759   0.00000  Uiso   1.00
H978   H     0.87729   0.98179   0.64058   0.00000  Uiso   1.00
H979   H     0.88190   0.92165   0.64077   0.00000  Uiso   1.00
H980   H     0.83308   0.94739   0.62016   0.00000  Uiso   1.00
H981   H     0.93366   0.69608   0.61305   0.00000  Uiso   1.00
H982   H     0.93734   0.74729   0.57764   0.00000  Uiso   1.00
H983   H     0.93718   0.69366   0.54607   0.00000  Uiso   1.00
H984   H     0.75253   0.95579   0.43243   0.00000  Uiso   1.00
H985   H     0.78928   0.98173   0.35938   0.00000  Uiso   1.00
H986   H     0.78480   0.92157   0.35928   0.00000  Uiso   1.00
H987   H     0.83358   0.94746   0.37984   0.00000  Uiso   1.00
H988   H     0.80322   0.71817   0.39373   0.00000  Uiso   1.00
I989   I     0.70912   0.73550   0.54955   0.00000  Uiso   1.00
I990   I     0.95397   0.93657   0.45983   0.00000  Uiso   1.00
I991   I     0.95754   0.73551   0.45045   0.00000  Uiso   1.00
I992   I     0.71272   0.93655   0.54023   0.00000  Uiso   1.00
N993   N     0.83333   0.95240   0.50000   0.00000  Uiso   1.00
N994   N     0.83333   0.71427   0.50000   0.00000  Uiso   1.00
N995   N     0.87874   0.71571   0.57303   0.00000  Uiso   1.00
N996   N     0.78437   0.95108   0.43019   0.00000  Uiso   1.00
N997   N     0.78794   0.71571   0.42695   0.00000  Uiso   1.00
N998   N     0.88228   0.95108   0.56982   0.00000  Uiso   1.00
O999   O     0.77226   0.87154   0.50000   0.00000  Uiso   1.00
O1000  O     0.89441   0.79513   0.50000   0.00000  Uiso   1.00
O1001  O     0.89441   0.87154   0.50000   0.00000  Uiso   1.00
O1002  O     0.77226   0.79513   0.50000   0.00000  Uiso   1.00
O1003  O     0.83334   0.87155   0.42845   0.00000  Uiso   1.00
O1004  O     0.83333   0.79512   0.57155   0.00000  Uiso   1.00
O1005  O     0.83333   0.87155   0.57155   0.00000  Uiso   1.00
O1006  O     0.83334   0.79512   0.42845   0.00000  Uiso   1.00
Zn1007 Zn    0.83333   0.88437   0.50000   0.00000  Uiso   1.00
Zn1008 Zn    0.83333   0.78229   0.50000   0.00000  Uiso   1.00
C1009  C     0.08692   0.16682   0.83941   0.00000  Uiso   1.00
C1010  C     0.02071   0.20889   0.84184   0.00000  Uiso   1.00
C1011  C     0.29117   0.16756   0.82117   0.00000  Uiso   1.00
C1012  C     0.04217   0.16755   0.84552   0.00000  Uiso   1.00
C1013  C     0.19052   0.02424   0.86805   0.00000  Uiso   1.00
C1014  C     0.14275   0.30919   0.79872   0.00000  Uiso   1.00
C1015  C     0.14282   0.02424   0.79862   0.00000  Uiso   1.00
C1016  C     0.19058   0.30919   0.86795   0.00000  Uiso   1.00
C1017  C     0.25732   0.04613   0.91076   0.00000  Uiso   1.00
C1018  C     0.13223   0.28405   0.71299   0.00000  Uiso   1.00
C1019  C     0.07602   0.04615   0.75592   0.00000  Uiso   1.00
C1020  C     0.24642   0.16683   0.82727   0.00000  Uiso   1.00
C1021  C     0.20108   0.28406   0.95369   0.00000  Uiso   1.00
C1022  C     0.16650   0.16666   0.73958   0.00000  Uiso   1.00
C1023  C     0.16684   0.16666   0.92709   0.00000  Uiso   1.00
C1024  C     0.16662   0.16661   0.68846   0.00000  Uiso   1.00
C1025  C     0.16672   0.16661   0.97821   0.00000  Uiso   1.00
C1026  C     0.02037   0.12671   0.84271   0.00000  Uiso   1.00
C1027  C     0.31263   0.20889   0.82487   0.00000  Uiso   1.00
C1028  C     0.31297   0.12671   0.82397   0.00000  Uiso   1.00
H1029  H     0.19678   0.05161   0.93957   0.00000  Uiso   1.00
H1030  H     0.06633   0.02944   0.72028   0.00000  Uiso   1.00
H1031  H     0.06269   0.08064   0.75572   0.00000  Uiso   1.00
H1032  H     0.06283   0.02700   0.78727   0.00000  Uiso   1.00
H1033  H     0.24745   0.28912   0.90093   0.00000  Uiso   1.00
H1034  H     0.21062   0.31512   0.97392   0.00000  Uiso   1.00
H1035  H     0.21523   0.25499   0.97411   0.00000  Uiso   1.00
H1036  H     0.16641   0.28072   0.95349   0.00000  Uiso   1.00
H1037  H     0.26699   0.02941   0.94639   0.00000  Uiso   1.00
H1038  H     0.27067   0.08062   0.91097   0.00000  Uiso   1.00
H1039  H     0.27052   0.02699   0.87941   0.00000  Uiso   1.00
H1040  H     0.08587   0.28912   0.76576   0.00000  Uiso   1.00
H1041  H     0.12261   0.31506   0.69271   0.00000  Uiso   1.00
H1042  H     0.11813   0.25491   0.69262   0.00000  Uiso   1.00
H1043  H     0.16691   0.28079   0.71318   0.00000  Uiso   1.00
H1044  H     0.13656   0.05150   0.72706   0.00000  Uiso   1.00
I1045  I     0.04245   0.06883   0.88289   0.00000  Uiso   1.00
I1046  I     0.28730   0.26990   0.79316   0.00000  Uiso   1.00
I1047  I     0.29088   0.06884   0.78378   0.00000  Uiso   1.00
I1048  I     0.04605   0.26988   0.87357   0.00000  Uiso   1.00
N1049  N     0.16667   0.28573   0.83333   0.00000  Uiso   1.00
N1050  N     0.16667   0.04760   0.83333   0.00000  Uiso   1.00
N1051  N     0.21207   0.04904   0.90637   0.00000  Uiso   1.00
N1052  N     0.11771   0.28441   0.76352   0.00000  Uiso   1.00
N1053  N     0.12128   0.04904   0.76029   0.00000  Uiso   1.00
N1054  N     0.21561   0.28441   0.90316   0.00000  Uiso   1.00
O1055  O     0.10559   0.20487   0.83333   0.00000  Uiso   1.00
O1056  O     0.22774   0.12846   0.83334   0.00000  Uiso   1.00
O1057  O     0.22774   0.20487   0.83334   0.00000  Uiso   1.00
O1058  O     0.10559   0.12846   0.83333   0.00000  Uiso   1.00
O1059  O     0.16667   0.20488   0.76178   0.00000  Uiso   1.00
O1060  O     0.16666   0.12845   0.90489   0.00000  Uiso   1.00
O1061  O     0.16666   0.20488   0.90489   0.00000  Uiso   1.00
O1062  O     0.16667   0.12845   0.76178   0.00000  Uiso   1.00
Zn1063 Zn    0.16667   0.21771   0.83333   0.00000  Uiso   1.00
Zn1064 Zn    0.16667   0.11563   0.83333   0.00000  Uiso   1.00
C1065  C     0.42025   0.16682   0.83941   0.00000  Uiso   1.00
C1066  C     0.35404   0.20889   0.84184   0.00000  Uiso   1.00
C1067  C     0.62450   0.16756   0.82117   0.00000  Uiso   1.00
C1068  C     0.37550   0.16755   0.84552   0.00000  Uiso   1.00
C1069  C     0.52385   0.02424   0.86805   0.00000  Uiso   1.00
C1070  C     0.47609   0.30919   0.79872   0.00000  Uiso   1.00
C1071  C     0.47615   0.02424   0.79862   0.00000  Uiso   1.00
C1072  C     0.52391   0.30919   0.86795   0.00000  Uiso   1.00
C1073  C     0.59066   0.04613   0.91076   0.00000  Uiso   1.00
C1074  C     0.46556   0.28405   0.71299   0.00000  Uiso   1.00
C1075  C     0.40935   0.04615   0.75592   0.00000  Uiso   1.00
C1076  C     0.57975   0.16683   0.82727   0.00000  Uiso   1.00
C1077  C     0.53441   0.28406   0.95369   0.00000  Uiso   1.00
C1078  C     0.49983   0.16666   0.73958   0.00000  Uiso   1.00
C1079  C     0.50017   0.16666   0.92709   0.00000  Uiso   1.00
C1080  C     0.49995   0.16661   0.68846   0.00000  Uiso   1.00
C1081  C     0.50005   0.16661   0.97821   0.00000  Uiso   1.00
C1082  C     0.35370   0.12671   0.84271   0.00000  Uiso   1.00
C1083  C     0.64596   0.20889   0.82487   0.00000  Uiso   1.00
C1084  C     0.64630   0.12671   0.82397   0.00000  Uiso   1.00
H1085  H     0.53011   0.05161   0.93957   0.00000  Uiso   1.00
H1086  H     0.39966   0.02944   0.72028   0.00000  Uiso   1.00
H1087  H     0.39602   0.08064   0.75572   0.00000  Uiso   1.00
H1088  H     0.39616   0.02700   0.78727   0.00000  Uiso   1.00
H1089  H     0.58079   0.28912   0.90093   0.00000  Uiso   1.00
H1090  H     0.54395   0.31512   0.97392   0.00000  Uiso   1.00
H1091  H     0.54856   0.25499   0.97411   0.00000  Uiso   1.00
H1092  H     0.49974   0.28072   0.95349   0.00000  Uiso   1.00
H1093  H     0.60033   0.02941   0.94639   0.00000  Uiso   1.00
H1094  H     0.60401   0.08062   0.91097   0.00000  Uiso   1.00
H1095  H     0.60385   0.02699   0.87941   0.00000  Uiso   1.00
H1096  H     0.41920   0.28912   0.76576   0.00000  Uiso   1.00
H1097  H     0.45594   0.31506   0.69271   0.00000  Uiso   1.00
H1098  H     0.45147   0.25491   0.69262   0.00000  Uiso   1.00
H1099  H     0.50024   0.28079   0.71318   0.00000  Uiso   1.00
H1100  H     0.46989   0.05150   0.72706   0.00000  Uiso   1.00
I1101  I     0.37579   0.06883   0.88289   0.00000  Uiso   1.00
I1102  I     0.62064   0.26990   0.79316   0.00000  Uiso   1.00
I1103  I     0.62421   0.06884   0.78378   0.00000  Uiso   1.00
I1104  I     0.37938   0.26988   0.87357   0.00000  Uiso   1.00
N1105  N     0.50000   0.28573   0.83333   0.00000  Uiso   1.00
N1106  N     0.50000   0.04760   0.83333   0.00000  Uiso   1.00
N1107  N     0.54540   0.04904   0.90637   0.00000  Uiso   1.00
N1108  N     0.45104   0.28441   0.76352   0.00000  Uiso   1.00
N1109  N     0.45461   0.04904   0.76029   0.00000  Uiso   1.00
N1110  N     0.54895   0.28441   0.90316   0.00000  Uiso   1.00
O1111  O     0.43892   0.20487   0.83333   0.00000  Uiso   1.00
O1112  O     0.56108   0.12846   0.83334   0.00000  Uiso   1.00
O1113  O     0.56108   0.20487   0.83334   0.00000  Uiso   1.00
O1114  O     0.43892   0.12846   0.83333   0.00000  Uiso   1.00
O1115  O     0.50000   0.20488   0.76178   0.00000  Uiso   1.00
O1116  O     0.50000   0.12845   0.90489   0.00000  Uiso   1.00
O1117  O     0.50000   0.20488   0.90489   0.00000  Uiso   1.00
O1118  O     0.50000   0.12845   0.76178   0.00000  Uiso   1.00
Zn1119 Zn    0.50000   0.21771   0.83333   0.00000  Uiso   1.00
Zn1120 Zn    0.50000   0.11563   0.83333   0.00000  Uiso   1.00
C1121  C     0.75358   0.16682   0.83941   0.00000  Uiso   1.00
C1122  C     0.68738   0.20889   0.84184   0.00000  Uiso   1.00
C1123  C     0.95784   0.16756   0.82117   0.00000  Uiso   1.00
C1124  C     0.70883   0.16755   0.84552   0.00000  Uiso   1.00
C1125  C     0.85718   0.02424   0.86805   0.00000  Uiso   1.00
C1126  C     0.80942   0.30919   0.79872   0.00000  Uiso   1.00
C1127  C     0.80948   0.02424   0.79862   0.00000  Uiso   1.00
C1128  C     0.85725   0.30919   0.86795   0.00000  Uiso   1.00
C1129  C     0.92399   0.04613   0.91076   0.00000  Uiso   1.00
C1130  C     0.79890   0.28405   0.71299   0.00000  Uiso   1.00
C1131  C     0.74269   0.04615   0.75592   0.00000  Uiso   1.00
C1132  C     0.91308   0.16683   0.82727   0.00000  Uiso   1.00
C1133  C     0.86775   0.28406   0.95369   0.00000  Uiso   1.00
C1134  C     0.83317   0.16666   0.73958   0.00000  Uiso   1.00
C1135  C     0.83350   0.16666   0.92709   0.00000  Uiso   1.00
C1136  C     0.83328   0.16661   0.68846   0.00000  Uiso   1.00
C1137  C     0.83339   0.16661   0.97821   0.00000  Uiso   1.00
C1138  C     0.68703   0.12671   0.84271   0.00000  Uiso   1.00
C1139  C     0.97930   0.20889   0.82487   0.00000  Uiso   1.00
C1140  C     0.97963   0.12671   0.82397   0.00000  Uiso   1.00
H1141  H     0.86344   0.05161   0.93957   0.00000  Uiso   1.00
H1142  H     0.73299   0.02944   0.72028   0.00000  Uiso   1.00
H1143  H     0.72935   0.08064   0.75572   0.00000  Uiso   1.00
H1144  H     0.72950   0.02700   0.78727   0.00000  Uiso   1.00
H1145  H     0.91412   0.28912   0.90093   0.00000  Uiso   1.00
H1146  H     0.87729   0.31512   0.97392   0.00000  Uiso   1.00
H1147  H     0.88190   0.25499   0.97411   0.00000  Uiso   1.00
H1148  H     0.83308   0.28072   0.95349   0.00000  Uiso   1.00
H1149  H     0.93366   0.02941   0.94639   0.00000  Uiso   1.00
H1150  H     0.93734   0.08062   0.91097   0.00000  Uiso   1.00
H1151  H     0.93718   0.02699   0.87941   0.00000  Uiso   1.00
H1152  H     0.75253   0.28912   0.76576   0.00000  Uiso   1.00
H1153  H     0.78928   0.31506   0.69271   0.00000  Uiso   1.00
H1154  H     0.78480   0.25491   0.69262   0.00000  Uiso   1.00
H1155  H     0.83358   0.28079   0.71318   0.00000  Uiso   1.00
H1156  H     0.80322   0.05150   0.72706   0.00000  Uiso   1.00
I1157  I     0.70912   0.06883   0.88289   0.00000  Uiso   1.00
I1158  I     0.95397   0.26990   0.79316   0.00000  Uiso   1.00
I1159  I     0.95754   0.06884   0.78378   0.00000  Uiso   1.00
I1160  I     0.71272   0.26988   0.87357   0.00000  Uiso   1.00
N1161  N     0.83333   0.28573   0.83333   0.00000  Uiso   1.00
N1162  N     0.83333   0.04760   0.83333   0.00000  Uiso   1.00
N1163  N     0.87874   0.04904   0.90637   0.00000  Uiso   1.00
N1164  N     0.78437   0.28441   0.76352   0.00000  Uiso   1.00
N1165  N     0.78794   0.04904   0.76029   0.00000  Uiso   1.00
N1166  N     0.88228   0.28441   0.90316   0.00000  Uiso   1.00
O1167  O     0.77226   0.20487   0.83333   0.00000  Uiso   1.00
O1168  O     0.89441   0.12846   0.83334   0.00000  Uiso   1.00
O1169  O     0.89441   0.20487   0.83334   0.00000  Uiso   1.00
O1170  O     0.77226   0.12846   0.83333   0.00000  Uiso   1.00
O1171  O     0.83334   0.20488   0.76178   0.00000  Uiso   1.00
O1172  O     0.83333   0.12845   0.90489   0.00000  Uiso   1.00
O1173  O     0.83333   0.20488   0.90489   0.00000  Uiso   1.00
O1174  O     0.83334   0.12845   0.76178   0.00000  Uiso   1.00
Zn1175 Zn    0.83333   0.21771   0.83333   0.00000  Uiso   1.00
Zn1176 Zn    0.83333   0.11563   0.83333   0.00000  Uiso   1.00
C1177  C     0.08692   0.50016   0.83941   0.00000  Uiso   1.00
C1178  C     0.02071   0.54222   0.84184   0.00000  Uiso   1.00
C1179  C     0.29117   0.50089   0.82117   0.00000  Uiso   1.00
C1180  C     0.04217   0.50089   0.84552   0.00000  Uiso   1.00
C1181  C     0.19052   0.35757   0.86805   0.00000  Uiso   1.00
C1182  C     0.14275   0.64252   0.79872   0.00000  Uiso   1.00
C1183  C     0.14282   0.35757   0.79862   0.00000  Uiso   1.00
C1184  C     0.19058   0.64252   0.86795   0.00000  Uiso   1.00
C1185  C     0.25732   0.37947   0.91076   0.00000  Uiso   1.00
C1186  C     0.13223   0.61738   0.71299   0.00000  Uiso   1.00
C1187  C     0.07602   0.37948   0.75592   0.00000  Uiso   1.00
C1188  C     0.24642   0.50016   0.82727   0.00000  Uiso   1.00
C1189  C     0.20108   0.61740   0.95369   0.00000  Uiso   1.00
C1190  C     0.16650   0.49999   0.73958   0.00000  Uiso   1.00
C1191  C     0.16684   0.49999   0.92709   0.00000  Uiso   1.00
C1192  C     0.16662   0.49995   0.68846   0.00000  Uiso   1.00
C1193  C     0.16672   0.49995   0.97821   0.00000  Uiso   1.00
C1194  C     0.02037   0.46004   0.84271   0.00000  Uiso   1.00
C1195  C     0.31263   0.54223   0.82487   0.00000  Uiso   1.00
C1196  C     0.31297   0.46004   0.82397   0.00000  Uiso   1.00
H1197  H     0.19678   0.38494   0.93957   0.00000  Uiso   1.00
H1198  H     0.06633   0.36277   0.72028   0.00000  Uiso   1.00
H1199  H     0.06269   0.41397   0.75572   0.00000  Uiso   1.00
H1200  H     0.06283   0.36033   0.78727   0.00000  Uiso   1.00
H1201  H     0.24745   0.62245   0.90093   0.00000  Uiso   1.00
H1202  H     0.21062   0.64846   0.97392   0.00000  Uiso   1.00
H1203  H     0.21523   0.58832   0.97411   0.00000  Uiso   1.00
H1204  H     0.16641   0.61406   0.95349   0.00000  Uiso   1.00
H1205  H     0.26699   0.36274   0.94639   0.00000  Uiso   1.00
H1206  H     0.27067   0.41396   0.91097   0.00000  Uiso   1.00
H1207  H     0.27052   0.36033   0.87941   0.00000  Uiso   1.00
H1208  H     0.08587   0.62245   0.76576   0.00000  Uiso   1.00
H1209  H     0.12261   0.64840   0.69271   0.00000  Uiso   1.00
H1210  H     0.11813   0.58824   0.69262   0.00000  Uiso   1.00
H1211  H     0.16691   0.61413   0.71318   0.00000  Uiso   1.00
H1212  H     0.13656   0.38484   0.72706   0.00000  Uiso   1.00
I1213  I     0.04245   0.40217   0.88289   0.00000  Uiso   1.00
I1214  I     0.28730   0.60323   0.79316   0.00000  Uiso   1.00
I1215  I     0.29088   0.40217   0.78378   0.00000  Uiso   1.00
I1216  I     0.04605   0.60322   0.87357   0.00000  Uiso   1.00
N1217  N     0.16667   0.61907   0.83333   0.00000  Uiso   1.00
N1218  N     0.16667   0.38093   0.83333   0.00000  Uiso   1.00
N1219  N     0.21207   0.38238   0.90637   0.00000  Uiso   1.00
N1220  N     0.11771   0.61774   0.76352   0.00000  Uiso   1.00
N1221  N     0.12128   0.38237   0.76029   0.00000  Uiso   1.00
N1222  N     0.21561   0.61774   0.90316   0.00000  Uiso   1.00
O1223  O     0.10559   0.53821   0.83333   0.00000  Uiso   1.00
O1224  O     0.22774   0.46179   0.83334   0.00000  Uiso   1.00
O1225  O     0.22774   0.53821   0.83334   0.00000  Uiso   1.00
O1226  O     0.10559   0.46179   0.83333   0.00000  Uiso   1.00
O1227  O     0.16667   0.53821   0.76178   0.00000  Uiso   1.00
O1228  O     0.16666   0.46179   0.90489   0.00000  Uiso   1.00
O1229  O     0.16666   0.53821   0.90489   0.00000  Uiso   1.00
O1230  O     0.16667   0.46179   0.76178   0.00000  Uiso   1.00
Zn1231 Zn    0.16667   0.55104   0.83333   0.00000  Uiso   1.00
Zn1232 Zn    0.16667   0.44896   0.83333   0.00000  Uiso   1.00
C1233  C     0.42025   0.50016   0.83941   0.00000  Uiso   1.00
C1234  C     0.35404   0.54222   0.84184   0.00000  Uiso   1.00
C1235  C     0.62450   0.50089   0.82117   0.00000  Uiso   1.00
C1236  C     0.37550   0.50089   0.84552   0.00000  Uiso   1.00
C1237  C     0.52385   0.35757   0.86805   0.00000  Uiso   1.00
C1238  C     0.47609   0.64252   0.79872   0.00000  Uiso   1.00
C1239  C     0.47615   0.35757   0.79862   0.00000  Uiso   1.00
C1240  C     0.52391   0.64252   0.86795   0.00000  Uiso   1.00
C1241  C     0.59066   0.37947   0.91076   0.00000  Uiso   1.00
C1242  C     0.46556   0.61738   0.71299   0.00000  Uiso   1.00
C1243  C     0.40935   0.37948   0.75592   0.00000  Uiso   1.00
C1244  C     0.57975   0.50016   0.82727   0.00000  Uiso   1.00
C1245  C     0.53441   0.61740   0.95369   0.00000  Uiso   1.00
C1246  C     0.49983   0.49999   0.73958   0.00000  Uiso   1.00
C1247  C     0.50017   0.49999   0.92709   0.00000  Uiso   1.00
C1248  C     0.49995   0.49995   0.68846   0.00000  Uiso   1.00
C1249  C     0.50005   0.49995   0.97821   0.00000  Uiso   1.00
C1250  C     0.35370   0.46004   0.84271   0.00000  Uiso   1.00
C1251  C     0.64596   0.54223   0.82487   0.00000  Uiso   1.00
C1252  C     0.64630   0.46004   0.82397   0.00000  Uiso   1.00
H1253  H     0.53011   0.38494   0.93957   0.00000  Uiso   1.00
H1254  H     0.39966   0.36277   0.72028   0.00000  Uiso   1.00
H1255  H     0.39602   0.41397   0.75572   0.00000  Uiso   1.00
H1256  H     0.39616   0.36033   0.78727   0.00000  Uiso   1.00
H1257  H     0.58079   0.62245   0.90093   0.00000  Uiso   1.00
H1258  H     0.54395   0.64846   0.97392   0.00000  Uiso   1.00
H1259  H     0.54856   0.58832   0.97411   0.00000  Uiso   1.00
H1260  H     0.49974   0.61406   0.95349   0.00000  Uiso   1.00
H1261  H     0.60033   0.36274   0.94639   0.00000  Uiso   1.00
H1262  H     0.60401   0.41396   0.91097   0.00000  Uiso   1.00
H1263  H     0.60385   0.36033   0.87941   0.00000  Uiso   1.00
H1264  H     0.41920   0.62245   0.76576   0.00000  Uiso   1.00
H1265  H     0.45594   0.64840   0.69271   0.00000  Uiso   1.00
H1266  H     0.45147   0.58824   0.69262   0.00000  Uiso   1.00
H1267  H     0.50024   0.61413   0.71318   0.00000  Uiso   1.00
H1268  H     0.46989   0.38484   0.72706   0.00000  Uiso   1.00
I1269  I     0.37579   0.40217   0.88289   0.00000  Uiso   1.00
I1270  I     0.62064   0.60323   0.79316   0.00000  Uiso   1.00
I1271  I     0.62421   0.40217   0.78378   0.00000  Uiso   1.00
I1272  I     0.37938   0.60322   0.87357   0.00000  Uiso   1.00
N1273  N     0.50000   0.61907   0.83333   0.00000  Uiso   1.00
N1274  N     0.50000   0.38093   0.83333   0.00000  Uiso   1.00
N1275  N     0.54540   0.38238   0.90637   0.00000  Uiso   1.00
N1276  N     0.45104   0.61774   0.76352   0.00000  Uiso   1.00
N1277  N     0.45461   0.38237   0.76029   0.00000  Uiso   1.00
N1278  N     0.54895   0.61774   0.90316   0.00000  Uiso   1.00
O1279  O     0.43892   0.53821   0.83333   0.00000  Uiso   1.00
O1280  O     0.56108   0.46179   0.83334   0.00000  Uiso   1.00
O1281  O     0.56108   0.53821   0.83334   0.00000  Uiso   1.00
O1282  O     0.43892   0.46179   0.83333   0.00000  Uiso   1.00
O1283  O     0.50000   0.53821   0.76178   0.00000  Uiso   1.00
O1284  O     0.50000   0.46179   0.90489   0.00000  Uiso   1.00
O1285  O     0.50000   0.53821   0.90489   0.00000  Uiso   1.00
O1286  O     0.50000   0.46179   0.76178   0.00000  Uiso   1.00
Zn1287 Zn    0.50000   0.55104   0.83333   0.00000  Uiso   1.00
Zn1288 Zn    0.50000   0.44896   0.83333   0.00000  Uiso   1.00
C1289  C     0.75358   0.50016   0.83941   0.00000  Uiso   1.00
C1290  C     0.68738   0.54222   0.84184   0.00000  Uiso   1.00
C1291  C     0.95784   0.50089   0.82117   0.00000  Uiso   1.00
C1292  C     0.70883   0.50089   0.84552   0.00000  Uiso   1.00
C1293  C     0.85718   0.35757   0.86805   0.00000  Uiso   1.00
C1294  C     0.80942   0.64252   0.79872   0.00000  Uiso   1.00
C1295  C     0.80948   0.35757   0.79862   0.00000  Uiso   1.00
C1296  C     0.85725   0.64252   0.86795   0.00000  Uiso   1.00
C1297  C     0.92399   0.37947   0.91076   0.00000  Uiso   1.00
C1298  C     0.79890   0.61738   0.71299   0.00000  Uiso   1.00
C1299  C     0.74269   0.37948   0.75592   0.00000  Uiso   1.00
C1300  C     0.91308   0.50016   0.82727   0.00000  Uiso   1.00
C1301  C     0.86775   0.61740   0.95369   0.00000  Uiso   1.00
C1302  C     0.83317   0.49999   0.73958   0.00000  Uiso   1.00
C1303  C     0.83350   0.49999   0.92709   0.00000  Uiso   1.00
C1304  C     0.83328   0.49995   0.68846   0.00000  Uiso   1.00
C1305  C     0.83339   0.49995   0.97821   0.00000  Uiso   1.00
C1306  C     0.68703   0.46004   0.84271   0.00000  Uiso   1.00
C1307  C     0.97930   0.54223   0.82487   0.00000  Uiso   1.00
C1308  C     0.97963   0.46004   0.82397   0.00000  Uiso   1.00
H1309  H     0.86344   0.38494   0.93957   0.00000  Uiso   1.00
H1310  H     0.73299   0.36277   0.72028   0.00000  Uiso   1.00
H1311  H     0.72935   0.41397   0.75572   0.00000  Uiso   1.00
H1312  H     0.72950   0.36033   0.78727   0.00000  Uiso   1.00
H1313  H     0.91412   0.62245   0.90093   0.00000  Uiso   1.00
H1314  H     0.87729   0.64846   0.97392   0.00000  Uiso   1.00
H1315  H     0.88190   0.58832   0.97411   0.00000  Uiso   1.00
H1316  H     0.83308   0.61406   0.95349   0.00000  Uiso   1.00
H1317  H     0.93366   0.36274   0.94639   0.00000  Uiso   1.00
H1318  H     0.93734   0.41396   0.91097   0.00000  Uiso   1.00
H1319  H     0.93718   0.36033   0.87941   0.00000  Uiso   1.00
H1320  H     0.75253   0.62245   0.76576   0.00000  Uiso   1.00
H1321  H     0.78928   0.64840   0.69271   0.00000  Uiso   1.00
H1322  H     0.78480   0.58824   0.69262   0.00000  Uiso   1.00
H1323  H     0.83358   0.61413   0.71318   0.00000  Uiso   1.00
H1324  H     0.80322   0.38484   0.72706   0.00000  Uiso   1.00
I1325  I     0.70912   0.40217   0.88289   0.00000  Uiso   1.00
I1326  I     0.95397   0.60323   0.79316   0.00000  Uiso   1.00
I1327  I     0.95754   0.40217   0.78378   0.00000  Uiso   1.00
I1328  I     0.71272   0.60322   0.87357   0.00000  Uiso   1.00
N1329  N     0.83333   0.61907   0.83333   0.00000  Uiso   1.00
N1330  N     0.83333   0.38093   0.83333   0.00000  Uiso   1.00
N1331  N     0.87874   0.38238   0.90637   0.00000  Uiso   1.00
N1332  N     0.78437   0.61774   0.76352   0.00000  Uiso   1.00
N1333  N     0.78794   0.38237   0.76029   0.00000  Uiso   1.00
N1334  N     0.88228   0.61774   0.90316   0.00000  Uiso   1.00
O1335  O     0.77226   0.53821   0.83333   0.00000  Uiso   1.00
O1336  O     0.89441   0.46179   0.83334   0.00000  Uiso   1.00
O1337  O     0.89441   0.53821   0.83334   0.00000  Uiso   1.00
O1338  O     0.77226   0.46179   0.83333   0.00000  Uiso   1.00
O1339  O     0.83334   0.53821   0.76178   0.00000  Uiso   1.00
O1340  O     0.83333   0.46179   0.90489   0.00000  Uiso   1.00
O1341  O     0.83333   0.53821   0.90489   0.00000  Uiso   1.00
O1342  O     0.83334   0.46179   0.76178   0.00000  Uiso   1.00
Zn1343 Zn    0.83333   0.55104   0.83333   0.00000  Uiso   1.00
Zn1344 Zn    0.83333   0.44896   0.83333   0.00000  Uiso   1.00
C1345  C     0.08692   0.83349   0.83941   0.00000  Uiso   1.00
C1346  C     0.02071   0.87556   0.84184   0.00000  Uiso   1.00
C1347  C     0.29117   0.83423   0.82117   0.00000  Uiso   1.00
C1348  C     0.04217   0.83422   0.84552   0.00000  Uiso   1.00
C1349  C     0.19052   0.69090   0.86805   0.00000  Uiso   1.00
C1350  C     0.14275   0.97585   0.79872   0.00000  Uiso   1.00
C1351  C     0.14282   0.69090   0.79862   0.00000  Uiso   1.00
C1352  C     0.19058   0.97585   0.86795   0.00000  Uiso   1.00
C1353  C     0.25732   0.71280   0.91076   0.00000  Uiso   1.00
C1354  C     0.13223   0.95071   0.71299   0.00000  Uiso   1.00
C1355  C     0.07602   0.71281   0.75592   0.00000  Uiso   1.00
C1356  C     0.24642   0.83349   0.82727   0.00000  Uiso   1.00
C1357  C     0.20108   0.95073   0.95369   0.00000  Uiso   1.00
C1358  C     0.16650   0.83332   0.73958   0.00000  Uiso   1.00
C1359  C     0.16684   0.83332   0.92709   0.00000  Uiso   1.00
C1360  C     0.16662   0.83328   0.68846   0.00000  Uiso   1.00
C1361  C     0.16672   0.83328   0.97821   0.00000  Uiso   1.00
C1362  C     0.02037   0.79337   0.84271   0.00000  Uiso   1.00
C1363  C     0.31263   0.87556   0.82487   0.00000  Uiso   1.00
C1364  C     0.31297   0.79338   0.82397   0.00000  Uiso   1.00
H1365  H     0.19678   0.71827   0.93957   0.00000  Uiso   1.00
H1366  H     0.06633   0.69611   0.72028   0.00000  Uiso   1.00
H1367  H     0.06269   0.74731   0.75572   0.00000  Uiso   1.00
H1368  H     0.06283   0.69366   0.78727   0.00000  Uiso   1.00
H1369  H     0.24745   0.95579   0.90093   0.00000  Uiso   1.00
H1370  H     0.21062   0.98179   0.97392   0.00000  Uiso   1.00
H1371  H     0.21523   0.92165   0.97411   0.00000  Uiso   1.00
H1372  H     0.16641   0.94739   0.95349   0.00000  Uiso   1.00
H1373  H     0.26699   0.69608   0.94639   0.00000  Uiso   1.00
H1374  H     0.27067   0.74729   0.91097   0.00000  Uiso   1.00
H1375  H     0.27052   0.69366   0.87941   0.00000  Uiso   1.00
H1376  H     0.08587   0.95579   0.76576   0.00000  Uiso   1.00
H1377  H     0.12261   0.98173   0.69271   0.00000  Uiso   1.00
H1378  H     0.11813   0.92157   0.69262   0.00000  Uiso   1.00
H1379  H     0.16691   0.94746   0.71318   0.00000  Uiso   1.00
H1380  H     0.13656   0.71817   0.72706   0.00000  Uiso   1.00
I1381  I     0.04245   0.73550   0.88289   0.00000  Uiso   1.00
I1382  I     0.28730   0.93657   0.79316   0.00000  Uiso   1.00
I1383  I     0.29088   0.73551   0.78378   0.00000  Uiso   1.00
I1384  I     0.04605   0.93655   0.87357   0.00000  Uiso   1.00
N1385  N     0.16667   0.95240   0.83333   0.00000  Uiso   1.00
N1386  N     0.16667   0.71427   0.83333   0.00000  Uiso   1.00
N1387  N     0.21207   0.71571   0.90637   0.00000  Uiso   1.00
N1388  N     0.11771   0.95108   0.76352   0.00000  Uiso   1.00
N1389  N     0.12128   0.71571   0.76029   0.00000  Uiso   1.00
N1390  N     0.21561   0.95108   0.90316   0.00000  Uiso   1.00
O1391  O     0.10559   0.87154   0.83333   0.00000  Uiso   1.00
O1392  O     0.22774   0.79513   0.83334   0.00000  Uiso   1.00
O1393  O     0.22774   0.87154   0.83334   0.00000  Uiso   1.00
O1394  O     0.10559   0.79513   0.83333   0.00000  Uiso   1.00
O1395  O     0.16667   0.87155   0.76178   0.00000  Uiso   1.00
O1396  O     0.16666   0.79512   0.90489   0.00000  Uiso   1.00
O1397  O     0.16666   0.87155   0.90489   0.00000  Uiso   1.00
O1398  O     0.16667   0.79512   0.76178   0.00000  Uiso   1.00
Zn1399 Zn    0.16667   0.88437   0.83333   0.00000  Uiso   1.00
Zn1400 Zn    0.16667   0.78229   0.83333   0.00000  Uiso   1.00
C1401  C     0.42025   0.83349   0.83941   0.00000  Uiso   1.00
C1402  C     0.35404   0.87556   0.84184   0.00000  Uiso   1.00
C1403  C     0.62450   0.83423   0.82117   0.00000  Uiso   1.00
C1404  C     0.37550   0.83422   0.84552   0.00000  Uiso   1.00
C1405  C     0.52385   0.69090   0.86805   0.00000  Uiso   1.00
C1406  C     0.47609   0.97585   0.79872   0.00000  Uiso   1.00
C1407  C     0.47615   0.69090   0.79862   0.00000  Uiso   1.00
C1408  C     0.52391   0.97585   0.86795   0.00000  Uiso   1.00
C1409  C     0.59066   0.71280   0.91076   0.00000  Uiso   1.00
C1410  C     0.46556   0.95071   0.71299   0.00000  Uiso   1.00
C1411  C     0.40935   0.71281   0.75592   0.00000  Uiso   1.00
C1412  C     0.57975   0.83349   0.82727   0.00000  Uiso   1.00
C1413  C     0.53441   0.95073   0.95369   0.00000  Uiso   1.00
C1414  C     0.49983   0.83332   0.73958   0.00000  Uiso   1.00
C1415  C     0.50017   0.83332   0.92709   0.00000  Uiso   1.00
C1416  C     0.49995   0.83328   0.68846   0.00000  Uiso   1.00
C1417  C     0.50005   0.83328   0.97821   0.00000  Uiso   1.00
C1418  C     0.35370   0.79337   0.84271   0.00000  Uiso   1.00
C1419  C     0.64596   0.87556   0.82487   0.00000  Uiso   1.00
C1420  C     0.64630   0.79338   0.82397   0.00000  Uiso   1.00
H1421  H     0.53011   0.71827   0.93957   0.00000  Uiso   1.00
H1422  H     0.39966   0.69611   0.72028   0.00000  Uiso   1.00
H1423  H     0.39602   0.74731   0.75572   0.00000  Uiso   1.00
H1424  H     0.39616   0.69366   0.78727   0.00000  Uiso   1.00
H1425  H     0.58079   0.95579   0.90093   0.00000  Uiso   1.00
H1426  H     0.54395   0.98179   0.97392   0.00000  Uiso   1.00
H1427  H     0.54856   0.92165   0.97411   0.00000  Uiso   1.00
H1428  H     0.49974   0.94739   0.95349   0.00000  Uiso   1.00
H1429  H     0.60033   0.69608   0.94639   0.00000  Uiso   1.00
H1430  H     0.60401   0.74729   0.91097   0.00000  Uiso   1.00
H1431  H     0.60385   0.69366   0.87941   0.00000  Uiso   1.00
H1432  H     0.41920   0.95579   0.76576   0.00000  Uiso   1.00
H1433  H     0.45594   0.98173   0.69271   0.00000  Uiso   1.00
H1434  H     0.45147   0.92157   0.69262   0.00000  Uiso   1.00
H1435  H     0.50024   0.94746   0.71318   0.00000  Uiso   1.00
H1436  H     0.46989   0.71817   0.72706   0.00000  Uiso   1.00
I1437  I     0.37579   0.73550   0.88289   0.00000  Uiso   1.00
I1438  I     0.62064   0.93657   0.79316   0.00000  Uiso   1.00
I1439  I     0.62421   0.73551   0.78378   0.00000  Uiso   1.00
I1440  I     0.37938   0.93655   0.87357   0.00000  Uiso   1.00
N1441  N     0.50000   0.95240   0.83333   0.00000  Uiso   1.00
N1442  N     0.50000   0.71427   0.83333   0.00000  Uiso   1.00
N1443  N     0.54540   0.71571   0.90637   0.00000  Uiso   1.00
N1444  N     0.45104   0.95108   0.76352   0.00000  Uiso   1.00
N1445  N     0.45461   0.71571   0.76029   0.00000  Uiso   1.00
N1446  N     0.54895   0.95108   0.90316   0.00000  Uiso   1.00
O1447  O     0.43892   0.87154   0.83333   0.00000  Uiso   1.00
O1448  O     0.56108   0.79513   0.83334   0.00000  Uiso   1.00
O1449  O     0.56108   0.87154   0.83334   0.00000  Uiso   1.00
O1450  O     0.43892   0.79513   0.83333   0.00000  Uiso   1.00
O1451  O     0.50000   0.87155   0.76178   0.00000  Uiso   1.00
O1452  O     0.50000   0.79512   0.90489   0.00000  Uiso   1.00
O1453  O     0.50000   0.87155   0.90489   0.00000  Uiso   1.00
O1454  O     0.50000   0.79512   0.76178   0.00000  Uiso   1.00
Zn1455 Zn    0.50000   0.88437   0.83333   0.00000  Uiso   1.00
Zn1456 Zn    0.50000   0.78229   0.83333   0.00000  Uiso   1.00
C1457  C     0.75358   0.83349   0.83941   0.00000  Uiso   1.00
C1458  C     0.68738   0.87556   0.84184   0.00000  Uiso   1.00
C1459  C     0.95784   0.83423   0.82117   0.00000  Uiso   1.00
C1460  C     0.70883   0.83422   0.84552   0.00000  Uiso   1.00
C1461  C     0.85718   0.69090   0.86805   0.00000  Uiso   1.00
C1462  C     0.80942   0.97585   0.79872   0.00000  Uiso   1.00
C1463  C     0.80948   0.69090   0.79862   0.00000  Uiso   1.00
C1464  C     0.85725   0.97585   0.86795   0.00000  Uiso   1.00
C1465  C     0.92399   0.71280   0.91076   0.00000  Uiso   1.00
C1466  C     0.79890   0.95071   0.71299   0.00000  Uiso   1.00
C1467  C     0.74269   0.71281   0.75592   0.00000  Uiso   1.00
C1468  C     0.91308   0.83349   0.82727   0.00000  Uiso   1.00
C1469  C     0.86775   0.95073   0.95369   0.00000  Uiso   1.00
C1470  C     0.83317   0.83332   0.73958   0.00000  Uiso   1.00
C1471  C     0.83350   0.83332   0.92709   0.00000  Uiso   1.00
C1472  C     0.83328   0.83328   0.68846   0.00000  Uiso   1.00
C1473  C     0.83339   0.83328   0.97821   0.00000  Uiso   1.00
C1474  C     0.68703   0.79337   0.84271   0.00000  Uiso   1.00
C1475  C     0.97930   0.87556   0.82487   0.00000  Uiso   1.00
C1476  C     0.97963   0.79338   0.82397   0.00000  Uiso   1.00
H1477  H     0.86344   0.71827   0.93957   0.00000  Uiso   1.00
H1478  H     0.73299   0.69611   0.72028   0.00000  Uiso   1.00
H1479  H     0.72935   0.74731   0.75572   0.00000  Uiso   1.00
H1480  H     0.72950   0.69366   0.78727   0.00000  Uiso   1.00
H1481  H     0.91412   0.95579   0.90093   0.00000  Uiso   1.00
H1482  H     0.87729   0.98179   0.97392   0.00000  Uiso   1.00
H1483  H     0.88190   0.92165   0.97411   0.00000  Uiso   1.00
H1484  H     0.83308   0.94739   0.95349   0.00000  Uiso   1.00
H1485  H     0.93366   0.69608   0.94639   0.00000  Uiso   1.00
H1486  H     0.93734   0.74729   0.91097   0.00000  Uiso   1.00
H1487  H     0.93718   0.69366   0.87941   0.00000  Uiso   1.00
H1488  H     0.75253   0.95579   0.76576   0.00000  Uiso   1.00
H1489  H     0.78928   0.98173   0.69271   0.00000  Uiso   1.00
H1490  H     0.78480   0.92157   0.69262   0.00000  Uiso   1.00
H1491  H     0.83358   0.94746   0.71318   0.00000  Uiso   1.00
H1492  H     0.80322   0.71817   0.72706   0.00000  Uiso   1.00
I1493  I     0.70912   0.73550   0.88289   0.00000  Uiso   1.00
I1494  I     0.95397   0.93657   0.79316   0.00000  Uiso   1.00
I1495  I     0.95754   0.73551   0.78378   0.00000  Uiso   1.00
I1496  I     0.71272   0.93655   0.87357   0.00000  Uiso   1.00
N1497  N     0.83333   0.95240   0.83333   0.00000  Uiso   1.00
N1498  N     0.83333   0.71427   0.83333   0.00000  Uiso   1.00
N1499  N     0.87874   0.71571   0.90637   0.00000  Uiso   1.00
N1500  N     0.78437   0.95108   0.76352   0.00000  Uiso   1.00
N1501  N     0.78794   0.71571   0.76029   0.00000  Uiso   1.00
N1502  N     0.88228   0.95108   0.90316   0.00000  Uiso   1.00
O1503  O     0.77226   0.87154   0.83333   0.00000  Uiso   1.00
O1504  O     0.89441   0.79513   0.83334   0.00000  Uiso   1.00
O1505  O     0.89441   0.87154   0.83334   0.00000  Uiso   1.00
O1506  O     0.77226   0.79513   0.83333   0.00000  Uiso   1.00
O1507  O     0.83334   0.87155   0.76178   0.00000  Uiso   1.00
O1508  O     0.83333   0.79512   0.90489   0.00000  Uiso   1.00
O1509  O     0.83333   0.87155   0.90489   0.00000  Uiso   1.00
O1510  O     0.83334   0.79512   0.76178   0.00000  Uiso   1.00
Zn1511 Zn    0.83333   0.88437   0.83333   0.00000  Uiso   1.00
Zn1512 Zn    0.83333   0.78229   0.83333   0.00000  Uiso   1.00
loop_
_geom_bond_atom_site_label_1
_geom_bond_atom_site_label_2
_geom_bond_distance
_geom_bond_site_symmetry_2
_ccdc_geom_bond_type
C1     O50     1.298   .     A
C1     C4      1.443   .     S
C1     O47     1.290   .     A
C2     C4      1.408   .     A
C2     I40     2.147   .     S
C2     C131    1.383   1_455 S
C3     C19     1.408   .     A
C3     C20     1.399   .     A
C3     C12     1.443   .     S
C4     C18     1.399   .     A
C5     N42     1.370   .     A
C5     N43     1.422   .     S
C5     C344    1.437   1_545 S
C6     N44     1.421   .     S
C6     N41     1.371   .     A
C6     C175    1.437   .     S
C7     N45     1.422   .     S
C7     N42     1.370   .     A
C7     C342    1.437   1_545 S
C8     N41     1.371   .     A
C8     N46     1.421   .     S
C8     C173    1.437   .     S
C9     H29     1.110   .     S
C9     H30     1.109   .     S
C9     N43     1.447   .     S
C9     H31     1.108   .     S
C10    H34     1.110   .     S
C10    H35     1.111   .     S
C10    H33     1.107   .     S
C10    N44     1.444   .     S
C11    H22     1.110   .     S
C11    H23     1.109   .     S
C11    N45     1.447   .     S
C11    H24     1.108   .     S
C12    O48     1.298   .     A
C12    O49     1.290   .     A
C13    H28     1.110   .     S
C13    N46     1.444   .     S
C13    H26     1.107   .     S
C13    H27     1.110   .     S
C14    O51     1.281   .     A
C14    O54     1.281   .     A
C14    C16     1.369   .     S
C15    O52     1.281   .     A
C15    O53     1.281   .     A
C15    C17     1.369   .     S
C16    C1025   1.167   1_554 S
C17    C520    1.167   .     S
C18    I37     2.135   .     S
C18    C132    1.378   1_455 S
C19    I38     2.147   .     S
C19    C58     1.383   .     S
C20    I39     2.135   .     S
C20    C74     1.378   .     S
H21    N43     1.031   .     S
H25    N46     1.029   .     S
H32    N44     1.029   .     S
H36    N45     1.031   .     S
N41    Zn55    2.020   .     S
N42    Zn56    2.020   .     S
O47    Zn55    1.985   .     S
O48    Zn56    1.985   .     S
O49    Zn55    1.986   .     S
O50    Zn56    1.986   .     S
O51    Zn55    1.953   .     S
O52    Zn56    1.953   .     S
O53    Zn55    1.953   .     S
O54    Zn56    1.953   .     S
C57    O106    1.298   .     A
C57    C60     1.443   .     S
C57    O103    1.290   .     A
C58    C60     1.408   .     A
C58    I96     2.147   .     S
C59    C75     1.408   .     A
C59    C76     1.399   .     A
C59    C68     1.443   .     S
C60    C74     1.399   .     A
C61    N98     1.370   .     A
C61    N99     1.422   .     S
C61    C400    1.437   1_545 S
C62    N100    1.421   .     S
C62    N97     1.371   .     A
C62    C231    1.437   .     S
C63    N101    1.422   .     S
C63    N98     1.370   .     A
C63    C398    1.437   1_545 S
C64    N97     1.371   .     A
C64    N102    1.421   .     S
C64    C229    1.437   .     S
C65    H85     1.110   .     S
C65    H86     1.109   .     S
C65    N99     1.447   .     S
C65    H87     1.108   .     S
C66    H90     1.110   .     S
C66    H91     1.111   .     S
C66    H89     1.107   .     S
C66    N100    1.444   .     S
C67    H78     1.110   .     S
C67    H79     1.109   .     S
C67    N101    1.447   .     S
C67    H80     1.108   .     S
C68    O104    1.298   .     A
C68    O105    1.290   .     A
C69    H84     1.110   .     S
C69    N102    1.444   .     S
C69    H82     1.107   .     S
C69    H83     1.110   .     S
C70    O107    1.281   .     A
C70    O110    1.281   .     A
C70    C72     1.369   .     S
C71    O108    1.281   .     A
C71    O109    1.281   .     A
C71    C73     1.369   .     S
C72    C1081   1.167   1_554 S
C73    C576    1.167   .     S
C74    I93     2.135   .     S
C75    I94     2.147   .     S
C75    C114    1.383   .     S
C76    I95     2.135   .     S
C76    C130    1.378   .     S
H77    N99     1.031   .     S
H81    N102    1.029   .     S
H88    N100    1.029   .     S
H92    N101    1.031   .     S
N97    Zn111   2.020   .     S
N98    Zn112   2.020   .     S
O103   Zn111   1.985   .     S
O104   Zn112   1.985   .     S
O105   Zn111   1.986   .     S
O106   Zn112   1.986   .     S
O107   Zn111   1.953   .     S
O108   Zn112   1.953   .     S
O109   Zn111   1.953   .     S
O110   Zn112   1.953   .     S
C113   O162    1.298   .     A
C113   C116    1.443   .     S
C113   O159    1.290   .     A
C114   C116    1.408   .     A
C114   I152    2.147   .     S
C115   C131    1.408   .     A
C115   C132    1.399   .     A
C115   C124    1.443   .     S
C116   C130    1.399   .     A
C117   N154    1.370   .     A
C117   N155    1.422   .     S
C117   C456    1.437   1_545 S
C118   N156    1.421   .     S
C118   N153    1.371   .     A
C118   C287    1.437   .     S
C119   N157    1.422   .     S
C119   N154    1.370   .     A
C119   C454    1.437   1_545 S
C120   N153    1.371   .     A
C120   N158    1.421   .     S
C120   C285    1.437   .     S
C121   H141    1.110   .     S
C121   H142    1.109   .     S
C121   N155    1.447   .     S
C121   H143    1.108   .     S
C122   H146    1.110   .     S
C122   H147    1.111   .     S
C122   H145    1.107   .     S
C122   N156    1.444   .     S
C123   H134    1.110   .     S
C123   H135    1.109   .     S
C123   N157    1.447   .     S
C123   H136    1.108   .     S
C124   O160    1.298   .     A
C124   O161    1.290   .     A
C125   H140    1.110   .     S
C125   N158    1.444   .     S
C125   H138    1.107   .     S
C125   H139    1.110   .     S
C126   O163    1.281   .     A
C126   O166    1.281   .     A
C126   C128    1.369   .     S
C127   O164    1.281   .     A
C127   O165    1.281   .     A
C127   C129    1.369   .     S
C128   C1137   1.167   1_554 S
C129   C632    1.167   .     S
C130   I149    2.135   .     S
C131   I150    2.147   .     S
C131   C2      1.383   1_655 S
C132   I151    2.135   .     S
C132   C18     1.378   1_655 S
H133   N155    1.031   .     S
H137   N158    1.029   .     S
H144   N156    1.029   .     S
H148   N157    1.031   .     S
N153   Zn167   2.020   .     S
N154   Zn168   2.020   .     S
O159   Zn167   1.985   .     S
O160   Zn168   1.985   .     S
O161   Zn167   1.986   .     S
O162   Zn168   1.986   .     S
O163   Zn167   1.953   .     S
O164   Zn168   1.953   .     S
O165   Zn167   1.953   .     S
O166   Zn168   1.953   .     S
C169   O218    1.298   .     A
C169   C172    1.443   .     S
C169   O215    1.290   .     A
C170   C172    1.408   .     A
C170   I208    2.147   .     S
C170   C299    1.383   1_455 S
C171   C187    1.408   .     A
C171   C188    1.399   .     A
C171   C180    1.443   .     S
C172   C186    1.399   .     A
C173   N210    1.370   .     A
C173   N211    1.422   .     S
C174   N212    1.421   .     S
C174   N209    1.371   .     A
C174   C343    1.437   .     S
C175   N213    1.422   .     S
C175   N210    1.370   .     A
C176   N209    1.371   .     A
C176   N214    1.421   .     S
C176   C341    1.437   .     S
C177   H197    1.110   .     S
C177   H198    1.109   .     S
C177   N211    1.447   .     S
C177   H199    1.108   .     S
C178   H202    1.110   .     S
C178   H203    1.111   .     S
C178   H201    1.107   .     S
C178   N212    1.444   .     S
C179   H190    1.110   .     S
C179   H191    1.109   .     S
C179   N213    1.447   .     S
C179   H192    1.108   .     S
C180   O216    1.298   .     A
C180   O217    1.290   .     A
C181   H196    1.110   .     S
C181   N214    1.444   .     S
C181   H194    1.107   .     S
C181   H195    1.110   .     S
C182   O219    1.281   .     A
C182   O222    1.281   .     A
C182   C184    1.369   .     S
C183   O220    1.281   .     A
C183   O221    1.281   .     A
C183   C185    1.369   .     S
C184   C1193   1.167   1_554 S
C185   C688    1.167   .     S
C186   I205    2.135   .     S
C186   C300    1.378   1_455 S
C187   I206    2.147   .     S
C187   C226    1.383   .     S
C188   I207    2.135   .     S
C188   C242    1.378   .     S
H189   N211    1.031   .     S
H193   N214    1.029   .     S
H200   N212    1.029   .     S
H204   N213    1.031   .     S
N209   Zn223   2.020   .     S
N210   Zn224   2.020   .     S
O215   Zn223   1.985   .     S
O216   Zn224   1.985   .     S
O217   Zn223   1.986   .     S
O218   Zn224   1.986   .     S
O219   Zn223   1.953   .     S
O220   Zn224   1.953   .     S
O221   Zn223   1.953   .     S
O222   Zn224   1.953   .     S
C225   O274    1.298   .     A
C225   C228    1.443   .     S
C225   O271    1.290   .     A
C226   C228    1.408   .     A
C226   I264    2.147   .     S
C227   C243    1.408   .     A
C227   C244    1.399   .     A
C227   C236    1.443   .     S
C228   C242    1.399   .     A
C229   N266    1.370   .     A
C229   N267    1.422   .     S
C230   N268    1.421   .     S
C230   N265    1.371   .     A
C230   C399    1.437   .     S
C231   N269    1.422   .     S
C231   N266    1.370   .     A
C232   N265    1.371   .     A
C232   N270    1.421   .     S
C232   C397    1.437   .     S
C233   H253    1.110   .     S
C233   H254    1.109   .     S
C233   N267    1.447   .     S
C233   H255    1.108   .     S
C234   H258    1.110   .     S
C234   H259    1.111   .     S
C234   H257    1.107   .     S
C234   N268    1.444   .     S
C235   H246    1.110   .     S
C235   H247    1.109   .     S
C235   N269    1.447   .     S
C235   H248    1.108   .     S
C236   O272    1.298   .     A
C236   O273    1.290   .     A
C237   H252    1.110   .     S
C237   N270    1.444   .     S
C237   H250    1.107   .     S
C237   H251    1.110   .     S
C238   O275    1.281   .     A
C238   O278    1.281   .     A
C238   C240    1.369   .     S
C239   O276    1.281   .     A
C239   O277    1.281   .     A
C239   C241    1.369   .     S
C240   C1249   1.167   1_554 S
C241   C744    1.167   .     S
C242   I261    2.135   .     S
C243   I262    2.147   .     S
C243   C282    1.383   .     S
C244   I263    2.135   .     S
C244   C298    1.378   .     S
H245   N267    1.031   .     S
H249   N270    1.029   .     S
H256   N268    1.029   .     S
H260   N269    1.031   .     S
N265   Zn279   2.020   .     S
N266   Zn280   2.020   .     S
O271   Zn279   1.985   .     S
O272   Zn280   1.985   .     S
O273   Zn279   1.986   .     S
O274   Zn280   1.986   .     S
O275   Zn279   1.953   .     S
O276   Zn280   1.953   .     S
O277   Zn279   1.953   .     S
O278   Zn280   1.953   .     S
C281   O330    1.298   .     A
C281   C284    1.443   .     S
C281   O327    1.290   .     A
C282   C284    1.408   .     A
C282   I320    2.147   .     S
C283   C299    1.408   .     A
C283   C300    1.399   .     A
C283   C292    1.443   .     S
C284   C298    1.399   .     A
C285   N322    1.370   .     A
C285   N323    1.422   .     S
C286   N324    1.421   .     S
C286   N321    1.371   .     A
C286   C455    1.437   .     S
C287   N325    1.422   .     S
C287   N322    1.370   .     A
C288   N321    1.371   .     A
C288   N326    1.421   .     S
C288   C453    1.437   .     S
C289   H309    1.110   .     S
C289   H310    1.109   .     S
C289   N323    1.447   .     S
C289   H311    1.108   .     S
C290   H314    1.110   .     S
C290   H315    1.111   .     S
C290   H313    1.107   .     S
C290   N324    1.444   .     S
C291   H302    1.110   .     S
C291   H303    1.109   .     S
C291   N325    1.447   .     S
C291   H304    1.108   .     S
C292   O328    1.298   .     A
C292   O329    1.290   .     A
C293   H308    1.110   .     S
C293   N326    1.444   .     S
C293   H306    1.107   .     S
C293   H307    1.110   .     S
C294   O331    1.281   .     A
C294   O334    1.281   .     A
C294   C296    1.369   .     S
C295   O332    1.281   .     A
C295   O333    1.281   .     A
C295   C297    1.369   .     S
C296   C1305   1.167   1_554 S
C297   C800    1.167   .     S
C298   I317    2.135   .     S
C299   I318    2.147   .     S
C299   C170    1.383   1_655 S
C300   I319    2.135   .     S
C300   C186    1.378   1_655 S
H301   N323    1.031   .     S
H305   N326    1.029   .     S
H312   N324    1.029   .     S
H316   N325    1.031   .     S
N321   Zn335   2.020   .     S
N322   Zn336   2.020   .     S
O327   Zn335   1.985   .     S
O328   Zn336   1.985   .     S
O329   Zn335   1.986   .     S
O330   Zn336   1.986   .     S
O331   Zn335   1.953   .     S
O332   Zn336   1.953   .     S
O333   Zn335   1.953   .     S
O334   Zn336   1.953   .     S
C337   O386    1.298   .     A
C337   C340    1.443   .     S
C337   O383    1.290   .     A
C338   C340    1.408   .     A
C338   I376    2.147   .     S
C338   C467    1.383   1_455 S
C339   C355    1.408   .     A
C339   C356    1.399   .     A
C339   C348    1.443   .     S
C340   C354    1.399   .     A
C341   N378    1.370   .     A
C341   N379    1.422   .     S
C342   N380    1.421   .     S
C342   N377    1.371   .     A
C342   C7      1.437   1_565 S
C343   N381    1.422   .     S
C343   N378    1.370   .     A
C344   N377    1.371   .     A
C344   N382    1.421   .     S
C344   C5      1.437   1_565 S
C345   H365    1.110   .     S
C345   H366    1.109   .     S
C345   N379    1.447   .     S
C345   H367    1.108   .     S
C346   H370    1.110   .     S
C346   H371    1.111   .     S
C346   H369    1.107   .     S
C346   N380    1.444   .     S
C347   H358    1.110   .     S
C347   H359    1.109   .     S
C347   N381    1.447   .     S
C347   H360    1.108   .     S
C348   O384    1.298   .     A
C348   O385    1.290   .     A
C349   H364    1.110   .     S
C349   N382    1.444   .     S
C349   H362    1.107   .     S
C349   H363    1.110   .     S
C350   O387    1.281   .     A
C350   O390    1.281   .     A
C350   C352    1.369   .     S
C351   O388    1.281   .     A
C351   O389    1.281   .     A
C351   C353    1.369   .     S
C352   C1361   1.167   1_554 S
C353   C856    1.167   .     S
C354   I373    2.135   .     S
C354   C468    1.378   1_455 S
C355   I374    2.147   .     S
C355   C394    1.383   .     S
C356   I375    2.135   .     S
C356   C410    1.378   .     S
H357   N379    1.031   .     S
H361   N382    1.029   .     S
H368   N380    1.029   .     S
H372   N381    1.031   .     S
N377   Zn391   2.020   .     S
N378   Zn392   2.020   .     S
O383   Zn391   1.985   .     S
O384   Zn392   1.985   .     S
O385   Zn391   1.986   .     S
O386   Zn392   1.986   .     S
O387   Zn391   1.953   .     S
O388   Zn392   1.953   .     S
O389   Zn391   1.953   .     S
O390   Zn392   1.953   .     S
C393   O442    1.298   .     A
C393   C396    1.443   .     S
C393   O439    1.290   .     A
C394   C396    1.408   .     A
C394   I432    2.147   .     S
C395   C411    1.408   .     A
C395   C412    1.399   .     A
C395   C404    1.443   .     S
C396   C410    1.399   .     A
C397   N434    1.370   .     A
C397   N435    1.422   .     S
C398   N436    1.421   .     S
C398   N433    1.371   .     A
C398   C63     1.437   1_565 S
C399   N437    1.422   .     S
C399   N434    1.370   .     A
C400   N433    1.371   .     A
C400   N438    1.421   .     S
C400   C61     1.437   1_565 S
C401   H421    1.110   .     S
C401   H422    1.109   .     S
C401   N435    1.447   .     S
C401   H423    1.108   .     S
C402   H426    1.110   .     S
C402   H427    1.111   .     S
C402   H425    1.107   .     S
C402   N436    1.444   .     S
C403   H414    1.110   .     S
C403   H415    1.109   .     S
C403   N437    1.447   .     S
C403   H416    1.108   .     S
C404   O440    1.298   .     A
C404   O441    1.290   .     A
C405   H420    1.110   .     S
C405   N438    1.444   .     S
C405   H418    1.107   .     S
C405   H419    1.110   .     S
C406   O443    1.281   .     A
C406   O446    1.281   .     A
C406   C408    1.369   .     S
C407   O444    1.281   .     A
C407   O445    1.281   .     A
C407   C409    1.369   .     S
C408   C1417   1.167   1_554 S
C409   C912    1.167   .     S
C410   I429    2.135   .     S
C411   I430    2.147   .     S
C411   C450    1.383   .     S
C412   I431    2.135   .     S
C412   C466    1.378   .     S
H413   N435    1.031   .     S
H417   N438    1.029   .     S
H424   N436    1.029   .     S
H428   N437    1.031   .     S
N433   Zn447   2.020   .     S
N434   Zn448   2.020   .     S
O439   Zn447   1.985   .     S
O440   Zn448   1.985   .     S
O441   Zn447   1.986   .     S
O442   Zn448   1.986   .     S
O443   Zn447   1.953   .     S
O444   Zn448   1.953   .     S
O445   Zn447   1.953   .     S
O446   Zn448   1.953   .     S
C449   O498    1.298   .     A
C449   C452    1.443   .     S
C449   O495    1.290   .     A
C450   C452    1.408   .     A
C450   I488    2.147   .     S
C451   C467    1.408   .     A
C451   C468    1.399   .     A
C451   C460    1.443   .     S
C452   C466    1.399   .     A
C453   N490    1.370   .     A
C453   N491    1.422   .     S
C454   N492    1.421   .     S
C454   N489    1.371   .     A
C454   C119    1.437   1_565 S
C455   N493    1.422   .     S
C455   N490    1.370   .     A
C456   N489    1.371   .     A
C456   N494    1.421   .     S
C456   C117    1.437   1_565 S
C457   H477    1.110   .     S
C457   H478    1.109   .     S
C457   N491    1.447   .     S
C457   H479    1.108   .     S
C458   H482    1.110   .     S
C458   H483    1.111   .     S
C458   H481    1.107   .     S
C458   N492    1.444   .     S
C459   H470    1.110   .     S
C459   H471    1.109   .     S
C459   N493    1.447   .     S
C459   H472    1.108   .     S
C460   O496    1.298   .     A
C460   O497    1.290   .     A
C461   H476    1.110   .     S
C461   N494    1.444   .     S
C461   H474    1.107   .     S
C461   H475    1.110   .     S
C462   O499    1.281   .     A
C462   O502    1.281   .     A
C462   C464    1.369   .     S
C463   O500    1.281   .     A
C463   O501    1.281   .     A
C463   C465    1.369   .     S
C464   C1473   1.167   1_554 S
C465   C968    1.167   .     S
C466   I485    2.135   .     S
C467   I486    2.147   .     S
C467   C338    1.383   1_655 S
C468   I487    2.135   .     S
C468   C354    1.378   1_655 S
H469   N491    1.031   .     S
H473   N494    1.029   .     S
H480   N492    1.029   .     S
H484   N493    1.031   .     S
N489   Zn503   2.020   .     S
N490   Zn504   2.020   .     S
O495   Zn503   1.985   .     S
O496   Zn504   1.985   .     S
O497   Zn503   1.986   .     S
O498   Zn504   1.986   .     S
O499   Zn503   1.953   .     S
O500   Zn504   1.953   .     S
O501   Zn503   1.953   .     S
O502   Zn504   1.953   .     S
C505   O554    1.298   .     A
C505   C508    1.443   .     S
C505   O551    1.290   .     A
C506   C508    1.408   .     A
C506   I544    2.147   .     S
C506   C635    1.383   1_455 S
C507   C523    1.408   .     A
C507   C524    1.399   .     A
C507   C516    1.443   .     S
C508   C522    1.399   .     A
C509   N546    1.370   .     A
C509   N547    1.422   .     S
C509   C848    1.437   1_545 S
C510   N548    1.421   .     S
C510   N545    1.371   .     A
C510   C679    1.437   .     S
C511   N549    1.422   .     S
C511   N546    1.370   .     A
C511   C846    1.437   1_545 S
C512   N545    1.371   .     A
C512   N550    1.421   .     S
C512   C677    1.437   .     S
C513   H533    1.110   .     S
C513   H534    1.109   .     S
C513   N547    1.447   .     S
C513   H535    1.108   .     S
C514   H538    1.110   .     S
C514   H539    1.111   .     S
C514   H537    1.107   .     S
C514   N548    1.444   .     S
C515   H526    1.110   .     S
C515   H527    1.109   .     S
C515   N549    1.447   .     S
C515   H528    1.108   .     S
C516   O552    1.298   .     A
C516   O553    1.290   .     A
C517   H532    1.110   .     S
C517   N550    1.444   .     S
C517   H530    1.107   .     S
C517   H531    1.110   .     S
C518   O555    1.281   .     A
C518   O558    1.281   .     A
C518   C520    1.369   .     S
C519   O556    1.281   .     A
C519   O557    1.281   .     A
C519   C521    1.369   .     S
C521   C1024   1.167   .     S
C522   I541    2.135   .     S
C522   C636    1.378   1_455 S
C523   I542    2.147   .     S
C523   C562    1.383   .     S
C524   I543    2.135   .     S
C524   C578    1.378   .     S
H525   N547    1.031   .     S
H529   N550    1.029   .     S
H536   N548    1.029   .     S
H540   N549    1.031   .     S
N545   Zn559   2.020   .     S
N546   Zn560   2.020   .     S
O551   Zn559   1.985   .     S
O552   Zn560   1.985   .     S
O553   Zn559   1.986   .     S
O554   Zn560   1.986   .     S
O555   Zn559   1.953   .     S
O556   Zn560   1.953   .     S
O557   Zn559   1.953   .     S
O558   Zn560   1.953   .     S
C561   O610    1.298   .     A
C561   C564    1.443   .     S
C561   O607    1.290   .     A
C562   C564    1.408   .     A
C562   I600    2.147   .     S
C563   C579    1.408   .     A
C563   C580    1.399   .     A
C563   C572    1.443   .     S
C564   C578    1.399   .     A
C565   N602    1.370   .     A
C565   N603    1.422   .     S
C565   C904    1.437   1_545 S
C566   N604    1.421   .     S
C566   N601    1.371   .     A
C566   C735    1.437   .     S
C567   N605    1.422   .     S
C567   N602    1.370   .     A
C567   C902    1.437   1_545 S
C568   N601    1.371   .     A
C568   N606    1.421   .     S
C568   C733    1.437   .     S
C569   H589    1.110   .     S
C569   H590    1.109   .     S
C569   N603    1.447   .     S
C569   H591    1.108   .     S
C570   H594    1.110   .     S
C570   H595    1.111   .     S
C570   H593    1.107   .     S
C570   N604    1.444   .     S
C571   H582    1.110   .     S
C571   H583    1.109   .     S
C571   N605    1.447   .     S
C571   H584    1.108   .     S
C572   O608    1.298   .     A
C572   O609    1.290   .     A
C573   H588    1.110   .     S
C573   N606    1.444   .     S
C573   H586    1.107   .     S
C573   H587    1.110   .     S
C574   O611    1.281   .     A
C574   O614    1.281   .     A
C574   C576    1.369   .     S
C575   O612    1.281   .     A
C575   O613    1.281   .     A
C575   C577    1.369   .     S
C577   C1080   1.167   .     S
C578   I597    2.135   .     S
C579   I598    2.147   .     S
C579   C618    1.383   .     S
C580   I599    2.135   .     S
C580   C634    1.378   .     S
H581   N603    1.031   .     S
H585   N606    1.029   .     S
H592   N604    1.029   .     S
H596   N605    1.031   .     S
N601   Zn615   2.020   .     S
N602   Zn616   2.020   .     S
O607   Zn615   1.985   .     S
O608   Zn616   1.985   .     S
O609   Zn615   1.986   .     S
O610   Zn616   1.986   .     S
O611   Zn615   1.953   .     S
O612   Zn616   1.953   .     S
O613   Zn615   1.953   .     S
O614   Zn616   1.953   .     S
C617   O666    1.298   .     A
C617   C620    1.443   .     S
C617   O663    1.290   .     A
C618   C620    1.408   .     A
C618   I656    2.147   .     S
C619   C635    1.408   .     A
C619   C636    1.399   .     A
C619   C628    1.443   .     S
C620   C634    1.399   .     A
C621   N658    1.370   .     A
C621   N659    1.422   .     S
C621   C960    1.437   1_545 S
C622   N660    1.421   .     S
C622   N657    1.371   .     A
C622   C791    1.437   .     S
C623   N661    1.422   .     S
C623   N658    1.370   .     A
C623   C958    1.437   1_545 S
C624   N657    1.371   .     A
C624   N662    1.421   .     S
C624   C789    1.437   .     S
C625   H645    1.110   .     S
C625   H646    1.109   .     S
C625   N659    1.447   .     S
C625   H647    1.108   .     S
C626   H650    1.110   .     S
C626   H651    1.111   .     S
C626   H649    1.107   .     S
C626   N660    1.444   .     S
C627   H638    1.110   .     S
C627   H639    1.109   .     S
C627   N661    1.447   .     S
C627   H640    1.108   .     S
C628   O664    1.298   .     A
C628   O665    1.290   .     A
C629   H644    1.110   .     S
C629   N662    1.444   .     S
C629   H642    1.107   .     S
C629   H643    1.110   .     S
C630   O667    1.281   .     A
C630   O670    1.281   .     A
C630   C632    1.369   .     S
C631   O668    1.281   .     A
C631   O669    1.281   .     A
C631   C633    1.369   .     S
C633   C1136   1.167   .     S
C634   I653    2.135   .     S
C635   I654    2.147   .     S
C635   C506    1.383   1_655 S
C636   I655    2.135   .     S
C636   C522    1.378   1_655 S
H637   N659    1.031   .     S
H641   N662    1.029   .     S
H648   N660    1.029   .     S
H652   N661    1.031   .     S
N657   Zn671   2.020   .     S
N658   Zn672   2.020   .     S
O663   Zn671   1.985   .     S
O664   Zn672   1.985   .     S
O665   Zn671   1.986   .     S
O666   Zn672   1.986   .     S
O667   Zn671   1.953   .     S
O668   Zn672   1.953   .     S
O669   Zn671   1.953   .     S
O670   Zn672   1.953   .     S
C673   O722    1.298   .     A
C673   C676    1.443   .     S
C673   O719    1.290   .     A
C674   C676    1.408   .     A
C674   I712    2.147   .     S
C674   C803    1.383   1_455 S
C675   C691    1.408   .     A
C675   C692    1.399   .     A
C675   C684    1.443   .     S
C676   C690    1.399   .     A
C677   N714    1.370   .     A
C677   N715    1.422   .     S
C678   N716    1.421   .     S
C678   N713    1.371   .     A
C678   C847    1.437   .     S
C679   N717    1.422   .     S
C679   N714    1.370   .     A
C680   N713    1.371   .     A
C680   N718    1.421   .     S
C680   C845    1.437   .     S
C681   H701    1.110   .     S
C681   H702    1.109   .     S
C681   N715    1.447   .     S
C681   H703    1.108   .     S
C682   H706    1.110   .     S
C682   H707    1.111   .     S
C682   H705    1.107   .     S
C682   N716    1.444   .     S
C683   H694    1.110   .     S
C683   H695    1.109   .     S
C683   N717    1.447   .     S
C683   H696    1.108   .     S
C684   O720    1.298   .     A
C684   O721    1.290   .     A
C685   H700    1.110   .     S
C685   N718    1.444   .     S
C685   H698    1.107   .     S
C685   H699    1.110   .     S
C686   O723    1.281   .     A
C686   O726    1.281   .     A
C686   C688    1.369   .     S
C687   O724    1.281   .     A
C687   O725    1.281   .     A
C687   C689    1.369   .     S
C689   C1192   1.167   .     S
C690   I709    2.135   .     S
C690   C804    1.378   1_455 S
C691   I710    2.147   .     S
C691   C730    1.383   .     S
C692   I711    2.135   .     S
C692   C746    1.378   .     S
H693   N715    1.031   .     S
H697   N718    1.029   .     S
H704   N716    1.029   .     S
H708   N717    1.031   .     S
N713   Zn727   2.020   .     S
N714   Zn728   2.020   .     S
O719   Zn727   1.985   .     S
O720   Zn728   1.985   .     S
O721   Zn727   1.986   .     S
O722   Zn728   1.986   .     S
O723   Zn727   1.953   .     S
O724   Zn728   1.953   .     S
O725   Zn727   1.953   .     S
O726   Zn728   1.953   .     S
C729   O778    1.298   .     A
C729   C732    1.443   .     S
C729   O775    1.290   .     A
C730   C732    1.408   .     A
C730   I768    2.147   .     S
C731   C747    1.408   .     A
C731   C748    1.399   .     A
C731   C740    1.443   .     S
C732   C746    1.399   .     A
C733   N770    1.370   .     A
C733   N771    1.422   .     S
C734   N772    1.421   .     S
C734   N769    1.371   .     A
C734   C903    1.437   .     S
C735   N773    1.422   .     S
C735   N770    1.370   .     A
C736   N769    1.371   .     A
C736   N774    1.421   .     S
C736   C901    1.437   .     S
C737   H757    1.110   .     S
C737   H758    1.109   .     S
C737   N771    1.447   .     S
C737   H759    1.108   .     S
C738   H762    1.110   .     S
C738   H763    1.111   .     S
C738   H761    1.107   .     S
C738   N772    1.444   .     S
C739   H750    1.110   .     S
C739   H751    1.109   .     S
C739   N773    1.447   .     S
C739   H752    1.108   .     S
C740   O776    1.298   .     A
C740   O777    1.290   .     A
C741   H756    1.110   .     S
C741   N774    1.444   .     S
C741   H754    1.107   .     S
C741   H755    1.110   .     S
C742   O779    1.281   .     A
C742   O782    1.281   .     A
C742   C744    1.369   .     S
C743   O780    1.281   .     A
C743   O781    1.281   .     A
C743   C745    1.369   .     S
C745   C1248   1.167   .     S
C746   I765    2.135   .     S
C747   I766    2.147   .     S
C747   C786    1.383   .     S
C748   I767    2.135   .     S
C748   C802    1.378   .     S
H749   N771    1.031   .     S
H753   N774    1.029   .     S
H760   N772    1.029   .     S
H764   N773    1.031   .     S
N769   Zn783   2.020   .     S
N770   Zn784   2.020   .     S
O775   Zn783   1.985   .     S
O776   Zn784   1.985   .     S
O777   Zn783   1.986   .     S
O778   Zn784   1.986   .     S
O779   Zn783   1.953   .     S
O780   Zn784   1.953   .     S
O781   Zn783   1.953   .     S
O782   Zn784   1.953   .     S
C785   O834    1.298   .     A
C785   C788    1.443   .     S
C785   O831    1.290   .     A
C786   C788    1.408   .     A
C786   I824    2.147   .     S
C787   C803    1.408   .     A
C787   C804    1.399   .     A
C787   C796    1.443   .     S
C788   C802    1.399   .     A
C789   N826    1.370   .     A
C789   N827    1.422   .     S
C790   N828    1.421   .     S
C790   N825    1.371   .     A
C790   C959    1.437   .     S
C791   N829    1.422   .     S
C791   N826    1.370   .     A
C792   N825    1.371   .     A
C792   N830    1.421   .     S
C792   C957    1.437   .     S
C793   H813    1.110   .     S
C793   H814    1.109   .     S
C793   N827    1.447   .     S
C793   H815    1.108   .     S
C794   H818    1.110   .     S
C794   H819    1.111   .     S
C794   H817    1.107   .     S
C794   N828    1.444   .     S
C795   H806    1.110   .     S
C795   H807    1.109   .     S
C795   N829    1.447   .     S
C795   H808    1.108   .     S
C796   O832    1.298   .     A
C796   O833    1.290   .     A
C797   H812    1.110   .     S
C797   N830    1.444   .     S
C797   H810    1.107   .     S
C797   H811    1.110   .     S
C798   O835    1.281   .     A
C798   O838    1.281   .     A
C798   C800    1.369   .     S
C799   O836    1.281   .     A
C799   O837    1.281   .     A
C799   C801    1.369   .     S
C801   C1304   1.167   .     S
C802   I821    2.135   .     S
C803   I822    2.147   .     S
C803   C674    1.383   1_655 S
C804   I823    2.135   .     S
C804   C690    1.378   1_655 S
H805   N827    1.031   .     S
H809   N830    1.029   .     S
H816   N828    1.029   .     S
H820   N829    1.031   .     S
N825   Zn839   2.020   .     S
N826   Zn840   2.020   .     S
O831   Zn839   1.985   .     S
O832   Zn840   1.985   .     S
O833   Zn839   1.986   .     S
O834   Zn840   1.986   .     S
O835   Zn839   1.953   .     S
O836   Zn840   1.953   .     S
O837   Zn839   1.953   .     S
O838   Zn840   1.953   .     S
C841   O890    1.298   .     A
C841   C844    1.443   .     S
C841   O887    1.290   .     A
C842   C844    1.408   .     A
C842   I880    2.147   .     S
C842   C971    1.383   1_455 S
C843   C859    1.408   .     A
C843   C860    1.399   .     A
C843   C852    1.443   .     S
C844   C858    1.399   .     A
C845   N882    1.370   .     A
C845   N883    1.422   .     S
C846   N884    1.421   .     S
C846   N881    1.371   .     A
C846   C511    1.437   1_565 S
C847   N885    1.422   .     S
C847   N882    1.370   .     A
C848   N881    1.371   .     A
C848   N886    1.421   .     S
C848   C509    1.437   1_565 S
C849   H869    1.110   .     S
C849   H870    1.109   .     S
C849   N883    1.447   .     S
C849   H871    1.108   .     S
C850   H874    1.110   .     S
C850   H875    1.111   .     S
C850   H873    1.107   .     S
C850   N884    1.444   .     S
C851   H862    1.110   .     S
C851   H863    1.109   .     S
C851   N885    1.447   .     S
C851   H864    1.108   .     S
C852   O888    1.298   .     A
C852   O889    1.290   .     A
C853   H868    1.110   .     S
C853   N886    1.444   .     S
C853   H866    1.107   .     S
C853   H867    1.110   .     S
C854   O891    1.281   .     A
C854   O894    1.281   .     A
C854   C856    1.369   .     S
C855   O892    1.281   .     A
C855   O893    1.281   .     A
C855   C857    1.369   .     S
C857   C1360   1.167   .     S
C858   I877    2.135   .     S
C858   C972    1.378   1_455 S
C859   I878    2.147   .     S
C859   C898    1.383   .     S
C860   I879    2.135   .     S
C860   C914    1.378   .     S
H861   N883    1.031   .     S
H865   N886    1.029   .     S
H872   N884    1.029   .     S
H876   N885    1.031   .     S
N881   Zn895   2.020   .     S
N882   Zn896   2.020   .     S
O887   Zn895   1.985   .     S
O888   Zn896   1.985   .     S
O889   Zn895   1.986   .     S
O890   Zn896   1.986   .     S
O891   Zn895   1.953   .     S
O892   Zn896   1.953   .     S
O893   Zn895   1.953   .     S
O894   Zn896   1.953   .     S
C897   O946    1.298   .     A
C897   C900    1.443   .     S
C897   O943    1.290   .     A
C898   C900    1.408   .     A
C898   I936    2.147   .     S
C899   C915    1.408   .     A
C899   C916    1.399   .     A
C899   C908    1.443   .     S
C900   C914    1.399   .     A
C901   N938    1.370   .     A
C901   N939    1.422   .     S
C902   N940    1.421   .     S
C902   N937    1.371   .     A
C902   C567    1.437   1_565 S
C903   N941    1.422   .     S
C903   N938    1.370   .     A
C904   N937    1.371   .     A
C904   N942    1.421   .     S
C904   C565    1.437   1_565 S
C905   H925    1.110   .     S
C905   H926    1.109   .     S
C905   N939    1.447   .     S
C905   H927    1.108   .     S
C906   H930    1.110   .     S
C906   H931    1.111   .     S
C906   H929    1.107   .     S
C906   N940    1.444   .     S
C907   H918    1.110   .     S
C907   H919    1.109   .     S
C907   N941    1.447   .     S
C907   H920    1.108   .     S
C908   O944    1.298   .     A
C908   O945    1.290   .     A
C909   H924    1.110   .     S
C909   N942    1.444   .     S
C909   H922    1.107   .     S
C909   H923    1.110   .     S
C910   O947    1.281   .     A
C910   O950    1.281   .     A
C910   C912    1.369   .     S
C911   O948    1.281   .     A
C911   O949    1.281   .     A
C911   C913    1.369   .     S
C913   C1416   1.167   .     S
C914   I933    2.135   .     S
C915   I934    2.147   .     S
C915   C954    1.383   .     S
C916   I935    2.135   .     S
C916   C970    1.378   .     S
H917   N939    1.031   .     S
H921   N942    1.029   .     S
H928   N940    1.029   .     S
H932   N941    1.031   .     S
N937   Zn951   2.020   .     S
N938   Zn952   2.020   .     S
O943   Zn951   1.985   .     S
O944   Zn952   1.985   .     S
O945   Zn951   1.986   .     S
O946   Zn952   1.986   .     S
O947   Zn951   1.953   .     S
O948   Zn952   1.953   .     S
O949   Zn951   1.953   .     S
O950   Zn952   1.953   .     S
C953   O1002   1.298   .     A
C953   C956    1.443   .     S
C953   O999    1.290   .     A
C954   C956    1.408   .     A
C954   I992    2.147   .     S
C955   C971    1.408   .     A
C955   C972    1.399   .     A
C955   C964    1.443   .     S
C956   C970    1.399   .     A
C957   N994    1.370   .     A
C957   N995    1.422   .     S
C958   N996    1.421   .     S
C958   N993    1.371   .     A
C958   C623    1.437   1_565 S
C959   N997    1.422   .     S
C959   N994    1.370   .     A
C960   N993    1.371   .     A
C960   N998    1.421   .     S
C960   C621    1.437   1_565 S
C961   H981    1.110   .     S
C961   H982    1.109   .     S
C961   N995    1.447   .     S
C961   H983    1.108   .     S
C962   H986    1.110   .     S
C962   H987    1.111   .     S
C962   H985    1.107   .     S
C962   N996    1.444   .     S
C963   H974    1.110   .     S
C963   H975    1.109   .     S
C963   N997    1.447   .     S
C963   H976    1.108   .     S
C964   O1000   1.298   .     A
C964   O1001   1.290   .     A
C965   H980    1.110   .     S
C965   N998    1.444   .     S
C965   H978    1.107   .     S
C965   H979    1.110   .     S
C966   O1003   1.281   .     A
C966   O1006   1.281   .     A
C966   C968    1.369   .     S
C967   O1004   1.281   .     A
C967   O1005   1.281   .     A
C967   C969    1.369   .     S
C969   C1472   1.167   .     S
C970   I989    2.135   .     S
C971   I990    2.147   .     S
C971   C842    1.383   1_655 S
C972   I991    2.135   .     S
C972   C858    1.378   1_655 S
H973   N995    1.031   .     S
H977   N998    1.029   .     S
H984   N996    1.029   .     S
H988   N997    1.031   .     S
N993   Zn1007  2.020   .     S
N994   Zn1008  2.020   .     S
O999   Zn1007  1.985   .     S
O1000  Zn1008  1.985   .     S
O1001  Zn1007  1.986   .     S
O1002  Zn1008  1.986   .     S
O1003  Zn1007  1.953   .     S
O1004  Zn1008  1.953   .     S
O1005  Zn1007  1.953   .     S
O1006  Zn1008  1.953   .     S
C1009  O1058   1.298   .     A
C1009  C1012   1.443   .     S
C1009  O1055   1.290   .     A
C1010  C1012   1.408   .     A
C1010  I1048   2.147   .     S
C1010  C1139   1.383   1_455 S
C1011  C1027   1.408   .     A
C1011  C1028   1.399   .     A
C1011  C1020   1.443   .     S
C1012  C1026   1.399   .     A
C1013  N1050   1.370   .     A
C1013  N1051   1.422   .     S
C1013  C1352   1.437   1_545 S
C1014  N1052   1.421   .     S
C1014  N1049   1.371   .     A
C1014  C1183   1.437   .     S
C1015  N1053   1.422   .     S
C1015  N1050   1.370   .     A
C1015  C1350   1.437   1_545 S
C1016  N1049   1.371   .     A
C1016  N1054   1.421   .     S
C1016  C1181   1.437   .     S
C1017  H1037   1.110   .     S
C1017  H1038   1.109   .     S
C1017  N1051   1.447   .     S
C1017  H1039   1.108   .     S
C1018  H1042   1.110   .     S
C1018  H1043   1.111   .     S
C1018  H1041   1.107   .     S
C1018  N1052   1.444   .     S
C1019  H1030   1.110   .     S
C1019  H1031   1.109   .     S
C1019  N1053   1.447   .     S
C1019  H1032   1.108   .     S
C1020  O1056   1.298   .     A
C1020  O1057   1.290   .     A
C1021  H1036   1.110   .     S
C1021  N1054   1.444   .     S
C1021  H1034   1.107   .     S
C1021  H1035   1.110   .     S
C1022  O1059   1.281   .     A
C1022  O1062   1.281   .     A
C1022  C1024   1.369   .     S
C1023  O1060   1.281   .     A
C1023  O1061   1.281   .     A
C1023  C1025   1.369   .     S
C1025  C16     1.167   1_556 S
C1026  I1045   2.135   .     S
C1026  C1140   1.378   1_455 S
C1027  I1046   2.147   .     S
C1027  C1066   1.383   .     S
C1028  I1047   2.135   .     S
C1028  C1082   1.378   .     S
H1029  N1051   1.031   .     S
H1033  N1054   1.029   .     S
H1040  N1052   1.029   .     S
H1044  N1053   1.031   .     S
N1049  Zn1063  2.020   .     S
N1050  Zn1064  2.020   .     S
O1055  Zn1063  1.985   .     S
O1056  Zn1064  1.985   .     S
O1057  Zn1063  1.986   .     S
O1058  Zn1064  1.986   .     S
O1059  Zn1063  1.953   .     S
O1060  Zn1064  1.953   .     S
O1061  Zn1063  1.953   .     S
O1062  Zn1064  1.953   .     S
C1065  O1114   1.298   .     A
C1065  C1068   1.443   .     S
C1065  O1111   1.290   .     A
C1066  C1068   1.408   .     A
C1066  I1104   2.147   .     S
C1067  C1083   1.408   .     A
C1067  C1084   1.399   .     A
C1067  C1076   1.443   .     S
C1068  C1082   1.399   .     A
C1069  N1106   1.370   .     A
C1069  N1107   1.422   .     S
C1069  C1408   1.437   1_545 S
C1070  N1108   1.421   .     S
C1070  N1105   1.371   .     A
C1070  C1239   1.437   .     S
C1071  N1109   1.422   .     S
C1071  N1106   1.370   .     A
C1071  C1406   1.437   1_545 S
C1072  N1105   1.371   .     A
C1072  N1110   1.421   .     S
C1072  C1237   1.437   .     S
C1073  H1093   1.110   .     S
C1073  H1094   1.109   .     S
C1073  N1107   1.447   .     S
C1073  H1095   1.108   .     S
C1074  H1098   1.110   .     S
C1074  H1099   1.111   .     S
C1074  H1097   1.107   .     S
C1074  N1108   1.444   .     S
C1075  H1086   1.110   .     S
C1075  H1087   1.109   .     S
C1075  N1109   1.447   .     S
C1075  H1088   1.108   .     S
C1076  O1112   1.298   .     A
C1076  O1113   1.290   .     A
C1077  H1092   1.110   .     S
C1077  N1110   1.444   .     S
C1077  H1090   1.107   .     S
C1077  H1091   1.110   .     S
C1078  O1115   1.281   .     A
C1078  O1118   1.281   .     A
C1078  C1080   1.369   .     S
C1079  O1116   1.281   .     A
C1079  O1117   1.281   .     A
C1079  C1081   1.369   .     S
C1081  C72     1.167   1_556 S
C1082  I1101   2.135   .     S
C1083  I1102   2.147   .     S
C1083  C1122   1.383   .     S
C1084  I1103   2.135   .     S
C1084  C1138   1.378   .     S
H1085  N1107   1.031   .     S
H1089  N1110   1.029   .     S
H1096  N1108   1.029   .     S
H1100  N1109   1.031   .     S
N1105  Zn1119  2.020   .     S
N1106  Zn1120  2.020   .     S
O1111  Zn1119  1.985   .     S
O1112  Zn1120  1.985   .     S
O1113  Zn1119  1.986   .     S
O1114  Zn1120  1.986   .     S
O1115  Zn1119  1.953   .     S
O1116  Zn1120  1.953   .     S
O1117  Zn1119  1.953   .     S
O1118  Zn1120  1.953   .     S
C1121  O1170   1.298   .     A
C1121  C1124   1.443   .     S
C1121  O1167   1.290   .     A
C1122  C1124   1.408   .     A
C1122  I1160   2.147   .     S
C1123  C1139   1.408   .     A
C1123  C1140   1.399   .     A
C1123  C1132   1.443   .     S
C1124  C1138   1.399   .     A
C1125  N1162   1.370   .     A
C1125  N1163   1.422   .     S
C1125  C1464   1.437   1_545 S
C1126  N1164   1.421   .     S
C1126  N1161   1.371   .     A
C1126  C1295   1.437   .     S
C1127  N1165   1.422   .     S
C1127  N1162   1.370   .     A
C1127  C1462   1.437   1_545 S
C1128  N1161   1.371   .     A
C1128  N1166   1.421   .     S
C1128  C1293   1.437   .     S
C1129  H1149   1.110   .     S
C1129  H1150   1.109   .     S
C1129  N1163   1.447   .     S
C1129  H1151   1.108   .     S
C1130  H1154   1.110   .     S
C1130  H1155   1.111   .     S
C1130  H1153   1.107   .     S
C1130  N1164   1.444   .     S
C1131  H1142   1.110   .     S
C1131  H1143   1.109   .     S
C1131  N1165   1.447   .     S
C1131  H1144   1.108   .     S
C1132  O1168   1.298   .     A
C1132  O1169   1.290   .     A
C1133  H1148   1.110   .     S
C1133  N1166   1.444   .     S
C1133  H1146   1.107   .     S
C1133  H1147   1.110   .     S
C1134  O1171   1.281   .     A
C1134  O1174   1.281   .     A
C1134  C1136   1.369   .     S
C1135  O1172   1.281   .     A
C1135  O1173   1.281   .     A
C1135  C1137   1.369   .     S
C1137  C128    1.167   1_556 S
C1138  I1157   2.135   .     S
C1139  I1158   2.147   .     S
C1139  C1010   1.383   1_655 S
C1140  I1159   2.135   .     S
C1140  C1026   1.378   1_655 S
H1141  N1163   1.031   .     S
H1145  N1166   1.029   .     S
H1152  N1164   1.029   .     S
H1156  N1165   1.031   .     S
N1161  Zn1175  2.020   .     S
N1162  Zn1176  2.020   .     S
O1167  Zn1175  1.985   .     S
O1168  Zn1176  1.985   .     S
O1169  Zn1175  1.986   .     S
O1170  Zn1176  1.986   .     S
O1171  Zn1175  1.953   .     S
O1172  Zn1176  1.953   .     S
O1173  Zn1175  1.953   .     S
O1174  Zn1176  1.953   .     S
C1177  O1226   1.298   .     A
C1177  C1180   1.443   .     S
C1177  O1223   1.290   .     A
C1178  C1180   1.408   .     A
C1178  I1216   2.147   .     S
C1178  C1307   1.383   1_455 S
C1179  C1195   1.408   .     A
C1179  C1196   1.399   .     A
C1179  C1188   1.443   .     S
C1180  C1194   1.399   .     A
C1181  N1218   1.370   .     A
C1181  N1219   1.422   .     S
C1182  N1220   1.421   .     S
C1182  N1217   1.371   .     A
C1182  C1351   1.437   .     S
C1183  N1221   1.422   .     S
C1183  N1218   1.370   .     A
C1184  N1217   1.371   .     A
C1184  N1222   1.421   .     S
C1184  C1349   1.437   .     S
C1185  H1205   1.110   .     S
C1185  H1206   1.109   .     S
C1185  N1219   1.447   .     S
C1185  H1207   1.108   .     S
C1186  H1210   1.110   .     S
C1186  H1211   1.111   .     S
C1186  H1209   1.107   .     S
C1186  N1220   1.444   .     S
C1187  H1198   1.110   .     S
C1187  H1199   1.109   .     S
C1187  N1221   1.447   .     S
C1187  H1200   1.108   .     S
C1188  O1224   1.298   .     A
C1188  O1225   1.290   .     A
C1189  H1204   1.110   .     S
C1189  N1222   1.444   .     S
C1189  H1202   1.107   .     S
C1189  H1203   1.110   .     S
C1190  O1227   1.281   .     A
C1190  O1230   1.281   .     A
C1190  C1192   1.369   .     S
C1191  O1228   1.281   .     A
C1191  O1229   1.281   .     A
C1191  C1193   1.369   .     S
C1193  C184    1.167   1_556 S
C1194  I1213   2.135   .     S
C1194  C1308   1.378   1_455 S
C1195  I1214   2.147   .     S
C1195  C1234   1.383   .     S
C1196  I1215   2.135   .     S
C1196  C1250   1.378   .     S
H1197  N1219   1.031   .     S
H1201  N1222   1.029   .     S
H1208  N1220   1.029   .     S
H1212  N1221   1.031   .     S
N1217  Zn1231  2.020   .     S
N1218  Zn1232  2.020   .     S
O1223  Zn1231  1.985   .     S
O1224  Zn1232  1.985   .     S
O1225  Zn1231  1.986   .     S
O1226  Zn1232  1.986   .     S
O1227  Zn1231  1.953   .     S
O1228  Zn1232  1.953   .     S
O1229  Zn1231  1.953   .     S
O1230  Zn1232  1.953   .     S
C1233  O1282   1.298   .     A
C1233  C1236   1.443   .     S
C1233  O1279   1.290   .     A
C1234  C1236   1.408   .     A
C1234  I1272   2.147   .     S
C1235  C1251   1.408   .     A
C1235  C1252   1.399   .     A
C1235  C1244   1.443   .     S
C1236  C1250   1.399   .     A
C1237  N1274   1.370   .     A
C1237  N1275   1.422   .     S
C1238  N1276   1.421   .     S
C1238  N1273   1.371   .     A
C1238  C1407   1.437   .     S
C1239  N1277   1.422   .     S
C1239  N1274   1.370   .     A
C1240  N1273   1.371   .     A
C1240  N1278   1.421   .     S
C1240  C1405   1.437   .     S
C1241  H1261   1.110   .     S
C1241  H1262   1.109   .     S
C1241  N1275   1.447   .     S
C1241  H1263   1.108   .     S
C1242  H1266   1.110   .     S
C1242  H1267   1.111   .     S
C1242  H1265   1.107   .     S
C1242  N1276   1.444   .     S
C1243  H1254   1.110   .     S
C1243  H1255   1.109   .     S
C1243  N1277   1.447   .     S
C1243  H1256   1.108   .     S
C1244  O1280   1.298   .     A
C1244  O1281   1.290   .     A
C1245  H1260   1.110   .     S
C1245  N1278   1.444   .     S
C1245  H1258   1.107   .     S
C1245  H1259   1.110   .     S
C1246  O1283   1.281   .     A
C1246  O1286   1.281   .     A
C1246  C1248   1.369   .     S
C1247  O1284   1.281   .     A
C1247  O1285   1.281   .     A
C1247  C1249   1.369   .     S
C1249  C240    1.167   1_556 S
C1250  I1269   2.135   .     S
C1251  I1270   2.147   .     S
C1251  C1290   1.383   .     S
C1252  I1271   2.135   .     S
C1252  C1306   1.378   .     S
H1253  N1275   1.031   .     S
H1257  N1278   1.029   .     S
H1264  N1276   1.029   .     S
H1268  N1277   1.031   .     S
N1273  Zn1287  2.020   .     S
N1274  Zn1288  2.020   .     S
O1279  Zn1287  1.985   .     S
O1280  Zn1288  1.985   .     S
O1281  Zn1287  1.986   .     S
O1282  Zn1288  1.986   .     S
O1283  Zn1287  1.953   .     S
O1284  Zn1288  1.953   .     S
O1285  Zn1287  1.953   .     S
O1286  Zn1288  1.953   .     S
C1289  O1338   1.298   .     A
C1289  C1292   1.443   .     S
C1289  O1335   1.290   .     A
C1290  C1292   1.408   .     A
C1290  I1328   2.147   .     S
C1291  C1307   1.408   .     A
C1291  C1308   1.399   .     A
C1291  C1300   1.443   .     S
C1292  C1306   1.399   .     A
C1293  N1330   1.370   .     A
C1293  N1331   1.422   .     S
C1294  N1332   1.421   .     S
C1294  N1329   1.371   .     A
C1294  C1463   1.437   .     S
C1295  N1333   1.422   .     S
C1295  N1330   1.370   .     A
C1296  N1329   1.371   .     A
C1296  N1334   1.421   .     S
C1296  C1461   1.437   .     S
C1297  H1317   1.110   .     S
C1297  H1318   1.109   .     S
C1297  N1331   1.447   .     S
C1297  H1319   1.108   .     S
C1298  H1322   1.110   .     S
C1298  H1323   1.111   .     S
C1298  H1321   1.107   .     S
C1298  N1332   1.444   .     S
C1299  H1310   1.110   .     S
C1299  H1311   1.109   .     S
C1299  N1333   1.447   .     S
C1299  H1312   1.108   .     S
C1300  O1336   1.298   .     A
C1300  O1337   1.290   .     A
C1301  H1316   1.110   .     S
C1301  N1334   1.444   .     S
C1301  H1314   1.107   .     S
C1301  H1315   1.110   .     S
C1302  O1339   1.281   .     A
C1302  O1342   1.281   .     A
C1302  C1304   1.369   .     S
C1303  O1340   1.281   .     A
C1303  O1341   1.281   .     A
C1303  C1305   1.369   .     S
C1305  C296    1.167   1_556 S
C1306  I1325   2.135   .     S
C1307  I1326   2.147   .     S
C1307  C1178   1.383   1_655 S
C1308  I1327   2.135   .     S
C1308  C1194   1.378   1_655 S
H1309  N1331   1.031   .     S
H1313  N1334   1.029   .     S
H1320  N1332   1.029   .     S
H1324  N1333   1.031   .     S
N1329  Zn1343  2.020   .     S
N1330  Zn1344  2.020   .     S
O1335  Zn1343  1.985   .     S
O1336  Zn1344  1.985   .     S
O1337  Zn1343  1.986   .     S
O1338  Zn1344  1.986   .     S
O1339  Zn1343  1.953   .     S
O1340  Zn1344  1.953   .     S
O1341  Zn1343  1.953   .     S
O1342  Zn1344  1.953   .     S
C1345  O1394   1.298   .     A
C1345  C1348   1.443   .     S
C1345  O1391   1.290   .     A
C1346  C1348   1.408   .     A
C1346  I1384   2.147   .     S
C1346  C1475   1.383   1_455 S
C1347  C1363   1.408   .     A
C1347  C1364   1.399   .     A
C1347  C1356   1.443   .     S
C1348  C1362   1.399   .     A
C1349  N1386   1.370   .     A
C1349  N1387   1.422   .     S
C1350  N1388   1.421   .     S
C1350  N1385   1.371   .     A
C1350  C1015   1.437   1_565 S
C1351  N1389   1.422   .     S
C1351  N1386   1.370   .     A
C1352  N1385   1.371   .     A
C1352  N1390   1.421   .     S
C1352  C1013   1.437   1_565 S
C1353  H1373   1.110   .     S
C1353  H1374   1.109   .     S
C1353  N1387   1.447   .     S
C1353  H1375   1.108   .     S
C1354  H1378   1.110   .     S
C1354  H1379   1.111   .     S
C1354  H1377   1.107   .     S
C1354  N1388   1.444   .     S
C1355  H1366   1.110   .     S
C1355  H1367   1.109   .     S
C1355  N1389   1.447   .     S
C1355  H1368   1.108   .     S
C1356  O1392   1.298   .     A
C1356  O1393   1.290   .     A
C1357  H1372   1.110   .     S
C1357  N1390   1.444   .     S
C1357  H1370   1.107   .     S
C1357  H1371   1.110   .     S
C1358  O1395   1.281   .     A
C1358  O1398   1.281   .     A
C1358  C1360   1.369   .     S
C1359  O1396   1.281   .     A
C1359  O1397   1.281   .     A
C1359  C1361   1.369   .     S
C1361  C352    1.167   1_556 S
C1362  I1381   2.135   .     S
C1362  C1476   1.378   1_455 S
C1363  I1382   2.147   .     S
C1363  C1402   1.383   .     S
C1364  I1383   2.135   .     S
C1364  C1418   1.378   .     S
H1365  N1387   1.031   .     S
H1369  N1390   1.029   .     S
H1376  N1388   1.029   .     S
H1380  N1389   1.031   .     S
N1385  Zn1399  2.020   .     S
N1386  Zn1400  2.020   .     S
O1391  Zn1399  1.985   .     S
O1392  Zn1400  1.985   .     S
O1393  Zn1399  1.986   .     S
O1394  Zn1400  1.986   .     S
O1395  Zn1399  1.953   .     S
O1396  Zn1400  1.953   .     S
O1397  Zn1399  1.953   .     S
O1398  Zn1400  1.953   .     S
C1401  O1450   1.298   .     A
C1401  C1404   1.443   .     S
C1401  O1447   1.290   .     A
C1402  C1404   1.408   .     A
C1402  I1440   2.147   .     S
C1403  C1419   1.408   .     A
C1403  C1420   1.399   .     A
C1403  C1412   1.443   .     S
C1404  C1418   1.399   .     A
C1405  N1442   1.370   .     A
C1405  N1443   1.422   .     S
C1406  N1444   1.421   .     S
C1406  N1441   1.371   .     A
C1406  C1071   1.437   1_565 S
C1407  N1445   1.422   .     S
C1407  N1442   1.370   .     A
C1408  N1441   1.371   .     A
C1408  N1446   1.421   .     S
C1408  C1069   1.437   1_565 S
C1409  H1429   1.110   .     S
C1409  H1430   1.109   .     S
C1409  N1443   1.447   .     S
C1409  H1431   1.108   .     S
C1410  H1434   1.110   .     S
C1410  H1435   1.111   .     S
C1410  H1433   1.107   .     S
C1410  N1444   1.444   .     S
C1411  H1422   1.110   .     S
C1411  H1423   1.109   .     S
C1411  N1445   1.447   .     S
C1411  H1424   1.108   .     S
C1412  O1448   1.298   .     A
C1412  O1449   1.290   .     A
C1413  H1428   1.110   .     S
C1413  N1446   1.444   .     S
C1413  H1426   1.107   .     S
C1413  H1427   1.110   .     S
C1414  O1451   1.281   .     A
C1414  O1454   1.281   .     A
C1414  C1416   1.369   .     S
C1415  O1452   1.281   .     A
C1415  O1453   1.281   .     A
C1415  C1417   1.369   .     S
C1417  C408    1.167   1_556 S
C1418  I1437   2.135   .     S
C1419  I1438   2.147   .     S
C1419  C1458   1.383   .     S
C1420  I1439   2.135   .     S
C1420  C1474   1.378   .     S
H1421  N1443   1.031   .     S
H1425  N1446   1.029   .     S
H1432  N1444   1.029   .     S
H1436  N1445   1.031   .     S
N1441  Zn1455  2.020   .     S
N1442  Zn1456  2.020   .     S
O1447  Zn1455  1.985   .     S
O1448  Zn1456  1.985   .     S
O1449  Zn1455  1.986   .     S
O1450  Zn1456  1.986   .     S
O1451  Zn1455  1.953   .     S
O1452  Zn1456  1.953   .     S
O1453  Zn1455  1.953   .     S
O1454  Zn1456  1.953   .     S
C1457  O1506   1.298   .     A
C1457  C1460   1.443   .     S
C1457  O1503   1.290   .     A
C1458  C1460   1.408   .     A
C1458  I1496   2.147   .     S
C1459  C1475   1.408   .     A
C1459  C1476   1.399   .     A
C1459  C1468   1.443   .     S
C1460  C1474   1.399   .     A
C1461  N1498   1.370   .     A
C1461  N1499   1.422   .     S
C1462  N1500   1.421   .     S
C1462  N1497   1.371   .     A
C1462  C1127   1.437   1_565 S
C1463  N1501   1.422   .     S
C1463  N1498   1.370   .     A
C1464  N1497   1.371   .     A
C1464  N1502   1.421   .     S
C1464  C1125   1.437   1_565 S
C1465  H1485   1.110   .     S
C1465  H1486   1.109   .     S
C1465  N1499   1.447   .     S
C1465  H1487   1.108   .     S
C1466  H1490   1.110   .     S
C1466  H1491   1.111   .     S
C1466  H1489   1.107   .     S
C1466  N1500   1.444   .     S
C1467  H1478   1.110   .     S
C1467  H1479   1.109   .     S
C1467  N1501   1.447   .     S
C1467  H1480   1.108   .     S
C1468  O1504   1.298   .     A
C1468  O1505   1.290   .     A
C1469  H1484   1.110   .     S
C1469  N1502   1.444   .     S
C1469  H1482   1.107   .     S
C1469  H1483   1.110   .     S
C1470  O1507   1.281   .     A
C1470  O1510   1.281   .     A
C1470  C1472   1.369   .     S
C1471  O1508   1.281   .     A
C1471  O1509   1.281   .     A
C1471  C1473   1.369   .     S
C1473  C464    1.167   1_556 S
C1474  I1493   2.135   .     S
C1475  I1494   2.147   .     S
C1475  C1346   1.383   1_655 S
C1476  I1495   2.135   .     S
C1476  C1362   1.378   1_655 S
H1477  N1499   1.031   .     S
H1481  N1502   1.029   .     S
H1488  N1500   1.029   .     S
H1492  N1501   1.031   .     S
N1497  Zn1511  2.020   .     S
N1498  Zn1512  2.020   .     S
O1503  Zn1511  1.985   .     S
O1504  Zn1512  1.985   .     S
O1505  Zn1511  1.986   .     S
O1506  Zn1512  1.986   .     S
O1507  Zn1511  1.953   .     S
O1508  Zn1512  1.953   .     S
O1509  Zn1511  1.953   .     S
O1510  Zn1512  1.953   .     S
