data_str_m3_o1_o10_pcu_sym.147
_audit_creation_date              2020-01-03
_audit_creation_method            'Materials Studio'
_symmetry_space_group_name_H-M    'P1'
_symmetry_Int_Tables_number       1
_symmetry_cell_setting            triclinic
loop_
_symmetry_equiv_pos_as_xyz
  x,y,z
_cell_length_a                    25.6537
_cell_length_b                    32.1800
_cell_length_c                    29.7801
_cell_angle_alpha                 89.2964
_cell_angle_beta                  97.3275
_cell_angle_gamma                 92.9206
loop_
_atom_site_label
_atom_site_type_symbol
_atom_site_fract_x
_atom_site_fract_y
_atom_site_fract_z
_atom_site_U_iso_or_equiv
_atom_site_adp_type
_atom_site_occupancy
C1     C     0.16910   0.08687   0.16700   0.00000  Uiso   1.00
C2     C     0.16432   0.24647   0.16635   0.00000  Uiso   1.00
C3     C     0.06726   0.16632   0.15502   0.00000  Uiso   1.00
C4     C     0.26607   0.16700   0.17832   0.00000  Uiso   1.00
C5     C     0.01235   0.16448   0.14882   0.00000  Uiso   1.00
C6     C     0.32098   0.16869   0.18454   0.00000  Uiso   1.00
C7     C     0.18714   0.02146   0.13053   0.00000  Uiso   1.00
C8     C     0.14634   0.31188   0.20283   0.00000  Uiso   1.00
C9     C     0.18148   0.31213   0.13012   0.00000  Uiso   1.00
C10    C     0.15217   0.02121   0.20331   0.00000  Uiso   1.00
C11    C     0.16240   0.29067   0.16613   0.00000  Uiso   1.00
C12    C     0.17111   0.04267   0.16724   0.00000  Uiso   1.00
C13    C     0.20297   0.19134   0.02613   0.00000  Uiso   1.00
C14    C     0.13035   0.14193   0.30715   0.00000  Uiso   1.00
C15    C     0.20231   0.19068   0.31197   0.00000  Uiso   1.00
C16    C     0.13099   0.14269   0.02136   0.00000  Uiso   1.00
H17    H     0.32560   0.15907   0.11499   0.00000  Uiso   1.00
H18    H     0.00772   0.17399   0.21840   0.00000  Uiso   1.00
H19    H     0.19397   0.29573   0.10213   0.00000  Uiso   1.00
H20    H     0.13986   0.03760   0.23139   0.00000  Uiso   1.00
H21    H     0.23073   0.20950   0.29565   0.00000  Uiso   1.00
H22    H     0.10253   0.12396   0.03772   0.00000  Uiso   1.00
N23    N     0.16665   0.16666   0.28573   0.00000  Uiso   1.00
N24    N     0.16668   0.16668   0.04760   0.00000  Uiso   1.00
O25    O     0.16666   0.10558   0.20487   0.00000  Uiso   1.00
O26    O     0.16667   0.22775   0.12846   0.00000  Uiso   1.00
O27    O     0.16666   0.10559   0.12843   0.00000  Uiso   1.00
O28    O     0.16667   0.22774   0.20490   0.00000  Uiso   1.00
O29    O     0.09058   0.16666   0.19595   0.00000  Uiso   1.00
O30    O     0.24275   0.16667   0.13739   0.00000  Uiso   1.00
O31    O     0.09058   0.16667   0.11950   0.00000  Uiso   1.00
O32    O     0.24275   0.16666   0.21383   0.00000  Uiso   1.00
Zn33   Zn    0.16667   0.16666   0.21771   0.00000  Uiso   1.00
Zn34   Zn    0.16667   0.16667   0.11563   0.00000  Uiso   1.00
C35    C     0.21167   0.04211   0.09303   0.00000  Uiso   1.00
C36    C     0.18617   0.03956   0.04843   0.00000  Uiso   1.00
C37    C     0.20967   0.05823   0.01289   0.00000  Uiso   1.00
C38    C     0.25890   0.07919   0.02154   0.00000  Uiso   1.00
C39    C     0.28482   0.08141   0.06572   0.00000  Uiso   1.00
C40    C     0.26123   0.06317   0.10149   0.00000  Uiso   1.00
H41    H     0.14799   0.02340   0.04132   0.00000  Uiso   1.00
H42    H     0.18975   0.05646   0.31197   0.00000  Uiso   1.00
H43    H     0.27703   0.09354   0.32729   0.00000  Uiso   1.00
H44    H     0.32336   0.09701   0.07212   0.00000  Uiso   1.00
H45    H     0.28169   0.06508   0.13560   0.00000  Uiso   1.00
C46    C     0.12165   0.29125   0.24027   0.00000  Uiso   1.00
C47    C     0.07219   0.27004   0.23167   0.00000  Uiso   1.00
C48    C     0.04845   0.25183   0.26738   0.00000  Uiso   1.00
C49    C     0.07413   0.25421   0.31164   0.00000  Uiso   1.00
C50    C     0.12325   0.27532   0.32042   0.00000  Uiso   1.00
C51    C     0.14687   0.29399   0.28494   0.00000  Uiso   1.00
H52    H     0.05192   0.26799   0.19750   0.00000  Uiso   1.00
H53    H     0.00997   0.23614   0.26087   0.00000  Uiso   1.00
H54    H     0.05587   0.23989   0.00584   0.00000  Uiso   1.00
H55    H     0.14298   0.27722   0.02140   0.00000  Uiso   1.00
H56    H     0.18490   0.31033   0.29214   0.00000  Uiso   1.00
S57    S     0.25537   0.22482   0.05224   0.00000  Uiso   1.00
O58    O     0.25436   0.23574   0.10069   0.00000  Uiso   1.00
O59    O     0.30602   0.20471   0.04775   0.00000  Uiso   1.00
O60    O     0.25508   0.26957   0.02240   0.00000  Uiso   1.00
H61    H     0.28876   0.28470   0.03350   0.00000  Uiso   1.00
S62    S     0.07763   0.10847   0.28109   0.00000  Uiso   1.00
O63    O     0.07815   0.06851   0.30783   0.00000  Uiso   1.00
O64    O     0.02743   0.12884   0.28654   0.00000  Uiso   1.00
O65    O     0.07598   0.09543   0.22673   0.00000  Uiso   1.00
H66    H     0.04258   0.07870   0.21927   0.00000  Uiso   1.00
C67    C     0.50244   0.08687   0.16700   0.00000  Uiso   1.00
C68    C     0.49765   0.24647   0.16635   0.00000  Uiso   1.00
C69    C     0.40059   0.16632   0.15502   0.00000  Uiso   1.00
C70    C     0.59941   0.16700   0.17832   0.00000  Uiso   1.00
C71    C     0.34568   0.16448   0.14882   0.00000  Uiso   1.00
C72    C     0.65431   0.16869   0.18454   0.00000  Uiso   1.00
C73    C     0.52047   0.02146   0.13053   0.00000  Uiso   1.00
C74    C     0.47967   0.31188   0.20283   0.00000  Uiso   1.00
C75    C     0.51481   0.31213   0.13012   0.00000  Uiso   1.00
C76    C     0.48550   0.02121   0.20331   0.00000  Uiso   1.00
C77    C     0.49573   0.29067   0.16613   0.00000  Uiso   1.00
C78    C     0.50444   0.04267   0.16724   0.00000  Uiso   1.00
C79    C     0.53630   0.19134   0.02613   0.00000  Uiso   1.00
C80    C     0.46368   0.14193   0.30715   0.00000  Uiso   1.00
C81    C     0.53565   0.19068   0.31197   0.00000  Uiso   1.00
C82    C     0.46432   0.14269   0.02136   0.00000  Uiso   1.00
H83    H     0.65894   0.15907   0.11499   0.00000  Uiso   1.00
H84    H     0.34106   0.17399   0.21840   0.00000  Uiso   1.00
H85    H     0.52731   0.29573   0.10213   0.00000  Uiso   1.00
H86    H     0.47319   0.03760   0.23139   0.00000  Uiso   1.00
H87    H     0.56407   0.20950   0.29565   0.00000  Uiso   1.00
H88    H     0.43586   0.12396   0.03772   0.00000  Uiso   1.00
N89    N     0.49999   0.16666   0.28573   0.00000  Uiso   1.00
N90    N     0.50001   0.16668   0.04760   0.00000  Uiso   1.00
O91    O     0.50000   0.10558   0.20487   0.00000  Uiso   1.00
O92    O     0.50000   0.22775   0.12846   0.00000  Uiso   1.00
O93    O     0.50000   0.10559   0.12843   0.00000  Uiso   1.00
O94    O     0.50000   0.22774   0.20490   0.00000  Uiso   1.00
O95    O     0.42392   0.16666   0.19595   0.00000  Uiso   1.00
O96    O     0.57608   0.16667   0.13739   0.00000  Uiso   1.00
O97    O     0.42392   0.16667   0.11950   0.00000  Uiso   1.00
O98    O     0.57608   0.16666   0.21383   0.00000  Uiso   1.00
Zn99   Zn    0.50000   0.16666   0.21771   0.00000  Uiso   1.00
Zn100  Zn    0.50000   0.16667   0.11563   0.00000  Uiso   1.00
C101   C     0.54500   0.04211   0.09303   0.00000  Uiso   1.00
C102   C     0.51950   0.03956   0.04843   0.00000  Uiso   1.00
C103   C     0.54301   0.05823   0.01289   0.00000  Uiso   1.00
C104   C     0.59223   0.07919   0.02154   0.00000  Uiso   1.00
C105   C     0.61815   0.08141   0.06572   0.00000  Uiso   1.00
C106   C     0.59456   0.06317   0.10149   0.00000  Uiso   1.00
H107   H     0.48132   0.02340   0.04132   0.00000  Uiso   1.00
H108   H     0.52309   0.05646   0.31197   0.00000  Uiso   1.00
H109   H     0.61037   0.09354   0.32729   0.00000  Uiso   1.00
H110   H     0.65670   0.09701   0.07212   0.00000  Uiso   1.00
H111   H     0.61502   0.06508   0.13560   0.00000  Uiso   1.00
C112   C     0.45498   0.29125   0.24027   0.00000  Uiso   1.00
C113   C     0.40552   0.27004   0.23167   0.00000  Uiso   1.00
C114   C     0.38178   0.25183   0.26738   0.00000  Uiso   1.00
C115   C     0.40746   0.25421   0.31164   0.00000  Uiso   1.00
C116   C     0.45658   0.27532   0.32042   0.00000  Uiso   1.00
C117   C     0.48020   0.29399   0.28494   0.00000  Uiso   1.00
H118   H     0.38525   0.26799   0.19750   0.00000  Uiso   1.00
H119   H     0.34331   0.23614   0.26087   0.00000  Uiso   1.00
H120   H     0.38920   0.23989   0.00584   0.00000  Uiso   1.00
H121   H     0.47631   0.27722   0.02140   0.00000  Uiso   1.00
H122   H     0.51824   0.31033   0.29214   0.00000  Uiso   1.00
S123   S     0.58870   0.22482   0.05224   0.00000  Uiso   1.00
O124   O     0.58770   0.23574   0.10069   0.00000  Uiso   1.00
O125   O     0.63935   0.20471   0.04775   0.00000  Uiso   1.00
O126   O     0.58841   0.26957   0.02240   0.00000  Uiso   1.00
H127   H     0.62210   0.28470   0.03350   0.00000  Uiso   1.00
S128   S     0.41096   0.10847   0.28109   0.00000  Uiso   1.00
O129   O     0.41148   0.06851   0.30783   0.00000  Uiso   1.00
O130   O     0.36076   0.12884   0.28654   0.00000  Uiso   1.00
O131   O     0.40931   0.09543   0.22673   0.00000  Uiso   1.00
H132   H     0.37591   0.07870   0.21927   0.00000  Uiso   1.00
C133   C     0.83577   0.08687   0.16700   0.00000  Uiso   1.00
C134   C     0.83098   0.24647   0.16635   0.00000  Uiso   1.00
C135   C     0.73393   0.16632   0.15502   0.00000  Uiso   1.00
C136   C     0.93274   0.16700   0.17832   0.00000  Uiso   1.00
C137   C     0.67902   0.16448   0.14882   0.00000  Uiso   1.00
C138   C     0.98765   0.16869   0.18454   0.00000  Uiso   1.00
C139   C     0.85381   0.02146   0.13053   0.00000  Uiso   1.00
C140   C     0.81300   0.31188   0.20283   0.00000  Uiso   1.00
C141   C     0.84815   0.31213   0.13012   0.00000  Uiso   1.00
C142   C     0.81883   0.02121   0.20331   0.00000  Uiso   1.00
C143   C     0.82907   0.29067   0.16613   0.00000  Uiso   1.00
C144   C     0.83777   0.04267   0.16724   0.00000  Uiso   1.00
C145   C     0.86963   0.19134   0.02613   0.00000  Uiso   1.00
C146   C     0.79702   0.14193   0.30715   0.00000  Uiso   1.00
C147   C     0.86898   0.19068   0.31197   0.00000  Uiso   1.00
C148   C     0.79765   0.14269   0.02136   0.00000  Uiso   1.00
H149   H     0.99227   0.15907   0.11499   0.00000  Uiso   1.00
H150   H     0.67439   0.17399   0.21840   0.00000  Uiso   1.00
H151   H     0.86064   0.29573   0.10213   0.00000  Uiso   1.00
H152   H     0.80653   0.03760   0.23139   0.00000  Uiso   1.00
H153   H     0.89740   0.20950   0.29565   0.00000  Uiso   1.00
H154   H     0.76919   0.12396   0.03772   0.00000  Uiso   1.00
N155   N     0.83332   0.16666   0.28573   0.00000  Uiso   1.00
N156   N     0.83335   0.16668   0.04760   0.00000  Uiso   1.00
O157   O     0.83333   0.10558   0.20487   0.00000  Uiso   1.00
O158   O     0.83334   0.22775   0.12846   0.00000  Uiso   1.00
O159   O     0.83333   0.10559   0.12843   0.00000  Uiso   1.00
O160   O     0.83334   0.22774   0.20490   0.00000  Uiso   1.00
O161   O     0.75725   0.16666   0.19595   0.00000  Uiso   1.00
O162   O     0.90942   0.16667   0.13739   0.00000  Uiso   1.00
O163   O     0.75725   0.16667   0.11950   0.00000  Uiso   1.00
O164   O     0.90942   0.16666   0.21383   0.00000  Uiso   1.00
Zn165  Zn    0.83333   0.16666   0.21771   0.00000  Uiso   1.00
Zn166  Zn    0.83333   0.16667   0.11563   0.00000  Uiso   1.00
C167   C     0.87833   0.04211   0.09303   0.00000  Uiso   1.00
C168   C     0.85283   0.03956   0.04843   0.00000  Uiso   1.00
C169   C     0.87634   0.05823   0.01289   0.00000  Uiso   1.00
C170   C     0.92557   0.07919   0.02154   0.00000  Uiso   1.00
C171   C     0.95148   0.08141   0.06572   0.00000  Uiso   1.00
C172   C     0.92790   0.06317   0.10149   0.00000  Uiso   1.00
H173   H     0.81466   0.02340   0.04132   0.00000  Uiso   1.00
H174   H     0.85642   0.05646   0.31197   0.00000  Uiso   1.00
H175   H     0.94370   0.09354   0.32729   0.00000  Uiso   1.00
H176   H     0.99003   0.09701   0.07212   0.00000  Uiso   1.00
H177   H     0.94836   0.06508   0.13560   0.00000  Uiso   1.00
C178   C     0.78832   0.29125   0.24027   0.00000  Uiso   1.00
C179   C     0.73886   0.27004   0.23167   0.00000  Uiso   1.00
C180   C     0.71512   0.25183   0.26738   0.00000  Uiso   1.00
C181   C     0.74079   0.25421   0.31164   0.00000  Uiso   1.00
C182   C     0.78991   0.27532   0.32042   0.00000  Uiso   1.00
C183   C     0.81353   0.29399   0.28494   0.00000  Uiso   1.00
H184   H     0.71859   0.26799   0.19750   0.00000  Uiso   1.00
H185   H     0.67664   0.23614   0.26087   0.00000  Uiso   1.00
H186   H     0.72254   0.23989   0.00584   0.00000  Uiso   1.00
H187   H     0.80965   0.27722   0.02140   0.00000  Uiso   1.00
H188   H     0.85157   0.31033   0.29214   0.00000  Uiso   1.00
S189   S     0.92204   0.22482   0.05224   0.00000  Uiso   1.00
O190   O     0.92103   0.23574   0.10069   0.00000  Uiso   1.00
O191   O     0.97268   0.20471   0.04775   0.00000  Uiso   1.00
O192   O     0.92174   0.26957   0.02240   0.00000  Uiso   1.00
H193   H     0.95543   0.28470   0.03350   0.00000  Uiso   1.00
S194   S     0.74430   0.10847   0.28109   0.00000  Uiso   1.00
O195   O     0.74482   0.06851   0.30783   0.00000  Uiso   1.00
O196   O     0.69410   0.12884   0.28654   0.00000  Uiso   1.00
O197   O     0.74265   0.09543   0.22673   0.00000  Uiso   1.00
H198   H     0.70925   0.07870   0.21927   0.00000  Uiso   1.00
C199   C     0.16910   0.42021   0.16700   0.00000  Uiso   1.00
C200   C     0.16432   0.57980   0.16635   0.00000  Uiso   1.00
C201   C     0.06726   0.49966   0.15502   0.00000  Uiso   1.00
C202   C     0.26607   0.50033   0.17832   0.00000  Uiso   1.00
C203   C     0.01235   0.49781   0.14882   0.00000  Uiso   1.00
C204   C     0.32098   0.50202   0.18454   0.00000  Uiso   1.00
C205   C     0.18714   0.35479   0.13053   0.00000  Uiso   1.00
C206   C     0.14634   0.64522   0.20283   0.00000  Uiso   1.00
C207   C     0.18148   0.64546   0.13012   0.00000  Uiso   1.00
C208   C     0.15217   0.35454   0.20331   0.00000  Uiso   1.00
C209   C     0.16240   0.62400   0.16613   0.00000  Uiso   1.00
C210   C     0.17111   0.37601   0.16724   0.00000  Uiso   1.00
C211   C     0.20297   0.52467   0.02613   0.00000  Uiso   1.00
C212   C     0.13035   0.47527   0.30715   0.00000  Uiso   1.00
C213   C     0.20231   0.52401   0.31197   0.00000  Uiso   1.00
C214   C     0.13099   0.47603   0.02136   0.00000  Uiso   1.00
H215   H     0.32560   0.49240   0.11499   0.00000  Uiso   1.00
H216   H     0.00772   0.50732   0.21840   0.00000  Uiso   1.00
H217   H     0.19397   0.62906   0.10213   0.00000  Uiso   1.00
H218   H     0.13986   0.37093   0.23139   0.00000  Uiso   1.00
H219   H     0.23073   0.54284   0.29565   0.00000  Uiso   1.00
H220   H     0.10253   0.45730   0.03772   0.00000  Uiso   1.00
N221   N     0.16665   0.49999   0.28573   0.00000  Uiso   1.00
N222   N     0.16668   0.50001   0.04760   0.00000  Uiso   1.00
O223   O     0.16666   0.43892   0.20487   0.00000  Uiso   1.00
O224   O     0.16667   0.56108   0.12846   0.00000  Uiso   1.00
O225   O     0.16666   0.43893   0.12843   0.00000  Uiso   1.00
O226   O     0.16667   0.56107   0.20490   0.00000  Uiso   1.00
O227   O     0.09058   0.50000   0.19595   0.00000  Uiso   1.00
O228   O     0.24275   0.50000   0.13739   0.00000  Uiso   1.00
O229   O     0.09058   0.50000   0.11950   0.00000  Uiso   1.00
O230   O     0.24275   0.50000   0.21383   0.00000  Uiso   1.00
Zn231  Zn    0.16667   0.49999   0.21771   0.00000  Uiso   1.00
Zn232  Zn    0.16667   0.50001   0.11563   0.00000  Uiso   1.00
C233   C     0.21167   0.37544   0.09303   0.00000  Uiso   1.00
C234   C     0.18617   0.37289   0.04843   0.00000  Uiso   1.00
C235   C     0.20967   0.39156   0.01289   0.00000  Uiso   1.00
C236   C     0.25890   0.41252   0.02154   0.00000  Uiso   1.00
C237   C     0.28482   0.41474   0.06572   0.00000  Uiso   1.00
C238   C     0.26123   0.39650   0.10149   0.00000  Uiso   1.00
H239   H     0.14799   0.35673   0.04132   0.00000  Uiso   1.00
H240   H     0.18975   0.38980   0.31197   0.00000  Uiso   1.00
H241   H     0.27703   0.42687   0.32729   0.00000  Uiso   1.00
H242   H     0.32336   0.43035   0.07212   0.00000  Uiso   1.00
H243   H     0.28169   0.39842   0.13560   0.00000  Uiso   1.00
C244   C     0.12165   0.62458   0.24027   0.00000  Uiso   1.00
C245   C     0.07219   0.60337   0.23167   0.00000  Uiso   1.00
C246   C     0.04845   0.58517   0.26738   0.00000  Uiso   1.00
C247   C     0.07413   0.58755   0.31164   0.00000  Uiso   1.00
C248   C     0.12325   0.60865   0.32042   0.00000  Uiso   1.00
C249   C     0.14687   0.62732   0.28494   0.00000  Uiso   1.00
H250   H     0.05192   0.60132   0.19750   0.00000  Uiso   1.00
H251   H     0.00997   0.56947   0.26087   0.00000  Uiso   1.00
H252   H     0.05587   0.57322   0.00584   0.00000  Uiso   1.00
H253   H     0.14298   0.61055   0.02140   0.00000  Uiso   1.00
H254   H     0.18490   0.64367   0.29214   0.00000  Uiso   1.00
S255   S     0.25537   0.55815   0.05224   0.00000  Uiso   1.00
O256   O     0.25436   0.56907   0.10069   0.00000  Uiso   1.00
O257   O     0.30602   0.53805   0.04775   0.00000  Uiso   1.00
O258   O     0.25508   0.60290   0.02240   0.00000  Uiso   1.00
H259   H     0.28876   0.61803   0.03350   0.00000  Uiso   1.00
S260   S     0.07763   0.44180   0.28109   0.00000  Uiso   1.00
O261   O     0.07815   0.40185   0.30783   0.00000  Uiso   1.00
O262   O     0.02743   0.46218   0.28654   0.00000  Uiso   1.00
O263   O     0.07598   0.42877   0.22673   0.00000  Uiso   1.00
H264   H     0.04258   0.41203   0.21927   0.00000  Uiso   1.00
C265   C     0.50244   0.42021   0.16700   0.00000  Uiso   1.00
C266   C     0.49765   0.57980   0.16635   0.00000  Uiso   1.00
C267   C     0.40059   0.49966   0.15502   0.00000  Uiso   1.00
C268   C     0.59941   0.50033   0.17832   0.00000  Uiso   1.00
C269   C     0.34568   0.49781   0.14882   0.00000  Uiso   1.00
C270   C     0.65431   0.50202   0.18454   0.00000  Uiso   1.00
C271   C     0.52047   0.35479   0.13053   0.00000  Uiso   1.00
C272   C     0.47967   0.64522   0.20283   0.00000  Uiso   1.00
C273   C     0.51481   0.64546   0.13012   0.00000  Uiso   1.00
C274   C     0.48550   0.35454   0.20331   0.00000  Uiso   1.00
C275   C     0.49573   0.62400   0.16613   0.00000  Uiso   1.00
C276   C     0.50444   0.37601   0.16724   0.00000  Uiso   1.00
C277   C     0.53630   0.52467   0.02613   0.00000  Uiso   1.00
C278   C     0.46368   0.47527   0.30715   0.00000  Uiso   1.00
C279   C     0.53565   0.52401   0.31197   0.00000  Uiso   1.00
C280   C     0.46432   0.47603   0.02136   0.00000  Uiso   1.00
H281   H     0.65894   0.49240   0.11499   0.00000  Uiso   1.00
H282   H     0.34106   0.50732   0.21840   0.00000  Uiso   1.00
H283   H     0.52731   0.62906   0.10213   0.00000  Uiso   1.00
H284   H     0.47319   0.37093   0.23139   0.00000  Uiso   1.00
H285   H     0.56407   0.54284   0.29565   0.00000  Uiso   1.00
H286   H     0.43586   0.45730   0.03772   0.00000  Uiso   1.00
N287   N     0.49999   0.49999   0.28573   0.00000  Uiso   1.00
N288   N     0.50001   0.50001   0.04760   0.00000  Uiso   1.00
O289   O     0.50000   0.43892   0.20487   0.00000  Uiso   1.00
O290   O     0.50000   0.56108   0.12846   0.00000  Uiso   1.00
O291   O     0.50000   0.43893   0.12843   0.00000  Uiso   1.00
O292   O     0.50000   0.56107   0.20490   0.00000  Uiso   1.00
O293   O     0.42392   0.50000   0.19595   0.00000  Uiso   1.00
O294   O     0.57608   0.50000   0.13739   0.00000  Uiso   1.00
O295   O     0.42392   0.50000   0.11950   0.00000  Uiso   1.00
O296   O     0.57608   0.50000   0.21383   0.00000  Uiso   1.00
Zn297  Zn    0.50000   0.49999   0.21771   0.00000  Uiso   1.00
Zn298  Zn    0.50000   0.50001   0.11563   0.00000  Uiso   1.00
C299   C     0.54500   0.37544   0.09303   0.00000  Uiso   1.00
C300   C     0.51950   0.37289   0.04843   0.00000  Uiso   1.00
C301   C     0.54301   0.39156   0.01289   0.00000  Uiso   1.00
C302   C     0.59223   0.41252   0.02154   0.00000  Uiso   1.00
C303   C     0.61815   0.41474   0.06572   0.00000  Uiso   1.00
C304   C     0.59456   0.39650   0.10149   0.00000  Uiso   1.00
H305   H     0.48132   0.35673   0.04132   0.00000  Uiso   1.00
H306   H     0.52309   0.38980   0.31197   0.00000  Uiso   1.00
H307   H     0.61037   0.42687   0.32729   0.00000  Uiso   1.00
H308   H     0.65670   0.43035   0.07212   0.00000  Uiso   1.00
H309   H     0.61502   0.39842   0.13560   0.00000  Uiso   1.00
C310   C     0.45498   0.62458   0.24027   0.00000  Uiso   1.00
C311   C     0.40552   0.60337   0.23167   0.00000  Uiso   1.00
C312   C     0.38178   0.58517   0.26738   0.00000  Uiso   1.00
C313   C     0.40746   0.58755   0.31164   0.00000  Uiso   1.00
C314   C     0.45658   0.60865   0.32042   0.00000  Uiso   1.00
C315   C     0.48020   0.62732   0.28494   0.00000  Uiso   1.00
H316   H     0.38525   0.60132   0.19750   0.00000  Uiso   1.00
H317   H     0.34331   0.56947   0.26087   0.00000  Uiso   1.00
H318   H     0.38920   0.57322   0.00584   0.00000  Uiso   1.00
H319   H     0.47631   0.61055   0.02140   0.00000  Uiso   1.00
H320   H     0.51824   0.64367   0.29214   0.00000  Uiso   1.00
S321   S     0.58870   0.55815   0.05224   0.00000  Uiso   1.00
O322   O     0.58770   0.56907   0.10069   0.00000  Uiso   1.00
O323   O     0.63935   0.53805   0.04775   0.00000  Uiso   1.00
O324   O     0.58841   0.60290   0.02240   0.00000  Uiso   1.00
H325   H     0.62210   0.61803   0.03350   0.00000  Uiso   1.00
S326   S     0.41096   0.44180   0.28109   0.00000  Uiso   1.00
O327   O     0.41148   0.40185   0.30783   0.00000  Uiso   1.00
O328   O     0.36076   0.46218   0.28654   0.00000  Uiso   1.00
O329   O     0.40931   0.42877   0.22673   0.00000  Uiso   1.00
H330   H     0.37591   0.41203   0.21927   0.00000  Uiso   1.00
C331   C     0.83577   0.42021   0.16700   0.00000  Uiso   1.00
C332   C     0.83098   0.57980   0.16635   0.00000  Uiso   1.00
C333   C     0.73393   0.49966   0.15502   0.00000  Uiso   1.00
C334   C     0.93274   0.50033   0.17832   0.00000  Uiso   1.00
C335   C     0.67902   0.49781   0.14882   0.00000  Uiso   1.00
C336   C     0.98765   0.50202   0.18454   0.00000  Uiso   1.00
C337   C     0.85381   0.35479   0.13053   0.00000  Uiso   1.00
C338   C     0.81300   0.64522   0.20283   0.00000  Uiso   1.00
C339   C     0.84815   0.64546   0.13012   0.00000  Uiso   1.00
C340   C     0.81883   0.35454   0.20331   0.00000  Uiso   1.00
C341   C     0.82907   0.62400   0.16613   0.00000  Uiso   1.00
C342   C     0.83777   0.37601   0.16724   0.00000  Uiso   1.00
C343   C     0.86963   0.52467   0.02613   0.00000  Uiso   1.00
C344   C     0.79702   0.47527   0.30715   0.00000  Uiso   1.00
C345   C     0.86898   0.52401   0.31197   0.00000  Uiso   1.00
C346   C     0.79765   0.47603   0.02136   0.00000  Uiso   1.00
H347   H     0.99227   0.49240   0.11499   0.00000  Uiso   1.00
H348   H     0.67439   0.50732   0.21840   0.00000  Uiso   1.00
H349   H     0.86064   0.62906   0.10213   0.00000  Uiso   1.00
H350   H     0.80653   0.37093   0.23139   0.00000  Uiso   1.00
H351   H     0.89740   0.54284   0.29565   0.00000  Uiso   1.00
H352   H     0.76919   0.45730   0.03772   0.00000  Uiso   1.00
N353   N     0.83332   0.49999   0.28573   0.00000  Uiso   1.00
N354   N     0.83335   0.50001   0.04760   0.00000  Uiso   1.00
O355   O     0.83333   0.43892   0.20487   0.00000  Uiso   1.00
O356   O     0.83334   0.56108   0.12846   0.00000  Uiso   1.00
O357   O     0.83333   0.43893   0.12843   0.00000  Uiso   1.00
O358   O     0.83334   0.56107   0.20490   0.00000  Uiso   1.00
O359   O     0.75725   0.50000   0.19595   0.00000  Uiso   1.00
O360   O     0.90942   0.50000   0.13739   0.00000  Uiso   1.00
O361   O     0.75725   0.50000   0.11950   0.00000  Uiso   1.00
O362   O     0.90942   0.50000   0.21383   0.00000  Uiso   1.00
Zn363  Zn    0.83333   0.49999   0.21771   0.00000  Uiso   1.00
Zn364  Zn    0.83333   0.50001   0.11563   0.00000  Uiso   1.00
C365   C     0.87833   0.37544   0.09303   0.00000  Uiso   1.00
C366   C     0.85283   0.37289   0.04843   0.00000  Uiso   1.00
C367   C     0.87634   0.39156   0.01289   0.00000  Uiso   1.00
C368   C     0.92557   0.41252   0.02154   0.00000  Uiso   1.00
C369   C     0.95148   0.41474   0.06572   0.00000  Uiso   1.00
C370   C     0.92790   0.39650   0.10149   0.00000  Uiso   1.00
H371   H     0.81466   0.35673   0.04132   0.00000  Uiso   1.00
H372   H     0.85642   0.38980   0.31197   0.00000  Uiso   1.00
H373   H     0.94370   0.42687   0.32729   0.00000  Uiso   1.00
H374   H     0.99003   0.43035   0.07212   0.00000  Uiso   1.00
H375   H     0.94836   0.39842   0.13560   0.00000  Uiso   1.00
C376   C     0.78832   0.62458   0.24027   0.00000  Uiso   1.00
C377   C     0.73886   0.60337   0.23167   0.00000  Uiso   1.00
C378   C     0.71512   0.58517   0.26738   0.00000  Uiso   1.00
C379   C     0.74079   0.58755   0.31164   0.00000  Uiso   1.00
C380   C     0.78991   0.60865   0.32042   0.00000  Uiso   1.00
C381   C     0.81353   0.62732   0.28494   0.00000  Uiso   1.00
H382   H     0.71859   0.60132   0.19750   0.00000  Uiso   1.00
H383   H     0.67664   0.56947   0.26087   0.00000  Uiso   1.00
H384   H     0.72254   0.57322   0.00584   0.00000  Uiso   1.00
H385   H     0.80965   0.61055   0.02140   0.00000  Uiso   1.00
H386   H     0.85157   0.64367   0.29214   0.00000  Uiso   1.00
S387   S     0.92204   0.55815   0.05224   0.00000  Uiso   1.00
O388   O     0.92103   0.56907   0.10069   0.00000  Uiso   1.00
O389   O     0.97268   0.53805   0.04775   0.00000  Uiso   1.00
O390   O     0.92174   0.60290   0.02240   0.00000  Uiso   1.00
H391   H     0.95543   0.61803   0.03350   0.00000  Uiso   1.00
S392   S     0.74430   0.44180   0.28109   0.00000  Uiso   1.00
O393   O     0.74482   0.40185   0.30783   0.00000  Uiso   1.00
O394   O     0.69410   0.46218   0.28654   0.00000  Uiso   1.00
O395   O     0.74265   0.42877   0.22673   0.00000  Uiso   1.00
H396   H     0.70925   0.41203   0.21927   0.00000  Uiso   1.00
C397   C     0.16910   0.75354   0.16700   0.00000  Uiso   1.00
C398   C     0.16432   0.91313   0.16635   0.00000  Uiso   1.00
C399   C     0.06726   0.83299   0.15502   0.00000  Uiso   1.00
C400   C     0.26607   0.83367   0.17832   0.00000  Uiso   1.00
C401   C     0.01235   0.83114   0.14882   0.00000  Uiso   1.00
C402   C     0.32098   0.83535   0.18454   0.00000  Uiso   1.00
C403   C     0.18714   0.68812   0.13053   0.00000  Uiso   1.00
C404   C     0.14634   0.97855   0.20283   0.00000  Uiso   1.00
C405   C     0.18148   0.97879   0.13012   0.00000  Uiso   1.00
C406   C     0.15217   0.68787   0.20331   0.00000  Uiso   1.00
C407   C     0.16240   0.95733   0.16613   0.00000  Uiso   1.00
C408   C     0.17111   0.70934   0.16724   0.00000  Uiso   1.00
C409   C     0.20297   0.85801   0.02613   0.00000  Uiso   1.00
C410   C     0.13035   0.80860   0.30715   0.00000  Uiso   1.00
C411   C     0.20231   0.85734   0.31197   0.00000  Uiso   1.00
C412   C     0.13099   0.80936   0.02136   0.00000  Uiso   1.00
H413   H     0.32560   0.82573   0.11499   0.00000  Uiso   1.00
H414   H     0.00772   0.84065   0.21840   0.00000  Uiso   1.00
H415   H     0.19397   0.96239   0.10213   0.00000  Uiso   1.00
H416   H     0.13986   0.70426   0.23139   0.00000  Uiso   1.00
H417   H     0.23073   0.87617   0.29565   0.00000  Uiso   1.00
H418   H     0.10253   0.79063   0.03772   0.00000  Uiso   1.00
N419   N     0.16665   0.83332   0.28573   0.00000  Uiso   1.00
N420   N     0.16668   0.83334   0.04760   0.00000  Uiso   1.00
O421   O     0.16666   0.77225   0.20487   0.00000  Uiso   1.00
O422   O     0.16667   0.89442   0.12846   0.00000  Uiso   1.00
O423   O     0.16666   0.77226   0.12843   0.00000  Uiso   1.00
O424   O     0.16667   0.89441   0.20490   0.00000  Uiso   1.00
O425   O     0.09058   0.83333   0.19595   0.00000  Uiso   1.00
O426   O     0.24275   0.83334   0.13739   0.00000  Uiso   1.00
O427   O     0.09058   0.83334   0.11950   0.00000  Uiso   1.00
O428   O     0.24275   0.83333   0.21383   0.00000  Uiso   1.00
Zn429  Zn    0.16667   0.83333   0.21771   0.00000  Uiso   1.00
Zn430  Zn    0.16667   0.83334   0.11563   0.00000  Uiso   1.00
C431   C     0.21167   0.70877   0.09303   0.00000  Uiso   1.00
C432   C     0.18617   0.70623   0.04843   0.00000  Uiso   1.00
C433   C     0.20967   0.72489   0.01289   0.00000  Uiso   1.00
C434   C     0.25890   0.74586   0.02154   0.00000  Uiso   1.00
C435   C     0.28482   0.74808   0.06572   0.00000  Uiso   1.00
C436   C     0.26123   0.72983   0.10149   0.00000  Uiso   1.00
H437   H     0.14799   0.69007   0.04132   0.00000  Uiso   1.00
H438   H     0.18975   0.72313   0.31197   0.00000  Uiso   1.00
H439   H     0.27703   0.76021   0.32729   0.00000  Uiso   1.00
H440   H     0.32336   0.76368   0.07212   0.00000  Uiso   1.00
H441   H     0.28169   0.73175   0.13560   0.00000  Uiso   1.00
C442   C     0.12165   0.95792   0.24027   0.00000  Uiso   1.00
C443   C     0.07219   0.93671   0.23167   0.00000  Uiso   1.00
C444   C     0.04845   0.91850   0.26738   0.00000  Uiso   1.00
C445   C     0.07413   0.92088   0.31164   0.00000  Uiso   1.00
C446   C     0.12325   0.94199   0.32042   0.00000  Uiso   1.00
C447   C     0.14687   0.96066   0.28494   0.00000  Uiso   1.00
H448   H     0.05192   0.93466   0.19750   0.00000  Uiso   1.00
H449   H     0.00997   0.90280   0.26087   0.00000  Uiso   1.00
H450   H     0.05587   0.90656   0.00584   0.00000  Uiso   1.00
H451   H     0.14298   0.94388   0.02140   0.00000  Uiso   1.00
H452   H     0.18490   0.97700   0.29214   0.00000  Uiso   1.00
S453   S     0.25537   0.89148   0.05224   0.00000  Uiso   1.00
O454   O     0.25436   0.90240   0.10069   0.00000  Uiso   1.00
O455   O     0.30602   0.87138   0.04775   0.00000  Uiso   1.00
O456   O     0.25508   0.93624   0.02240   0.00000  Uiso   1.00
H457   H     0.28876   0.95137   0.03350   0.00000  Uiso   1.00
S458   S     0.07763   0.77513   0.28109   0.00000  Uiso   1.00
O459   O     0.07815   0.73518   0.30783   0.00000  Uiso   1.00
O460   O     0.02743   0.79551   0.28654   0.00000  Uiso   1.00
O461   O     0.07598   0.76210   0.22673   0.00000  Uiso   1.00
H462   H     0.04258   0.74536   0.21927   0.00000  Uiso   1.00
C463   C     0.50244   0.75354   0.16700   0.00000  Uiso   1.00
C464   C     0.49765   0.91313   0.16635   0.00000  Uiso   1.00
C465   C     0.40059   0.83299   0.15502   0.00000  Uiso   1.00
C466   C     0.59941   0.83367   0.17832   0.00000  Uiso   1.00
C467   C     0.34568   0.83114   0.14882   0.00000  Uiso   1.00
C468   C     0.65431   0.83535   0.18454   0.00000  Uiso   1.00
C469   C     0.52047   0.68812   0.13053   0.00000  Uiso   1.00
C470   C     0.47967   0.97855   0.20283   0.00000  Uiso   1.00
C471   C     0.51481   0.97879   0.13012   0.00000  Uiso   1.00
C472   C     0.48550   0.68787   0.20331   0.00000  Uiso   1.00
C473   C     0.49573   0.95733   0.16613   0.00000  Uiso   1.00
C474   C     0.50444   0.70934   0.16724   0.00000  Uiso   1.00
C475   C     0.53630   0.85801   0.02613   0.00000  Uiso   1.00
C476   C     0.46368   0.80860   0.30715   0.00000  Uiso   1.00
C477   C     0.53565   0.85734   0.31197   0.00000  Uiso   1.00
C478   C     0.46432   0.80936   0.02136   0.00000  Uiso   1.00
H479   H     0.65894   0.82573   0.11499   0.00000  Uiso   1.00
H480   H     0.34106   0.84065   0.21840   0.00000  Uiso   1.00
H481   H     0.52731   0.96239   0.10213   0.00000  Uiso   1.00
H482   H     0.47319   0.70426   0.23139   0.00000  Uiso   1.00
H483   H     0.56407   0.87617   0.29565   0.00000  Uiso   1.00
H484   H     0.43586   0.79063   0.03772   0.00000  Uiso   1.00
N485   N     0.49999   0.83332   0.28573   0.00000  Uiso   1.00
N486   N     0.50001   0.83334   0.04760   0.00000  Uiso   1.00
O487   O     0.50000   0.77225   0.20487   0.00000  Uiso   1.00
O488   O     0.50000   0.89442   0.12846   0.00000  Uiso   1.00
O489   O     0.50000   0.77226   0.12843   0.00000  Uiso   1.00
O490   O     0.50000   0.89441   0.20490   0.00000  Uiso   1.00
O491   O     0.42392   0.83333   0.19595   0.00000  Uiso   1.00
O492   O     0.57608   0.83334   0.13739   0.00000  Uiso   1.00
O493   O     0.42392   0.83334   0.11950   0.00000  Uiso   1.00
O494   O     0.57608   0.83333   0.21383   0.00000  Uiso   1.00
Zn495  Zn    0.50000   0.83333   0.21771   0.00000  Uiso   1.00
Zn496  Zn    0.50000   0.83334   0.11563   0.00000  Uiso   1.00
C497   C     0.54500   0.70877   0.09303   0.00000  Uiso   1.00
C498   C     0.51950   0.70623   0.04843   0.00000  Uiso   1.00
C499   C     0.54301   0.72489   0.01289   0.00000  Uiso   1.00
C500   C     0.59223   0.74586   0.02154   0.00000  Uiso   1.00
C501   C     0.61815   0.74808   0.06572   0.00000  Uiso   1.00
C502   C     0.59456   0.72983   0.10149   0.00000  Uiso   1.00
H503   H     0.48132   0.69007   0.04132   0.00000  Uiso   1.00
H504   H     0.52309   0.72313   0.31197   0.00000  Uiso   1.00
H505   H     0.61037   0.76021   0.32729   0.00000  Uiso   1.00
H506   H     0.65670   0.76368   0.07212   0.00000  Uiso   1.00
H507   H     0.61502   0.73175   0.13560   0.00000  Uiso   1.00
C508   C     0.45498   0.95792   0.24027   0.00000  Uiso   1.00
C509   C     0.40552   0.93671   0.23167   0.00000  Uiso   1.00
C510   C     0.38178   0.91850   0.26738   0.00000  Uiso   1.00
C511   C     0.40746   0.92088   0.31164   0.00000  Uiso   1.00
C512   C     0.45658   0.94199   0.32042   0.00000  Uiso   1.00
C513   C     0.48020   0.96066   0.28494   0.00000  Uiso   1.00
H514   H     0.38525   0.93466   0.19750   0.00000  Uiso   1.00
H515   H     0.34331   0.90280   0.26087   0.00000  Uiso   1.00
H516   H     0.38920   0.90656   0.00584   0.00000  Uiso   1.00
H517   H     0.47631   0.94388   0.02140   0.00000  Uiso   1.00
H518   H     0.51824   0.97700   0.29214   0.00000  Uiso   1.00
S519   S     0.58870   0.89148   0.05224   0.00000  Uiso   1.00
O520   O     0.58770   0.90240   0.10069   0.00000  Uiso   1.00
O521   O     0.63935   0.87138   0.04775   0.00000  Uiso   1.00
O522   O     0.58841   0.93624   0.02240   0.00000  Uiso   1.00
H523   H     0.62210   0.95137   0.03350   0.00000  Uiso   1.00
S524   S     0.41096   0.77513   0.28109   0.00000  Uiso   1.00
O525   O     0.41148   0.73518   0.30783   0.00000  Uiso   1.00
O526   O     0.36076   0.79551   0.28654   0.00000  Uiso   1.00
O527   O     0.40931   0.76210   0.22673   0.00000  Uiso   1.00
H528   H     0.37591   0.74536   0.21927   0.00000  Uiso   1.00
C529   C     0.83577   0.75354   0.16700   0.00000  Uiso   1.00
C530   C     0.83098   0.91313   0.16635   0.00000  Uiso   1.00
C531   C     0.73393   0.83299   0.15502   0.00000  Uiso   1.00
C532   C     0.93274   0.83367   0.17832   0.00000  Uiso   1.00
C533   C     0.67902   0.83114   0.14882   0.00000  Uiso   1.00
C534   C     0.98765   0.83535   0.18454   0.00000  Uiso   1.00
C535   C     0.85381   0.68812   0.13053   0.00000  Uiso   1.00
C536   C     0.81300   0.97855   0.20283   0.00000  Uiso   1.00
C537   C     0.84815   0.97879   0.13012   0.00000  Uiso   1.00
C538   C     0.81883   0.68787   0.20331   0.00000  Uiso   1.00
C539   C     0.82907   0.95733   0.16613   0.00000  Uiso   1.00
C540   C     0.83777   0.70934   0.16724   0.00000  Uiso   1.00
C541   C     0.86963   0.85801   0.02613   0.00000  Uiso   1.00
C542   C     0.79702   0.80860   0.30715   0.00000  Uiso   1.00
C543   C     0.86898   0.85734   0.31197   0.00000  Uiso   1.00
C544   C     0.79765   0.80936   0.02136   0.00000  Uiso   1.00
H545   H     0.99227   0.82573   0.11499   0.00000  Uiso   1.00
H546   H     0.67439   0.84065   0.21840   0.00000  Uiso   1.00
H547   H     0.86064   0.96239   0.10213   0.00000  Uiso   1.00
H548   H     0.80653   0.70426   0.23139   0.00000  Uiso   1.00
H549   H     0.89740   0.87617   0.29565   0.00000  Uiso   1.00
H550   H     0.76919   0.79063   0.03772   0.00000  Uiso   1.00
N551   N     0.83332   0.83332   0.28573   0.00000  Uiso   1.00
N552   N     0.83335   0.83334   0.04760   0.00000  Uiso   1.00
O553   O     0.83333   0.77225   0.20487   0.00000  Uiso   1.00
O554   O     0.83334   0.89442   0.12846   0.00000  Uiso   1.00
O555   O     0.83333   0.77226   0.12843   0.00000  Uiso   1.00
O556   O     0.83334   0.89441   0.20490   0.00000  Uiso   1.00
O557   O     0.75725   0.83333   0.19595   0.00000  Uiso   1.00
O558   O     0.90942   0.83334   0.13739   0.00000  Uiso   1.00
O559   O     0.75725   0.83334   0.11950   0.00000  Uiso   1.00
O560   O     0.90942   0.83333   0.21383   0.00000  Uiso   1.00
Zn561  Zn    0.83333   0.83333   0.21771   0.00000  Uiso   1.00
Zn562  Zn    0.83333   0.83334   0.11563   0.00000  Uiso   1.00
C563   C     0.87833   0.70877   0.09303   0.00000  Uiso   1.00
C564   C     0.85283   0.70623   0.04843   0.00000  Uiso   1.00
C565   C     0.87634   0.72489   0.01289   0.00000  Uiso   1.00
C566   C     0.92557   0.74586   0.02154   0.00000  Uiso   1.00
C567   C     0.95148   0.74808   0.06572   0.00000  Uiso   1.00
C568   C     0.92790   0.72983   0.10149   0.00000  Uiso   1.00
H569   H     0.81466   0.69007   0.04132   0.00000  Uiso   1.00
H570   H     0.85642   0.72313   0.31197   0.00000  Uiso   1.00
H571   H     0.94370   0.76021   0.32729   0.00000  Uiso   1.00
H572   H     0.99003   0.76368   0.07212   0.00000  Uiso   1.00
H573   H     0.94836   0.73175   0.13560   0.00000  Uiso   1.00
C574   C     0.78832   0.95792   0.24027   0.00000  Uiso   1.00
C575   C     0.73886   0.93671   0.23167   0.00000  Uiso   1.00
C576   C     0.71512   0.91850   0.26738   0.00000  Uiso   1.00
C577   C     0.74079   0.92088   0.31164   0.00000  Uiso   1.00
C578   C     0.78991   0.94199   0.32042   0.00000  Uiso   1.00
C579   C     0.81353   0.96066   0.28494   0.00000  Uiso   1.00
H580   H     0.71859   0.93466   0.19750   0.00000  Uiso   1.00
H581   H     0.67664   0.90280   0.26087   0.00000  Uiso   1.00
H582   H     0.72254   0.90656   0.00584   0.00000  Uiso   1.00
H583   H     0.80965   0.94388   0.02140   0.00000  Uiso   1.00
H584   H     0.85157   0.97700   0.29214   0.00000  Uiso   1.00
S585   S     0.92204   0.89148   0.05224   0.00000  Uiso   1.00
O586   O     0.92103   0.90240   0.10069   0.00000  Uiso   1.00
O587   O     0.97268   0.87138   0.04775   0.00000  Uiso   1.00
O588   O     0.92174   0.93624   0.02240   0.00000  Uiso   1.00
H589   H     0.95543   0.95137   0.03350   0.00000  Uiso   1.00
S590   S     0.74430   0.77513   0.28109   0.00000  Uiso   1.00
O591   O     0.74482   0.73518   0.30783   0.00000  Uiso   1.00
O592   O     0.69410   0.79551   0.28654   0.00000  Uiso   1.00
O593   O     0.74265   0.76210   0.22673   0.00000  Uiso   1.00
H594   H     0.70925   0.74536   0.21927   0.00000  Uiso   1.00
C595   C     0.16910   0.08687   0.50033   0.00000  Uiso   1.00
C596   C     0.16432   0.24647   0.49968   0.00000  Uiso   1.00
C597   C     0.06726   0.16632   0.48835   0.00000  Uiso   1.00
C598   C     0.26607   0.16700   0.51165   0.00000  Uiso   1.00
C599   C     0.01235   0.16448   0.48215   0.00000  Uiso   1.00
C600   C     0.32098   0.16869   0.51788   0.00000  Uiso   1.00
C601   C     0.18714   0.02146   0.46387   0.00000  Uiso   1.00
C602   C     0.14634   0.31188   0.53616   0.00000  Uiso   1.00
C603   C     0.18148   0.31213   0.46345   0.00000  Uiso   1.00
C604   C     0.15217   0.02121   0.53664   0.00000  Uiso   1.00
C605   C     0.16240   0.29067   0.49946   0.00000  Uiso   1.00
C606   C     0.17111   0.04267   0.50057   0.00000  Uiso   1.00
C607   C     0.20297   0.19134   0.35946   0.00000  Uiso   1.00
C608   C     0.13035   0.14193   0.64048   0.00000  Uiso   1.00
C609   C     0.20231   0.19068   0.64530   0.00000  Uiso   1.00
C610   C     0.13099   0.14269   0.35469   0.00000  Uiso   1.00
H611   H     0.32560   0.15907   0.44832   0.00000  Uiso   1.00
H612   H     0.00772   0.17399   0.55173   0.00000  Uiso   1.00
H613   H     0.19397   0.29573   0.43546   0.00000  Uiso   1.00
H614   H     0.13986   0.03760   0.56473   0.00000  Uiso   1.00
H615   H     0.23073   0.20950   0.62899   0.00000  Uiso   1.00
H616   H     0.10253   0.12396   0.37105   0.00000  Uiso   1.00
N617   N     0.16665   0.16666   0.61907   0.00000  Uiso   1.00
N618   N     0.16668   0.16668   0.38093   0.00000  Uiso   1.00
O619   O     0.16666   0.10558   0.53821   0.00000  Uiso   1.00
O620   O     0.16667   0.22775   0.46179   0.00000  Uiso   1.00
O621   O     0.16666   0.10559   0.46176   0.00000  Uiso   1.00
O622   O     0.16667   0.22774   0.53824   0.00000  Uiso   1.00
O623   O     0.09058   0.16666   0.52928   0.00000  Uiso   1.00
O624   O     0.24275   0.16667   0.47072   0.00000  Uiso   1.00
O625   O     0.09058   0.16667   0.45284   0.00000  Uiso   1.00
O626   O     0.24275   0.16666   0.54716   0.00000  Uiso   1.00
Zn627  Zn    0.16667   0.16666   0.55104   0.00000  Uiso   1.00
Zn628  Zn    0.16667   0.16667   0.44896   0.00000  Uiso   1.00
C629   C     0.21167   0.04211   0.42636   0.00000  Uiso   1.00
C630   C     0.18617   0.03956   0.38176   0.00000  Uiso   1.00
C631   C     0.20967   0.05823   0.34622   0.00000  Uiso   1.00
C632   C     0.25890   0.07919   0.35487   0.00000  Uiso   1.00
C633   C     0.28482   0.08141   0.39905   0.00000  Uiso   1.00
C634   C     0.26123   0.06317   0.43482   0.00000  Uiso   1.00
H635   H     0.14799   0.02340   0.37466   0.00000  Uiso   1.00
H636   H     0.18975   0.05646   0.64530   0.00000  Uiso   1.00
H637   H     0.27703   0.09354   0.66063   0.00000  Uiso   1.00
H638   H     0.32336   0.09701   0.40546   0.00000  Uiso   1.00
H639   H     0.28169   0.06508   0.46893   0.00000  Uiso   1.00
C640   C     0.12165   0.29125   0.57360   0.00000  Uiso   1.00
C641   C     0.07219   0.27004   0.56501   0.00000  Uiso   1.00
C642   C     0.04845   0.25183   0.60072   0.00000  Uiso   1.00
C643   C     0.07413   0.25421   0.64497   0.00000  Uiso   1.00
C644   C     0.12325   0.27532   0.65375   0.00000  Uiso   1.00
C645   C     0.14687   0.29399   0.61827   0.00000  Uiso   1.00
H646   H     0.05192   0.26799   0.53084   0.00000  Uiso   1.00
H647   H     0.00997   0.23614   0.59421   0.00000  Uiso   1.00
H648   H     0.05587   0.23989   0.33917   0.00000  Uiso   1.00
H649   H     0.14298   0.27722   0.35474   0.00000  Uiso   1.00
H650   H     0.18490   0.31033   0.62547   0.00000  Uiso   1.00
S651   S     0.25537   0.22482   0.38557   0.00000  Uiso   1.00
O652   O     0.25436   0.23574   0.43402   0.00000  Uiso   1.00
O653   O     0.30602   0.20471   0.38109   0.00000  Uiso   1.00
O654   O     0.25508   0.26957   0.35574   0.00000  Uiso   1.00
H655   H     0.28876   0.28470   0.36684   0.00000  Uiso   1.00
S656   S     0.07763   0.10847   0.61442   0.00000  Uiso   1.00
O657   O     0.07815   0.06851   0.64117   0.00000  Uiso   1.00
O658   O     0.02743   0.12884   0.61987   0.00000  Uiso   1.00
O659   O     0.07598   0.09543   0.56006   0.00000  Uiso   1.00
H660   H     0.04258   0.07870   0.55261   0.00000  Uiso   1.00
C661   C     0.50244   0.08687   0.50033   0.00000  Uiso   1.00
C662   C     0.49765   0.24647   0.49968   0.00000  Uiso   1.00
C663   C     0.40059   0.16632   0.48835   0.00000  Uiso   1.00
C664   C     0.59941   0.16700   0.51165   0.00000  Uiso   1.00
C665   C     0.34568   0.16448   0.48215   0.00000  Uiso   1.00
C666   C     0.65431   0.16869   0.51788   0.00000  Uiso   1.00
C667   C     0.52047   0.02146   0.46387   0.00000  Uiso   1.00
C668   C     0.47967   0.31188   0.53616   0.00000  Uiso   1.00
C669   C     0.51481   0.31213   0.46345   0.00000  Uiso   1.00
C670   C     0.48550   0.02121   0.53664   0.00000  Uiso   1.00
C671   C     0.49573   0.29067   0.49946   0.00000  Uiso   1.00
C672   C     0.50444   0.04267   0.50057   0.00000  Uiso   1.00
C673   C     0.53630   0.19134   0.35946   0.00000  Uiso   1.00
C674   C     0.46368   0.14193   0.64048   0.00000  Uiso   1.00
C675   C     0.53565   0.19068   0.64530   0.00000  Uiso   1.00
C676   C     0.46432   0.14269   0.35469   0.00000  Uiso   1.00
H677   H     0.65894   0.15907   0.44832   0.00000  Uiso   1.00
H678   H     0.34106   0.17399   0.55173   0.00000  Uiso   1.00
H679   H     0.52731   0.29573   0.43546   0.00000  Uiso   1.00
H680   H     0.47319   0.03760   0.56473   0.00000  Uiso   1.00
H681   H     0.56407   0.20950   0.62899   0.00000  Uiso   1.00
H682   H     0.43586   0.12396   0.37105   0.00000  Uiso   1.00
N683   N     0.49999   0.16666   0.61907   0.00000  Uiso   1.00
N684   N     0.50001   0.16668   0.38093   0.00000  Uiso   1.00
O685   O     0.50000   0.10558   0.53821   0.00000  Uiso   1.00
O686   O     0.50000   0.22775   0.46179   0.00000  Uiso   1.00
O687   O     0.50000   0.10559   0.46176   0.00000  Uiso   1.00
O688   O     0.50000   0.22774   0.53824   0.00000  Uiso   1.00
O689   O     0.42392   0.16666   0.52928   0.00000  Uiso   1.00
O690   O     0.57608   0.16667   0.47072   0.00000  Uiso   1.00
O691   O     0.42392   0.16667   0.45284   0.00000  Uiso   1.00
O692   O     0.57608   0.16666   0.54716   0.00000  Uiso   1.00
Zn693  Zn    0.50000   0.16666   0.55104   0.00000  Uiso   1.00
Zn694  Zn    0.50000   0.16667   0.44896   0.00000  Uiso   1.00
C695   C     0.54500   0.04211   0.42636   0.00000  Uiso   1.00
C696   C     0.51950   0.03956   0.38176   0.00000  Uiso   1.00
C697   C     0.54301   0.05823   0.34622   0.00000  Uiso   1.00
C698   C     0.59223   0.07919   0.35487   0.00000  Uiso   1.00
C699   C     0.61815   0.08141   0.39905   0.00000  Uiso   1.00
C700   C     0.59456   0.06317   0.43482   0.00000  Uiso   1.00
H701   H     0.48132   0.02340   0.37466   0.00000  Uiso   1.00
H702   H     0.52309   0.05646   0.64530   0.00000  Uiso   1.00
H703   H     0.61037   0.09354   0.66063   0.00000  Uiso   1.00
H704   H     0.65670   0.09701   0.40546   0.00000  Uiso   1.00
H705   H     0.61502   0.06508   0.46893   0.00000  Uiso   1.00
C706   C     0.45498   0.29125   0.57360   0.00000  Uiso   1.00
C707   C     0.40552   0.27004   0.56501   0.00000  Uiso   1.00
C708   C     0.38178   0.25183   0.60072   0.00000  Uiso   1.00
C709   C     0.40746   0.25421   0.64497   0.00000  Uiso   1.00
C710   C     0.45658   0.27532   0.65375   0.00000  Uiso   1.00
C711   C     0.48020   0.29399   0.61827   0.00000  Uiso   1.00
H712   H     0.38525   0.26799   0.53084   0.00000  Uiso   1.00
H713   H     0.34331   0.23614   0.59421   0.00000  Uiso   1.00
H714   H     0.38920   0.23989   0.33917   0.00000  Uiso   1.00
H715   H     0.47631   0.27722   0.35474   0.00000  Uiso   1.00
H716   H     0.51824   0.31033   0.62547   0.00000  Uiso   1.00
S717   S     0.58870   0.22482   0.38557   0.00000  Uiso   1.00
O718   O     0.58770   0.23574   0.43402   0.00000  Uiso   1.00
O719   O     0.63935   0.20471   0.38109   0.00000  Uiso   1.00
O720   O     0.58841   0.26957   0.35574   0.00000  Uiso   1.00
H721   H     0.62210   0.28470   0.36684   0.00000  Uiso   1.00
S722   S     0.41096   0.10847   0.61442   0.00000  Uiso   1.00
O723   O     0.41148   0.06851   0.64117   0.00000  Uiso   1.00
O724   O     0.36076   0.12884   0.61987   0.00000  Uiso   1.00
O725   O     0.40931   0.09543   0.56006   0.00000  Uiso   1.00
H726   H     0.37591   0.07870   0.55261   0.00000  Uiso   1.00
C727   C     0.83577   0.08687   0.50033   0.00000  Uiso   1.00
C728   C     0.83098   0.24647   0.49968   0.00000  Uiso   1.00
C729   C     0.73393   0.16632   0.48835   0.00000  Uiso   1.00
C730   C     0.93274   0.16700   0.51165   0.00000  Uiso   1.00
C731   C     0.67902   0.16448   0.48215   0.00000  Uiso   1.00
C732   C     0.98765   0.16869   0.51788   0.00000  Uiso   1.00
C733   C     0.85381   0.02146   0.46387   0.00000  Uiso   1.00
C734   C     0.81300   0.31188   0.53616   0.00000  Uiso   1.00
C735   C     0.84815   0.31213   0.46345   0.00000  Uiso   1.00
C736   C     0.81883   0.02121   0.53664   0.00000  Uiso   1.00
C737   C     0.82907   0.29067   0.49946   0.00000  Uiso   1.00
C738   C     0.83777   0.04267   0.50057   0.00000  Uiso   1.00
C739   C     0.86963   0.19134   0.35946   0.00000  Uiso   1.00
C740   C     0.79702   0.14193   0.64048   0.00000  Uiso   1.00
C741   C     0.86898   0.19068   0.64530   0.00000  Uiso   1.00
C742   C     0.79765   0.14269   0.35469   0.00000  Uiso   1.00
H743   H     0.99227   0.15907   0.44832   0.00000  Uiso   1.00
H744   H     0.67439   0.17399   0.55173   0.00000  Uiso   1.00
H745   H     0.86064   0.29573   0.43546   0.00000  Uiso   1.00
H746   H     0.80653   0.03760   0.56473   0.00000  Uiso   1.00
H747   H     0.89740   0.20950   0.62899   0.00000  Uiso   1.00
H748   H     0.76919   0.12396   0.37105   0.00000  Uiso   1.00
N749   N     0.83332   0.16666   0.61907   0.00000  Uiso   1.00
N750   N     0.83335   0.16668   0.38093   0.00000  Uiso   1.00
O751   O     0.83333   0.10558   0.53821   0.00000  Uiso   1.00
O752   O     0.83334   0.22775   0.46179   0.00000  Uiso   1.00
O753   O     0.83333   0.10559   0.46176   0.00000  Uiso   1.00
O754   O     0.83334   0.22774   0.53824   0.00000  Uiso   1.00
O755   O     0.75725   0.16666   0.52928   0.00000  Uiso   1.00
O756   O     0.90942   0.16667   0.47072   0.00000  Uiso   1.00
O757   O     0.75725   0.16667   0.45284   0.00000  Uiso   1.00
O758   O     0.90942   0.16666   0.54716   0.00000  Uiso   1.00
Zn759  Zn    0.83333   0.16666   0.55104   0.00000  Uiso   1.00
Zn760  Zn    0.83333   0.16667   0.44896   0.00000  Uiso   1.00
C761   C     0.87833   0.04211   0.42636   0.00000  Uiso   1.00
C762   C     0.85283   0.03956   0.38176   0.00000  Uiso   1.00
C763   C     0.87634   0.05823   0.34622   0.00000  Uiso   1.00
C764   C     0.92557   0.07919   0.35487   0.00000  Uiso   1.00
C765   C     0.95148   0.08141   0.39905   0.00000  Uiso   1.00
C766   C     0.92790   0.06317   0.43482   0.00000  Uiso   1.00
H767   H     0.81466   0.02340   0.37466   0.00000  Uiso   1.00
H768   H     0.85642   0.05646   0.64530   0.00000  Uiso   1.00
H769   H     0.94370   0.09354   0.66063   0.00000  Uiso   1.00
H770   H     0.99003   0.09701   0.40546   0.00000  Uiso   1.00
H771   H     0.94836   0.06508   0.46893   0.00000  Uiso   1.00
C772   C     0.78832   0.29125   0.57360   0.00000  Uiso   1.00
C773   C     0.73886   0.27004   0.56501   0.00000  Uiso   1.00
C774   C     0.71512   0.25183   0.60072   0.00000  Uiso   1.00
C775   C     0.74079   0.25421   0.64497   0.00000  Uiso   1.00
C776   C     0.78991   0.27532   0.65375   0.00000  Uiso   1.00
C777   C     0.81353   0.29399   0.61827   0.00000  Uiso   1.00
H778   H     0.71859   0.26799   0.53084   0.00000  Uiso   1.00
H779   H     0.67664   0.23614   0.59421   0.00000  Uiso   1.00
H780   H     0.72254   0.23989   0.33917   0.00000  Uiso   1.00
H781   H     0.80965   0.27722   0.35474   0.00000  Uiso   1.00
H782   H     0.85157   0.31033   0.62547   0.00000  Uiso   1.00
S783   S     0.92204   0.22482   0.38557   0.00000  Uiso   1.00
O784   O     0.92103   0.23574   0.43402   0.00000  Uiso   1.00
O785   O     0.97268   0.20471   0.38109   0.00000  Uiso   1.00
O786   O     0.92174   0.26957   0.35574   0.00000  Uiso   1.00
H787   H     0.95543   0.28470   0.36684   0.00000  Uiso   1.00
S788   S     0.74430   0.10847   0.61442   0.00000  Uiso   1.00
O789   O     0.74482   0.06851   0.64117   0.00000  Uiso   1.00
O790   O     0.69410   0.12884   0.61987   0.00000  Uiso   1.00
O791   O     0.74265   0.09543   0.56006   0.00000  Uiso   1.00
H792   H     0.70925   0.07870   0.55261   0.00000  Uiso   1.00
C793   C     0.16910   0.42021   0.50033   0.00000  Uiso   1.00
C794   C     0.16432   0.57980   0.49968   0.00000  Uiso   1.00
C795   C     0.06726   0.49966   0.48835   0.00000  Uiso   1.00
C796   C     0.26607   0.50033   0.51165   0.00000  Uiso   1.00
C797   C     0.01235   0.49781   0.48215   0.00000  Uiso   1.00
C798   C     0.32098   0.50202   0.51788   0.00000  Uiso   1.00
C799   C     0.18714   0.35479   0.46387   0.00000  Uiso   1.00
C800   C     0.14634   0.64522   0.53616   0.00000  Uiso   1.00
C801   C     0.18148   0.64546   0.46345   0.00000  Uiso   1.00
C802   C     0.15217   0.35454   0.53664   0.00000  Uiso   1.00
C803   C     0.16240   0.62400   0.49946   0.00000  Uiso   1.00
C804   C     0.17111   0.37601   0.50057   0.00000  Uiso   1.00
C805   C     0.20297   0.52467   0.35946   0.00000  Uiso   1.00
C806   C     0.13035   0.47527   0.64048   0.00000  Uiso   1.00
C807   C     0.20231   0.52401   0.64530   0.00000  Uiso   1.00
C808   C     0.13099   0.47603   0.35469   0.00000  Uiso   1.00
H809   H     0.32560   0.49240   0.44832   0.00000  Uiso   1.00
H810   H     0.00772   0.50732   0.55173   0.00000  Uiso   1.00
H811   H     0.19397   0.62906   0.43546   0.00000  Uiso   1.00
H812   H     0.13986   0.37093   0.56473   0.00000  Uiso   1.00
H813   H     0.23073   0.54284   0.62899   0.00000  Uiso   1.00
H814   H     0.10253   0.45730   0.37105   0.00000  Uiso   1.00
N815   N     0.16665   0.49999   0.61907   0.00000  Uiso   1.00
N816   N     0.16668   0.50001   0.38093   0.00000  Uiso   1.00
O817   O     0.16666   0.43892   0.53821   0.00000  Uiso   1.00
O818   O     0.16667   0.56108   0.46179   0.00000  Uiso   1.00
O819   O     0.16666   0.43893   0.46176   0.00000  Uiso   1.00
O820   O     0.16667   0.56107   0.53824   0.00000  Uiso   1.00
O821   O     0.09058   0.50000   0.52928   0.00000  Uiso   1.00
O822   O     0.24275   0.50000   0.47072   0.00000  Uiso   1.00
O823   O     0.09058   0.50000   0.45284   0.00000  Uiso   1.00
O824   O     0.24275   0.50000   0.54716   0.00000  Uiso   1.00
Zn825  Zn    0.16667   0.49999   0.55104   0.00000  Uiso   1.00
Zn826  Zn    0.16667   0.50001   0.44896   0.00000  Uiso   1.00
C827   C     0.21167   0.37544   0.42636   0.00000  Uiso   1.00
C828   C     0.18617   0.37289   0.38176   0.00000  Uiso   1.00
C829   C     0.20967   0.39156   0.34622   0.00000  Uiso   1.00
C830   C     0.25890   0.41252   0.35487   0.00000  Uiso   1.00
C831   C     0.28482   0.41474   0.39905   0.00000  Uiso   1.00
C832   C     0.26123   0.39650   0.43482   0.00000  Uiso   1.00
H833   H     0.14799   0.35673   0.37466   0.00000  Uiso   1.00
H834   H     0.18975   0.38980   0.64530   0.00000  Uiso   1.00
H835   H     0.27703   0.42687   0.66063   0.00000  Uiso   1.00
H836   H     0.32336   0.43035   0.40546   0.00000  Uiso   1.00
H837   H     0.28169   0.39842   0.46893   0.00000  Uiso   1.00
C838   C     0.12165   0.62458   0.57360   0.00000  Uiso   1.00
C839   C     0.07219   0.60337   0.56501   0.00000  Uiso   1.00
C840   C     0.04845   0.58517   0.60072   0.00000  Uiso   1.00
C841   C     0.07413   0.58755   0.64497   0.00000  Uiso   1.00
C842   C     0.12325   0.60865   0.65375   0.00000  Uiso   1.00
C843   C     0.14687   0.62732   0.61827   0.00000  Uiso   1.00
H844   H     0.05192   0.60132   0.53084   0.00000  Uiso   1.00
H845   H     0.00997   0.56947   0.59421   0.00000  Uiso   1.00
H846   H     0.05587   0.57322   0.33917   0.00000  Uiso   1.00
H847   H     0.14298   0.61055   0.35474   0.00000  Uiso   1.00
H848   H     0.18490   0.64367   0.62547   0.00000  Uiso   1.00
S849   S     0.25537   0.55815   0.38557   0.00000  Uiso   1.00
O850   O     0.25436   0.56907   0.43402   0.00000  Uiso   1.00
O851   O     0.30602   0.53805   0.38109   0.00000  Uiso   1.00
O852   O     0.25508   0.60290   0.35574   0.00000  Uiso   1.00
H853   H     0.28876   0.61803   0.36684   0.00000  Uiso   1.00
S854   S     0.07763   0.44180   0.61442   0.00000  Uiso   1.00
O855   O     0.07815   0.40185   0.64117   0.00000  Uiso   1.00
O856   O     0.02743   0.46218   0.61987   0.00000  Uiso   1.00
O857   O     0.07598   0.42877   0.56006   0.00000  Uiso   1.00
H858   H     0.04258   0.41203   0.55261   0.00000  Uiso   1.00
C859   C     0.50244   0.42021   0.50033   0.00000  Uiso   1.00
C860   C     0.49765   0.57980   0.49968   0.00000  Uiso   1.00
C861   C     0.40059   0.49966   0.48835   0.00000  Uiso   1.00
C862   C     0.59941   0.50033   0.51165   0.00000  Uiso   1.00
C863   C     0.34568   0.49781   0.48215   0.00000  Uiso   1.00
C864   C     0.65431   0.50202   0.51788   0.00000  Uiso   1.00
C865   C     0.52047   0.35479   0.46387   0.00000  Uiso   1.00
C866   C     0.47967   0.64522   0.53616   0.00000  Uiso   1.00
C867   C     0.51481   0.64546   0.46345   0.00000  Uiso   1.00
C868   C     0.48550   0.35454   0.53664   0.00000  Uiso   1.00
C869   C     0.49573   0.62400   0.49946   0.00000  Uiso   1.00
C870   C     0.50444   0.37601   0.50057   0.00000  Uiso   1.00
C871   C     0.53630   0.52467   0.35946   0.00000  Uiso   1.00
C872   C     0.46368   0.47527   0.64048   0.00000  Uiso   1.00
C873   C     0.53565   0.52401   0.64530   0.00000  Uiso   1.00
C874   C     0.46432   0.47603   0.35469   0.00000  Uiso   1.00
H875   H     0.65894   0.49240   0.44832   0.00000  Uiso   1.00
H876   H     0.34106   0.50732   0.55173   0.00000  Uiso   1.00
H877   H     0.52731   0.62906   0.43546   0.00000  Uiso   1.00
H878   H     0.47319   0.37093   0.56473   0.00000  Uiso   1.00
H879   H     0.56407   0.54284   0.62899   0.00000  Uiso   1.00
H880   H     0.43586   0.45730   0.37105   0.00000  Uiso   1.00
N881   N     0.49999   0.49999   0.61907   0.00000  Uiso   1.00
N882   N     0.50001   0.50001   0.38093   0.00000  Uiso   1.00
O883   O     0.50000   0.43892   0.53821   0.00000  Uiso   1.00
O884   O     0.50000   0.56108   0.46179   0.00000  Uiso   1.00
O885   O     0.50000   0.43893   0.46176   0.00000  Uiso   1.00
O886   O     0.50000   0.56107   0.53824   0.00000  Uiso   1.00
O887   O     0.42392   0.50000   0.52928   0.00000  Uiso   1.00
O888   O     0.57608   0.50000   0.47072   0.00000  Uiso   1.00
O889   O     0.42392   0.50000   0.45284   0.00000  Uiso   1.00
O890   O     0.57608   0.50000   0.54716   0.00000  Uiso   1.00
Zn891  Zn    0.50000   0.49999   0.55104   0.00000  Uiso   1.00
Zn892  Zn    0.50000   0.50001   0.44896   0.00000  Uiso   1.00
C893   C     0.54500   0.37544   0.42636   0.00000  Uiso   1.00
C894   C     0.51950   0.37289   0.38176   0.00000  Uiso   1.00
C895   C     0.54301   0.39156   0.34622   0.00000  Uiso   1.00
C896   C     0.59223   0.41252   0.35487   0.00000  Uiso   1.00
C897   C     0.61815   0.41474   0.39905   0.00000  Uiso   1.00
C898   C     0.59456   0.39650   0.43482   0.00000  Uiso   1.00
H899   H     0.48132   0.35673   0.37466   0.00000  Uiso   1.00
H900   H     0.52309   0.38980   0.64530   0.00000  Uiso   1.00
H901   H     0.61037   0.42687   0.66063   0.00000  Uiso   1.00
H902   H     0.65670   0.43035   0.40546   0.00000  Uiso   1.00
H903   H     0.61502   0.39842   0.46893   0.00000  Uiso   1.00
C904   C     0.45498   0.62458   0.57360   0.00000  Uiso   1.00
C905   C     0.40552   0.60337   0.56501   0.00000  Uiso   1.00
C906   C     0.38178   0.58517   0.60072   0.00000  Uiso   1.00
C907   C     0.40746   0.58755   0.64497   0.00000  Uiso   1.00
C908   C     0.45658   0.60865   0.65375   0.00000  Uiso   1.00
C909   C     0.48020   0.62732   0.61827   0.00000  Uiso   1.00
H910   H     0.38525   0.60132   0.53084   0.00000  Uiso   1.00
H911   H     0.34331   0.56947   0.59421   0.00000  Uiso   1.00
H912   H     0.38920   0.57322   0.33917   0.00000  Uiso   1.00
H913   H     0.47631   0.61055   0.35474   0.00000  Uiso   1.00
H914   H     0.51824   0.64367   0.62547   0.00000  Uiso   1.00
S915   S     0.58870   0.55815   0.38557   0.00000  Uiso   1.00
O916   O     0.58770   0.56907   0.43402   0.00000  Uiso   1.00
O917   O     0.63935   0.53805   0.38109   0.00000  Uiso   1.00
O918   O     0.58841   0.60290   0.35574   0.00000  Uiso   1.00
H919   H     0.62210   0.61803   0.36684   0.00000  Uiso   1.00
S920   S     0.41096   0.44180   0.61442   0.00000  Uiso   1.00
O921   O     0.41148   0.40185   0.64117   0.00000  Uiso   1.00
O922   O     0.36076   0.46218   0.61987   0.00000  Uiso   1.00
O923   O     0.40931   0.42877   0.56006   0.00000  Uiso   1.00
H924   H     0.37591   0.41203   0.55261   0.00000  Uiso   1.00
C925   C     0.83577   0.42021   0.50033   0.00000  Uiso   1.00
C926   C     0.83098   0.57980   0.49968   0.00000  Uiso   1.00
C927   C     0.73393   0.49966   0.48835   0.00000  Uiso   1.00
C928   C     0.93274   0.50033   0.51165   0.00000  Uiso   1.00
C929   C     0.67902   0.49781   0.48215   0.00000  Uiso   1.00
C930   C     0.98765   0.50202   0.51788   0.00000  Uiso   1.00
C931   C     0.85381   0.35479   0.46387   0.00000  Uiso   1.00
C932   C     0.81300   0.64522   0.53616   0.00000  Uiso   1.00
C933   C     0.84815   0.64546   0.46345   0.00000  Uiso   1.00
C934   C     0.81883   0.35454   0.53664   0.00000  Uiso   1.00
C935   C     0.82907   0.62400   0.49946   0.00000  Uiso   1.00
C936   C     0.83777   0.37601   0.50057   0.00000  Uiso   1.00
C937   C     0.86963   0.52467   0.35946   0.00000  Uiso   1.00
C938   C     0.79702   0.47527   0.64048   0.00000  Uiso   1.00
C939   C     0.86898   0.52401   0.64530   0.00000  Uiso   1.00
C940   C     0.79765   0.47603   0.35469   0.00000  Uiso   1.00
H941   H     0.99227   0.49240   0.44832   0.00000  Uiso   1.00
H942   H     0.67439   0.50732   0.55173   0.00000  Uiso   1.00
H943   H     0.86064   0.62906   0.43546   0.00000  Uiso   1.00
H944   H     0.80653   0.37093   0.56473   0.00000  Uiso   1.00
H945   H     0.89740   0.54284   0.62899   0.00000  Uiso   1.00
H946   H     0.76919   0.45730   0.37105   0.00000  Uiso   1.00
N947   N     0.83332   0.49999   0.61907   0.00000  Uiso   1.00
N948   N     0.83335   0.50001   0.38093   0.00000  Uiso   1.00
O949   O     0.83333   0.43892   0.53821   0.00000  Uiso   1.00
O950   O     0.83334   0.56108   0.46179   0.00000  Uiso   1.00
O951   O     0.83333   0.43893   0.46176   0.00000  Uiso   1.00
O952   O     0.83334   0.56107   0.53824   0.00000  Uiso   1.00
O953   O     0.75725   0.50000   0.52928   0.00000  Uiso   1.00
O954   O     0.90942   0.50000   0.47072   0.00000  Uiso   1.00
O955   O     0.75725   0.50000   0.45284   0.00000  Uiso   1.00
O956   O     0.90942   0.50000   0.54716   0.00000  Uiso   1.00
Zn957  Zn    0.83333   0.49999   0.55104   0.00000  Uiso   1.00
Zn958  Zn    0.83333   0.50001   0.44896   0.00000  Uiso   1.00
C959   C     0.87833   0.37544   0.42636   0.00000  Uiso   1.00
C960   C     0.85283   0.37289   0.38176   0.00000  Uiso   1.00
C961   C     0.87634   0.39156   0.34622   0.00000  Uiso   1.00
C962   C     0.92557   0.41252   0.35487   0.00000  Uiso   1.00
C963   C     0.95148   0.41474   0.39905   0.00000  Uiso   1.00
C964   C     0.92790   0.39650   0.43482   0.00000  Uiso   1.00
H965   H     0.81466   0.35673   0.37466   0.00000  Uiso   1.00
H966   H     0.85642   0.38980   0.64530   0.00000  Uiso   1.00
H967   H     0.94370   0.42687   0.66063   0.00000  Uiso   1.00
H968   H     0.99003   0.43035   0.40546   0.00000  Uiso   1.00
H969   H     0.94836   0.39842   0.46893   0.00000  Uiso   1.00
C970   C     0.78832   0.62458   0.57360   0.00000  Uiso   1.00
C971   C     0.73886   0.60337   0.56501   0.00000  Uiso   1.00
C972   C     0.71512   0.58517   0.60072   0.00000  Uiso   1.00
C973   C     0.74079   0.58755   0.64497   0.00000  Uiso   1.00
C974   C     0.78991   0.60865   0.65375   0.00000  Uiso   1.00
C975   C     0.81353   0.62732   0.61827   0.00000  Uiso   1.00
H976   H     0.71859   0.60132   0.53084   0.00000  Uiso   1.00
H977   H     0.67664   0.56947   0.59421   0.00000  Uiso   1.00
H978   H     0.72254   0.57322   0.33917   0.00000  Uiso   1.00
H979   H     0.80965   0.61055   0.35474   0.00000  Uiso   1.00
H980   H     0.85157   0.64367   0.62547   0.00000  Uiso   1.00
S981   S     0.92204   0.55815   0.38557   0.00000  Uiso   1.00
O982   O     0.92103   0.56907   0.43402   0.00000  Uiso   1.00
O983   O     0.97268   0.53805   0.38109   0.00000  Uiso   1.00
O984   O     0.92174   0.60290   0.35574   0.00000  Uiso   1.00
H985   H     0.95543   0.61803   0.36684   0.00000  Uiso   1.00
S986   S     0.74430   0.44180   0.61442   0.00000  Uiso   1.00
O987   O     0.74482   0.40185   0.64117   0.00000  Uiso   1.00
O988   O     0.69410   0.46218   0.61987   0.00000  Uiso   1.00
O989   O     0.74265   0.42877   0.56006   0.00000  Uiso   1.00
H990   H     0.70925   0.41203   0.55261   0.00000  Uiso   1.00
C991   C     0.16910   0.75354   0.50033   0.00000  Uiso   1.00
C992   C     0.16432   0.91313   0.49968   0.00000  Uiso   1.00
C993   C     0.06726   0.83299   0.48835   0.00000  Uiso   1.00
C994   C     0.26607   0.83367   0.51165   0.00000  Uiso   1.00
C995   C     0.01235   0.83114   0.48215   0.00000  Uiso   1.00
C996   C     0.32098   0.83535   0.51788   0.00000  Uiso   1.00
C997   C     0.18714   0.68812   0.46387   0.00000  Uiso   1.00
C998   C     0.14634   0.97855   0.53616   0.00000  Uiso   1.00
C999   C     0.18148   0.97879   0.46345   0.00000  Uiso   1.00
C1000  C     0.15217   0.68787   0.53664   0.00000  Uiso   1.00
C1001  C     0.16240   0.95733   0.49946   0.00000  Uiso   1.00
C1002  C     0.17111   0.70934   0.50057   0.00000  Uiso   1.00
C1003  C     0.20297   0.85801   0.35946   0.00000  Uiso   1.00
C1004  C     0.13035   0.80860   0.64048   0.00000  Uiso   1.00
C1005  C     0.20231   0.85734   0.64530   0.00000  Uiso   1.00
C1006  C     0.13099   0.80936   0.35469   0.00000  Uiso   1.00
H1007  H     0.32560   0.82573   0.44832   0.00000  Uiso   1.00
H1008  H     0.00772   0.84065   0.55173   0.00000  Uiso   1.00
H1009  H     0.19397   0.96239   0.43546   0.00000  Uiso   1.00
H1010  H     0.13986   0.70426   0.56473   0.00000  Uiso   1.00
H1011  H     0.23073   0.87617   0.62899   0.00000  Uiso   1.00
H1012  H     0.10253   0.79063   0.37105   0.00000  Uiso   1.00
N1013  N     0.16665   0.83332   0.61907   0.00000  Uiso   1.00
N1014  N     0.16668   0.83334   0.38093   0.00000  Uiso   1.00
O1015  O     0.16666   0.77225   0.53821   0.00000  Uiso   1.00
O1016  O     0.16667   0.89442   0.46179   0.00000  Uiso   1.00
O1017  O     0.16666   0.77226   0.46176   0.00000  Uiso   1.00
O1018  O     0.16667   0.89441   0.53824   0.00000  Uiso   1.00
O1019  O     0.09058   0.83333   0.52928   0.00000  Uiso   1.00
O1020  O     0.24275   0.83334   0.47072   0.00000  Uiso   1.00
O1021  O     0.09058   0.83334   0.45284   0.00000  Uiso   1.00
O1022  O     0.24275   0.83333   0.54716   0.00000  Uiso   1.00
Zn1023 Zn    0.16667   0.83333   0.55104   0.00000  Uiso   1.00
Zn1024 Zn    0.16667   0.83334   0.44896   0.00000  Uiso   1.00
C1025  C     0.21167   0.70877   0.42636   0.00000  Uiso   1.00
C1026  C     0.18617   0.70623   0.38176   0.00000  Uiso   1.00
C1027  C     0.20967   0.72489   0.34622   0.00000  Uiso   1.00
C1028  C     0.25890   0.74586   0.35487   0.00000  Uiso   1.00
C1029  C     0.28482   0.74808   0.39905   0.00000  Uiso   1.00
C1030  C     0.26123   0.72983   0.43482   0.00000  Uiso   1.00
H1031  H     0.14799   0.69007   0.37466   0.00000  Uiso   1.00
H1032  H     0.18975   0.72313   0.64530   0.00000  Uiso   1.00
H1033  H     0.27703   0.76021   0.66063   0.00000  Uiso   1.00
H1034  H     0.32336   0.76368   0.40546   0.00000  Uiso   1.00
H1035  H     0.28169   0.73175   0.46893   0.00000  Uiso   1.00
C1036  C     0.12165   0.95792   0.57360   0.00000  Uiso   1.00
C1037  C     0.07219   0.93671   0.56501   0.00000  Uiso   1.00
C1038  C     0.04845   0.91850   0.60072   0.00000  Uiso   1.00
C1039  C     0.07413   0.92088   0.64497   0.00000  Uiso   1.00
C1040  C     0.12325   0.94199   0.65375   0.00000  Uiso   1.00
C1041  C     0.14687   0.96066   0.61827   0.00000  Uiso   1.00
H1042  H     0.05192   0.93466   0.53084   0.00000  Uiso   1.00
H1043  H     0.00997   0.90280   0.59421   0.00000  Uiso   1.00
H1044  H     0.05587   0.90656   0.33917   0.00000  Uiso   1.00
H1045  H     0.14298   0.94388   0.35474   0.00000  Uiso   1.00
H1046  H     0.18490   0.97700   0.62547   0.00000  Uiso   1.00
S1047  S     0.25537   0.89148   0.38557   0.00000  Uiso   1.00
O1048  O     0.25436   0.90240   0.43402   0.00000  Uiso   1.00
O1049  O     0.30602   0.87138   0.38109   0.00000  Uiso   1.00
O1050  O     0.25508   0.93624   0.35574   0.00000  Uiso   1.00
H1051  H     0.28876   0.95137   0.36684   0.00000  Uiso   1.00
S1052  S     0.07763   0.77513   0.61442   0.00000  Uiso   1.00
O1053  O     0.07815   0.73518   0.64117   0.00000  Uiso   1.00
O1054  O     0.02743   0.79551   0.61987   0.00000  Uiso   1.00
O1055  O     0.07598   0.76210   0.56006   0.00000  Uiso   1.00
H1056  H     0.04258   0.74536   0.55261   0.00000  Uiso   1.00
C1057  C     0.50244   0.75354   0.50033   0.00000  Uiso   1.00
C1058  C     0.49765   0.91313   0.49968   0.00000  Uiso   1.00
C1059  C     0.40059   0.83299   0.48835   0.00000  Uiso   1.00
C1060  C     0.59941   0.83367   0.51165   0.00000  Uiso   1.00
C1061  C     0.34568   0.83114   0.48215   0.00000  Uiso   1.00
C1062  C     0.65431   0.83535   0.51788   0.00000  Uiso   1.00
C1063  C     0.52047   0.68812   0.46387   0.00000  Uiso   1.00
C1064  C     0.47967   0.97855   0.53616   0.00000  Uiso   1.00
C1065  C     0.51481   0.97879   0.46345   0.00000  Uiso   1.00
C1066  C     0.48550   0.68787   0.53664   0.00000  Uiso   1.00
C1067  C     0.49573   0.95733   0.49946   0.00000  Uiso   1.00
C1068  C     0.50444   0.70934   0.50057   0.00000  Uiso   1.00
C1069  C     0.53630   0.85801   0.35946   0.00000  Uiso   1.00
C1070  C     0.46368   0.80860   0.64048   0.00000  Uiso   1.00
C1071  C     0.53565   0.85734   0.64530   0.00000  Uiso   1.00
C1072  C     0.46432   0.80936   0.35469   0.00000  Uiso   1.00
H1073  H     0.65894   0.82573   0.44832   0.00000  Uiso   1.00
H1074  H     0.34106   0.84065   0.55173   0.00000  Uiso   1.00
H1075  H     0.52731   0.96239   0.43546   0.00000  Uiso   1.00
H1076  H     0.47319   0.70426   0.56473   0.00000  Uiso   1.00
H1077  H     0.56407   0.87617   0.62899   0.00000  Uiso   1.00
H1078  H     0.43586   0.79063   0.37105   0.00000  Uiso   1.00
N1079  N     0.49999   0.83332   0.61907   0.00000  Uiso   1.00
N1080  N     0.50001   0.83334   0.38093   0.00000  Uiso   1.00
O1081  O     0.50000   0.77225   0.53821   0.00000  Uiso   1.00
O1082  O     0.50000   0.89442   0.46179   0.00000  Uiso   1.00
O1083  O     0.50000   0.77226   0.46176   0.00000  Uiso   1.00
O1084  O     0.50000   0.89441   0.53824   0.00000  Uiso   1.00
O1085  O     0.42392   0.83333   0.52928   0.00000  Uiso   1.00
O1086  O     0.57608   0.83334   0.47072   0.00000  Uiso   1.00
O1087  O     0.42392   0.83334   0.45284   0.00000  Uiso   1.00
O1088  O     0.57608   0.83333   0.54716   0.00000  Uiso   1.00
Zn1089 Zn    0.50000   0.83333   0.55104   0.00000  Uiso   1.00
Zn1090 Zn    0.50000   0.83334   0.44896   0.00000  Uiso   1.00
C1091  C     0.54500   0.70877   0.42636   0.00000  Uiso   1.00
C1092  C     0.51950   0.70623   0.38176   0.00000  Uiso   1.00
C1093  C     0.54301   0.72489   0.34622   0.00000  Uiso   1.00
C1094  C     0.59223   0.74586   0.35487   0.00000  Uiso   1.00
C1095  C     0.61815   0.74808   0.39905   0.00000  Uiso   1.00
C1096  C     0.59456   0.72983   0.43482   0.00000  Uiso   1.00
H1097  H     0.48132   0.69007   0.37466   0.00000  Uiso   1.00
H1098  H     0.52309   0.72313   0.64530   0.00000  Uiso   1.00
H1099  H     0.61037   0.76021   0.66063   0.00000  Uiso   1.00
H1100  H     0.65670   0.76368   0.40546   0.00000  Uiso   1.00
H1101  H     0.61502   0.73175   0.46893   0.00000  Uiso   1.00
C1102  C     0.45498   0.95792   0.57360   0.00000  Uiso   1.00
C1103  C     0.40552   0.93671   0.56501   0.00000  Uiso   1.00
C1104  C     0.38178   0.91850   0.60072   0.00000  Uiso   1.00
C1105  C     0.40746   0.92088   0.64497   0.00000  Uiso   1.00
C1106  C     0.45658   0.94199   0.65375   0.00000  Uiso   1.00
C1107  C     0.48020   0.96066   0.61827   0.00000  Uiso   1.00
H1108  H     0.38525   0.93466   0.53084   0.00000  Uiso   1.00
H1109  H     0.34331   0.90280   0.59421   0.00000  Uiso   1.00
H1110  H     0.38920   0.90656   0.33917   0.00000  Uiso   1.00
H1111  H     0.47631   0.94388   0.35474   0.00000  Uiso   1.00
H1112  H     0.51824   0.97700   0.62547   0.00000  Uiso   1.00
S1113  S     0.58870   0.89148   0.38557   0.00000  Uiso   1.00
O1114  O     0.58770   0.90240   0.43402   0.00000  Uiso   1.00
O1115  O     0.63935   0.87138   0.38109   0.00000  Uiso   1.00
O1116  O     0.58841   0.93624   0.35574   0.00000  Uiso   1.00
H1117  H     0.62210   0.95137   0.36684   0.00000  Uiso   1.00
S1118  S     0.41096   0.77513   0.61442   0.00000  Uiso   1.00
O1119  O     0.41148   0.73518   0.64117   0.00000  Uiso   1.00
O1120  O     0.36076   0.79551   0.61987   0.00000  Uiso   1.00
O1121  O     0.40931   0.76210   0.56006   0.00000  Uiso   1.00
H1122  H     0.37591   0.74536   0.55261   0.00000  Uiso   1.00
C1123  C     0.83577   0.75354   0.50033   0.00000  Uiso   1.00
C1124  C     0.83098   0.91313   0.49968   0.00000  Uiso   1.00
C1125  C     0.73393   0.83299   0.48835   0.00000  Uiso   1.00
C1126  C     0.93274   0.83367   0.51165   0.00000  Uiso   1.00
C1127  C     0.67902   0.83114   0.48215   0.00000  Uiso   1.00
C1128  C     0.98765   0.83535   0.51788   0.00000  Uiso   1.00
C1129  C     0.85381   0.68812   0.46387   0.00000  Uiso   1.00
C1130  C     0.81300   0.97855   0.53616   0.00000  Uiso   1.00
C1131  C     0.84815   0.97879   0.46345   0.00000  Uiso   1.00
C1132  C     0.81883   0.68787   0.53664   0.00000  Uiso   1.00
C1133  C     0.82907   0.95733   0.49946   0.00000  Uiso   1.00
C1134  C     0.83777   0.70934   0.50057   0.00000  Uiso   1.00
C1135  C     0.86963   0.85801   0.35946   0.00000  Uiso   1.00
C1136  C     0.79702   0.80860   0.64048   0.00000  Uiso   1.00
C1137  C     0.86898   0.85734   0.64530   0.00000  Uiso   1.00
C1138  C     0.79765   0.80936   0.35469   0.00000  Uiso   1.00
H1139  H     0.99227   0.82573   0.44832   0.00000  Uiso   1.00
H1140  H     0.67439   0.84065   0.55173   0.00000  Uiso   1.00
H1141  H     0.86064   0.96239   0.43546   0.00000  Uiso   1.00
H1142  H     0.80653   0.70426   0.56473   0.00000  Uiso   1.00
H1143  H     0.89740   0.87617   0.62899   0.00000  Uiso   1.00
H1144  H     0.76919   0.79063   0.37105   0.00000  Uiso   1.00
N1145  N     0.83332   0.83332   0.61907   0.00000  Uiso   1.00
N1146  N     0.83335   0.83334   0.38093   0.00000  Uiso   1.00
O1147  O     0.83333   0.77225   0.53821   0.00000  Uiso   1.00
O1148  O     0.83334   0.89442   0.46179   0.00000  Uiso   1.00
O1149  O     0.83333   0.77226   0.46176   0.00000  Uiso   1.00
O1150  O     0.83334   0.89441   0.53824   0.00000  Uiso   1.00
O1151  O     0.75725   0.83333   0.52928   0.00000  Uiso   1.00
O1152  O     0.90942   0.83334   0.47072   0.00000  Uiso   1.00
O1153  O     0.75725   0.83334   0.45284   0.00000  Uiso   1.00
O1154  O     0.90942   0.83333   0.54716   0.00000  Uiso   1.00
Zn1155 Zn    0.83333   0.83333   0.55104   0.00000  Uiso   1.00
Zn1156 Zn    0.83333   0.83334   0.44896   0.00000  Uiso   1.00
C1157  C     0.87833   0.70877   0.42636   0.00000  Uiso   1.00
C1158  C     0.85283   0.70623   0.38176   0.00000  Uiso   1.00
C1159  C     0.87634   0.72489   0.34622   0.00000  Uiso   1.00
C1160  C     0.92557   0.74586   0.35487   0.00000  Uiso   1.00
C1161  C     0.95148   0.74808   0.39905   0.00000  Uiso   1.00
C1162  C     0.92790   0.72983   0.43482   0.00000  Uiso   1.00
H1163  H     0.81466   0.69007   0.37466   0.00000  Uiso   1.00
H1164  H     0.85642   0.72313   0.64530   0.00000  Uiso   1.00
H1165  H     0.94370   0.76021   0.66063   0.00000  Uiso   1.00
H1166  H     0.99003   0.76368   0.40546   0.00000  Uiso   1.00
H1167  H     0.94836   0.73175   0.46893   0.00000  Uiso   1.00
C1168  C     0.78832   0.95792   0.57360   0.00000  Uiso   1.00
C1169  C     0.73886   0.93671   0.56501   0.00000  Uiso   1.00
C1170  C     0.71512   0.91850   0.60072   0.00000  Uiso   1.00
C1171  C     0.74079   0.92088   0.64497   0.00000  Uiso   1.00
C1172  C     0.78991   0.94199   0.65375   0.00000  Uiso   1.00
C1173  C     0.81353   0.96066   0.61827   0.00000  Uiso   1.00
H1174  H     0.71859   0.93466   0.53084   0.00000  Uiso   1.00
H1175  H     0.67664   0.90280   0.59421   0.00000  Uiso   1.00
H1176  H     0.72254   0.90656   0.33917   0.00000  Uiso   1.00
H1177  H     0.80965   0.94388   0.35474   0.00000  Uiso   1.00
H1178  H     0.85157   0.97700   0.62547   0.00000  Uiso   1.00
S1179  S     0.92204   0.89148   0.38557   0.00000  Uiso   1.00
O1180  O     0.92103   0.90240   0.43402   0.00000  Uiso   1.00
O1181  O     0.97268   0.87138   0.38109   0.00000  Uiso   1.00
O1182  O     0.92174   0.93624   0.35574   0.00000  Uiso   1.00
H1183  H     0.95543   0.95137   0.36684   0.00000  Uiso   1.00
S1184  S     0.74430   0.77513   0.61442   0.00000  Uiso   1.00
O1185  O     0.74482   0.73518   0.64117   0.00000  Uiso   1.00
O1186  O     0.69410   0.79551   0.61987   0.00000  Uiso   1.00
O1187  O     0.74265   0.76210   0.56006   0.00000  Uiso   1.00
H1188  H     0.70925   0.74536   0.55261   0.00000  Uiso   1.00
C1189  C     0.16910   0.08687   0.83366   0.00000  Uiso   1.00
C1190  C     0.16432   0.24647   0.83301   0.00000  Uiso   1.00
C1191  C     0.06726   0.16632   0.82168   0.00000  Uiso   1.00
C1192  C     0.26607   0.16700   0.84498   0.00000  Uiso   1.00
C1193  C     0.01235   0.16448   0.81548   0.00000  Uiso   1.00
C1194  C     0.32098   0.16869   0.85121   0.00000  Uiso   1.00
C1195  C     0.18714   0.02146   0.79720   0.00000  Uiso   1.00
C1196  C     0.14634   0.31188   0.86949   0.00000  Uiso   1.00
C1197  C     0.18148   0.31213   0.79678   0.00000  Uiso   1.00
C1198  C     0.15217   0.02121   0.86998   0.00000  Uiso   1.00
C1199  C     0.16240   0.29067   0.83280   0.00000  Uiso   1.00
C1200  C     0.17111   0.04267   0.83390   0.00000  Uiso   1.00
C1201  C     0.20297   0.19134   0.69279   0.00000  Uiso   1.00
C1202  C     0.13035   0.14193   0.97381   0.00000  Uiso   1.00
C1203  C     0.20231   0.19068   0.97863   0.00000  Uiso   1.00
C1204  C     0.13099   0.14269   0.68802   0.00000  Uiso   1.00
H1205  H     0.32560   0.15907   0.78166   0.00000  Uiso   1.00
H1206  H     0.00772   0.17399   0.88506   0.00000  Uiso   1.00
H1207  H     0.19397   0.29573   0.76879   0.00000  Uiso   1.00
H1208  H     0.13986   0.03760   0.89806   0.00000  Uiso   1.00
H1209  H     0.23073   0.20950   0.96232   0.00000  Uiso   1.00
H1210  H     0.10253   0.12396   0.70439   0.00000  Uiso   1.00
N1211  N     0.16665   0.16666   0.95240   0.00000  Uiso   1.00
N1212  N     0.16668   0.16668   0.71427   0.00000  Uiso   1.00
O1213  O     0.16666   0.10558   0.87154   0.00000  Uiso   1.00
O1214  O     0.16667   0.22775   0.79513   0.00000  Uiso   1.00
O1215  O     0.16666   0.10559   0.79510   0.00000  Uiso   1.00
O1216  O     0.16667   0.22774   0.87157   0.00000  Uiso   1.00
O1217  O     0.09058   0.16666   0.86261   0.00000  Uiso   1.00
O1218  O     0.24275   0.16667   0.80405   0.00000  Uiso   1.00
O1219  O     0.09058   0.16667   0.78617   0.00000  Uiso   1.00
O1220  O     0.24275   0.16666   0.88050   0.00000  Uiso   1.00
Zn1221 Zn    0.16667   0.16666   0.88437   0.00000  Uiso   1.00
Zn1222 Zn    0.16667   0.16667   0.78229   0.00000  Uiso   1.00
C1223  C     0.21167   0.04211   0.75969   0.00000  Uiso   1.00
C1224  C     0.18617   0.03956   0.71510   0.00000  Uiso   1.00
C1225  C     0.20967   0.05823   0.67956   0.00000  Uiso   1.00
C1226  C     0.25890   0.07919   0.68820   0.00000  Uiso   1.00
C1227  C     0.28482   0.08141   0.73238   0.00000  Uiso   1.00
C1228  C     0.26123   0.06317   0.76815   0.00000  Uiso   1.00
H1229  H     0.14799   0.02340   0.70799   0.00000  Uiso   1.00
H1230  H     0.18975   0.05646   0.97863   0.00000  Uiso   1.00
H1231  H     0.27703   0.09354   0.99396   0.00000  Uiso   1.00
H1232  H     0.32336   0.09701   0.73879   0.00000  Uiso   1.00
H1233  H     0.28169   0.06508   0.80226   0.00000  Uiso   1.00
C1234  C     0.12165   0.29125   0.90693   0.00000  Uiso   1.00
C1235  C     0.07219   0.27004   0.89834   0.00000  Uiso   1.00
C1236  C     0.04845   0.25183   0.93405   0.00000  Uiso   1.00
C1237  C     0.07413   0.25421   0.97831   0.00000  Uiso   1.00
C1238  C     0.12325   0.27532   0.98709   0.00000  Uiso   1.00
C1239  C     0.14687   0.29399   0.95161   0.00000  Uiso   1.00
H1240  H     0.05192   0.26799   0.86417   0.00000  Uiso   1.00
H1241  H     0.00997   0.23614   0.92754   0.00000  Uiso   1.00
H1242  H     0.05587   0.23989   0.67250   0.00000  Uiso   1.00
H1243  H     0.14298   0.27722   0.68807   0.00000  Uiso   1.00
H1244  H     0.18490   0.31033   0.95881   0.00000  Uiso   1.00
S1245  S     0.25537   0.22482   0.71890   0.00000  Uiso   1.00
O1246  O     0.25436   0.23574   0.76736   0.00000  Uiso   1.00
O1247  O     0.30602   0.20471   0.71442   0.00000  Uiso   1.00
O1248  O     0.25508   0.26957   0.68907   0.00000  Uiso   1.00
H1249  H     0.28876   0.28470   0.70017   0.00000  Uiso   1.00
S1250  S     0.07763   0.10847   0.94775   0.00000  Uiso   1.00
O1251  O     0.07815   0.06851   0.97450   0.00000  Uiso   1.00
O1252  O     0.02743   0.12884   0.95321   0.00000  Uiso   1.00
O1253  O     0.07598   0.09543   0.89340   0.00000  Uiso   1.00
H1254  H     0.04258   0.07870   0.88594   0.00000  Uiso   1.00
C1255  C     0.50244   0.08687   0.83366   0.00000  Uiso   1.00
C1256  C     0.49765   0.24647   0.83301   0.00000  Uiso   1.00
C1257  C     0.40059   0.16632   0.82168   0.00000  Uiso   1.00
C1258  C     0.59941   0.16700   0.84498   0.00000  Uiso   1.00
C1259  C     0.34568   0.16448   0.81548   0.00000  Uiso   1.00
C1260  C     0.65431   0.16869   0.85121   0.00000  Uiso   1.00
C1261  C     0.52047   0.02146   0.79720   0.00000  Uiso   1.00
C1262  C     0.47967   0.31188   0.86949   0.00000  Uiso   1.00
C1263  C     0.51481   0.31213   0.79678   0.00000  Uiso   1.00
C1264  C     0.48550   0.02121   0.86998   0.00000  Uiso   1.00
C1265  C     0.49573   0.29067   0.83280   0.00000  Uiso   1.00
C1266  C     0.50444   0.04267   0.83390   0.00000  Uiso   1.00
C1267  C     0.53630   0.19134   0.69279   0.00000  Uiso   1.00
C1268  C     0.46368   0.14193   0.97381   0.00000  Uiso   1.00
C1269  C     0.53565   0.19068   0.97863   0.00000  Uiso   1.00
C1270  C     0.46432   0.14269   0.68802   0.00000  Uiso   1.00
H1271  H     0.65894   0.15907   0.78166   0.00000  Uiso   1.00
H1272  H     0.34106   0.17399   0.88506   0.00000  Uiso   1.00
H1273  H     0.52731   0.29573   0.76879   0.00000  Uiso   1.00
H1274  H     0.47319   0.03760   0.89806   0.00000  Uiso   1.00
H1275  H     0.56407   0.20950   0.96232   0.00000  Uiso   1.00
H1276  H     0.43586   0.12396   0.70439   0.00000  Uiso   1.00
N1277  N     0.49999   0.16666   0.95240   0.00000  Uiso   1.00
N1278  N     0.50001   0.16668   0.71427   0.00000  Uiso   1.00
O1279  O     0.50000   0.10558   0.87154   0.00000  Uiso   1.00
O1280  O     0.50000   0.22775   0.79513   0.00000  Uiso   1.00
O1281  O     0.50000   0.10559   0.79510   0.00000  Uiso   1.00
O1282  O     0.50000   0.22774   0.87157   0.00000  Uiso   1.00
O1283  O     0.42392   0.16666   0.86261   0.00000  Uiso   1.00
O1284  O     0.57608   0.16667   0.80405   0.00000  Uiso   1.00
O1285  O     0.42392   0.16667   0.78617   0.00000  Uiso   1.00
O1286  O     0.57608   0.16666   0.88050   0.00000  Uiso   1.00
Zn1287 Zn    0.50000   0.16666   0.88437   0.00000  Uiso   1.00
Zn1288 Zn    0.50000   0.16667   0.78229   0.00000  Uiso   1.00
C1289  C     0.54500   0.04211   0.75969   0.00000  Uiso   1.00
C1290  C     0.51950   0.03956   0.71510   0.00000  Uiso   1.00
C1291  C     0.54301   0.05823   0.67956   0.00000  Uiso   1.00
C1292  C     0.59223   0.07919   0.68820   0.00000  Uiso   1.00
C1293  C     0.61815   0.08141   0.73238   0.00000  Uiso   1.00
C1294  C     0.59456   0.06317   0.76815   0.00000  Uiso   1.00
H1295  H     0.48132   0.02340   0.70799   0.00000  Uiso   1.00
H1296  H     0.52309   0.05646   0.97863   0.00000  Uiso   1.00
H1297  H     0.61037   0.09354   0.99396   0.00000  Uiso   1.00
H1298  H     0.65670   0.09701   0.73879   0.00000  Uiso   1.00
H1299  H     0.61502   0.06508   0.80226   0.00000  Uiso   1.00
C1300  C     0.45498   0.29125   0.90693   0.00000  Uiso   1.00
C1301  C     0.40552   0.27004   0.89834   0.00000  Uiso   1.00
C1302  C     0.38178   0.25183   0.93405   0.00000  Uiso   1.00
C1303  C     0.40746   0.25421   0.97831   0.00000  Uiso   1.00
C1304  C     0.45658   0.27532   0.98709   0.00000  Uiso   1.00
C1305  C     0.48020   0.29399   0.95161   0.00000  Uiso   1.00
H1306  H     0.38525   0.26799   0.86417   0.00000  Uiso   1.00
H1307  H     0.34331   0.23614   0.92754   0.00000  Uiso   1.00
H1308  H     0.38920   0.23989   0.67250   0.00000  Uiso   1.00
H1309  H     0.47631   0.27722   0.68807   0.00000  Uiso   1.00
H1310  H     0.51824   0.31033   0.95881   0.00000  Uiso   1.00
S1311  S     0.58870   0.22482   0.71890   0.00000  Uiso   1.00
O1312  O     0.58770   0.23574   0.76736   0.00000  Uiso   1.00
O1313  O     0.63935   0.20471   0.71442   0.00000  Uiso   1.00
O1314  O     0.58841   0.26957   0.68907   0.00000  Uiso   1.00
H1315  H     0.62210   0.28470   0.70017   0.00000  Uiso   1.00
S1316  S     0.41096   0.10847   0.94775   0.00000  Uiso   1.00
O1317  O     0.41148   0.06851   0.97450   0.00000  Uiso   1.00
O1318  O     0.36076   0.12884   0.95321   0.00000  Uiso   1.00
O1319  O     0.40931   0.09543   0.89340   0.00000  Uiso   1.00
H1320  H     0.37591   0.07870   0.88594   0.00000  Uiso   1.00
C1321  C     0.83577   0.08687   0.83366   0.00000  Uiso   1.00
C1322  C     0.83098   0.24647   0.83301   0.00000  Uiso   1.00
C1323  C     0.73393   0.16632   0.82168   0.00000  Uiso   1.00
C1324  C     0.93274   0.16700   0.84498   0.00000  Uiso   1.00
C1325  C     0.67902   0.16448   0.81548   0.00000  Uiso   1.00
C1326  C     0.98765   0.16869   0.85121   0.00000  Uiso   1.00
C1327  C     0.85381   0.02146   0.79720   0.00000  Uiso   1.00
C1328  C     0.81300   0.31188   0.86949   0.00000  Uiso   1.00
C1329  C     0.84815   0.31213   0.79678   0.00000  Uiso   1.00
C1330  C     0.81883   0.02121   0.86998   0.00000  Uiso   1.00
C1331  C     0.82907   0.29067   0.83280   0.00000  Uiso   1.00
C1332  C     0.83777   0.04267   0.83390   0.00000  Uiso   1.00
C1333  C     0.86963   0.19134   0.69279   0.00000  Uiso   1.00
C1334  C     0.79702   0.14193   0.97381   0.00000  Uiso   1.00
C1335  C     0.86898   0.19068   0.97863   0.00000  Uiso   1.00
C1336  C     0.79765   0.14269   0.68802   0.00000  Uiso   1.00
H1337  H     0.99227   0.15907   0.78166   0.00000  Uiso   1.00
H1338  H     0.67439   0.17399   0.88506   0.00000  Uiso   1.00
H1339  H     0.86064   0.29573   0.76879   0.00000  Uiso   1.00
H1340  H     0.80653   0.03760   0.89806   0.00000  Uiso   1.00
H1341  H     0.89740   0.20950   0.96232   0.00000  Uiso   1.00
H1342  H     0.76919   0.12396   0.70439   0.00000  Uiso   1.00
N1343  N     0.83332   0.16666   0.95240   0.00000  Uiso   1.00
N1344  N     0.83335   0.16668   0.71427   0.00000  Uiso   1.00
O1345  O     0.83333   0.10558   0.87154   0.00000  Uiso   1.00
O1346  O     0.83334   0.22775   0.79513   0.00000  Uiso   1.00
O1347  O     0.83333   0.10559   0.79510   0.00000  Uiso   1.00
O1348  O     0.83334   0.22774   0.87157   0.00000  Uiso   1.00
O1349  O     0.75725   0.16666   0.86261   0.00000  Uiso   1.00
O1350  O     0.90942   0.16667   0.80405   0.00000  Uiso   1.00
O1351  O     0.75725   0.16667   0.78617   0.00000  Uiso   1.00
O1352  O     0.90942   0.16666   0.88050   0.00000  Uiso   1.00
Zn1353 Zn    0.83333   0.16666   0.88437   0.00000  Uiso   1.00
Zn1354 Zn    0.83333   0.16667   0.78229   0.00000  Uiso   1.00
C1355  C     0.87833   0.04211   0.75969   0.00000  Uiso   1.00
C1356  C     0.85283   0.03956   0.71510   0.00000  Uiso   1.00
C1357  C     0.87634   0.05823   0.67956   0.00000  Uiso   1.00
C1358  C     0.92557   0.07919   0.68820   0.00000  Uiso   1.00
C1359  C     0.95148   0.08141   0.73238   0.00000  Uiso   1.00
C1360  C     0.92790   0.06317   0.76815   0.00000  Uiso   1.00
H1361  H     0.81466   0.02340   0.70799   0.00000  Uiso   1.00
H1362  H     0.85642   0.05646   0.97863   0.00000  Uiso   1.00
H1363  H     0.94370   0.09354   0.99396   0.00000  Uiso   1.00
H1364  H     0.99003   0.09701   0.73879   0.00000  Uiso   1.00
H1365  H     0.94836   0.06508   0.80226   0.00000  Uiso   1.00
C1366  C     0.78832   0.29125   0.90693   0.00000  Uiso   1.00
C1367  C     0.73886   0.27004   0.89834   0.00000  Uiso   1.00
C1368  C     0.71512   0.25183   0.93405   0.00000  Uiso   1.00
C1369  C     0.74079   0.25421   0.97831   0.00000  Uiso   1.00
C1370  C     0.78991   0.27532   0.98709   0.00000  Uiso   1.00
C1371  C     0.81353   0.29399   0.95161   0.00000  Uiso   1.00
H1372  H     0.71859   0.26799   0.86417   0.00000  Uiso   1.00
H1373  H     0.67664   0.23614   0.92754   0.00000  Uiso   1.00
H1374  H     0.72254   0.23989   0.67250   0.00000  Uiso   1.00
H1375  H     0.80965   0.27722   0.68807   0.00000  Uiso   1.00
H1376  H     0.85157   0.31033   0.95881   0.00000  Uiso   1.00
S1377  S     0.92204   0.22482   0.71890   0.00000  Uiso   1.00
O1378  O     0.92103   0.23574   0.76736   0.00000  Uiso   1.00
O1379  O     0.97268   0.20471   0.71442   0.00000  Uiso   1.00
O1380  O     0.92174   0.26957   0.68907   0.00000  Uiso   1.00
H1381  H     0.95543   0.28470   0.70017   0.00000  Uiso   1.00
S1382  S     0.74430   0.10847   0.94775   0.00000  Uiso   1.00
O1383  O     0.74482   0.06851   0.97450   0.00000  Uiso   1.00
O1384  O     0.69410   0.12884   0.95321   0.00000  Uiso   1.00
O1385  O     0.74265   0.09543   0.89340   0.00000  Uiso   1.00
H1386  H     0.70925   0.07870   0.88594   0.00000  Uiso   1.00
C1387  C     0.16910   0.42021   0.83366   0.00000  Uiso   1.00
C1388  C     0.16432   0.57980   0.83301   0.00000  Uiso   1.00
C1389  C     0.06726   0.49966   0.82168   0.00000  Uiso   1.00
C1390  C     0.26607   0.50033   0.84498   0.00000  Uiso   1.00
C1391  C     0.01235   0.49781   0.81548   0.00000  Uiso   1.00
C1392  C     0.32098   0.50202   0.85121   0.00000  Uiso   1.00
C1393  C     0.18714   0.35479   0.79720   0.00000  Uiso   1.00
C1394  C     0.14634   0.64522   0.86949   0.00000  Uiso   1.00
C1395  C     0.18148   0.64546   0.79678   0.00000  Uiso   1.00
C1396  C     0.15217   0.35454   0.86998   0.00000  Uiso   1.00
C1397  C     0.16240   0.62400   0.83280   0.00000  Uiso   1.00
C1398  C     0.17111   0.37601   0.83390   0.00000  Uiso   1.00
C1399  C     0.20297   0.52467   0.69279   0.00000  Uiso   1.00
C1400  C     0.13035   0.47527   0.97381   0.00000  Uiso   1.00
C1401  C     0.20231   0.52401   0.97863   0.00000  Uiso   1.00
C1402  C     0.13099   0.47603   0.68802   0.00000  Uiso   1.00
H1403  H     0.32560   0.49240   0.78166   0.00000  Uiso   1.00
H1404  H     0.00772   0.50732   0.88506   0.00000  Uiso   1.00
H1405  H     0.19397   0.62906   0.76879   0.00000  Uiso   1.00
H1406  H     0.13986   0.37093   0.89806   0.00000  Uiso   1.00
H1407  H     0.23073   0.54284   0.96232   0.00000  Uiso   1.00
H1408  H     0.10253   0.45730   0.70439   0.00000  Uiso   1.00
N1409  N     0.16665   0.49999   0.95240   0.00000  Uiso   1.00
N1410  N     0.16668   0.50001   0.71427   0.00000  Uiso   1.00
O1411  O     0.16666   0.43892   0.87154   0.00000  Uiso   1.00
O1412  O     0.16667   0.56108   0.79513   0.00000  Uiso   1.00
O1413  O     0.16666   0.43893   0.79510   0.00000  Uiso   1.00
O1414  O     0.16667   0.56107   0.87157   0.00000  Uiso   1.00
O1415  O     0.09058   0.50000   0.86261   0.00000  Uiso   1.00
O1416  O     0.24275   0.50000   0.80405   0.00000  Uiso   1.00
O1417  O     0.09058   0.50000   0.78617   0.00000  Uiso   1.00
O1418  O     0.24275   0.50000   0.88050   0.00000  Uiso   1.00
Zn1419 Zn    0.16667   0.49999   0.88437   0.00000  Uiso   1.00
Zn1420 Zn    0.16667   0.50001   0.78229   0.00000  Uiso   1.00
C1421  C     0.21167   0.37544   0.75969   0.00000  Uiso   1.00
C1422  C     0.18617   0.37289   0.71510   0.00000  Uiso   1.00
C1423  C     0.20967   0.39156   0.67956   0.00000  Uiso   1.00
C1424  C     0.25890   0.41252   0.68820   0.00000  Uiso   1.00
C1425  C     0.28482   0.41474   0.73238   0.00000  Uiso   1.00
C1426  C     0.26123   0.39650   0.76815   0.00000  Uiso   1.00
H1427  H     0.14799   0.35673   0.70799   0.00000  Uiso   1.00
H1428  H     0.18975   0.38980   0.97863   0.00000  Uiso   1.00
H1429  H     0.27703   0.42687   0.99396   0.00000  Uiso   1.00
H1430  H     0.32336   0.43035   0.73879   0.00000  Uiso   1.00
H1431  H     0.28169   0.39842   0.80226   0.00000  Uiso   1.00
C1432  C     0.12165   0.62458   0.90693   0.00000  Uiso   1.00
C1433  C     0.07219   0.60337   0.89834   0.00000  Uiso   1.00
C1434  C     0.04845   0.58517   0.93405   0.00000  Uiso   1.00
C1435  C     0.07413   0.58755   0.97831   0.00000  Uiso   1.00
C1436  C     0.12325   0.60865   0.98709   0.00000  Uiso   1.00
C1437  C     0.14687   0.62732   0.95161   0.00000  Uiso   1.00
H1438  H     0.05192   0.60132   0.86417   0.00000  Uiso   1.00
H1439  H     0.00997   0.56947   0.92754   0.00000  Uiso   1.00
H1440  H     0.05587   0.57322   0.67250   0.00000  Uiso   1.00
H1441  H     0.14298   0.61055   0.68807   0.00000  Uiso   1.00
H1442  H     0.18490   0.64367   0.95881   0.00000  Uiso   1.00
S1443  S     0.25537   0.55815   0.71890   0.00000  Uiso   1.00
O1444  O     0.25436   0.56907   0.76736   0.00000  Uiso   1.00
O1445  O     0.30602   0.53805   0.71442   0.00000  Uiso   1.00
O1446  O     0.25508   0.60290   0.68907   0.00000  Uiso   1.00
H1447  H     0.28876   0.61803   0.70017   0.00000  Uiso   1.00
S1448  S     0.07763   0.44180   0.94775   0.00000  Uiso   1.00
O1449  O     0.07815   0.40185   0.97450   0.00000  Uiso   1.00
O1450  O     0.02743   0.46218   0.95321   0.00000  Uiso   1.00
O1451  O     0.07598   0.42877   0.89340   0.00000  Uiso   1.00
H1452  H     0.04258   0.41203   0.88594   0.00000  Uiso   1.00
C1453  C     0.50244   0.42021   0.83366   0.00000  Uiso   1.00
C1454  C     0.49765   0.57980   0.83301   0.00000  Uiso   1.00
C1455  C     0.40059   0.49966   0.82168   0.00000  Uiso   1.00
C1456  C     0.59941   0.50033   0.84498   0.00000  Uiso   1.00
C1457  C     0.34568   0.49781   0.81548   0.00000  Uiso   1.00
C1458  C     0.65431   0.50202   0.85121   0.00000  Uiso   1.00
C1459  C     0.52047   0.35479   0.79720   0.00000  Uiso   1.00
C1460  C     0.47967   0.64522   0.86949   0.00000  Uiso   1.00
C1461  C     0.51481   0.64546   0.79678   0.00000  Uiso   1.00
C1462  C     0.48550   0.35454   0.86998   0.00000  Uiso   1.00
C1463  C     0.49573   0.62400   0.83280   0.00000  Uiso   1.00
C1464  C     0.50444   0.37601   0.83390   0.00000  Uiso   1.00
C1465  C     0.53630   0.52467   0.69279   0.00000  Uiso   1.00
C1466  C     0.46368   0.47527   0.97381   0.00000  Uiso   1.00
C1467  C     0.53565   0.52401   0.97863   0.00000  Uiso   1.00
C1468  C     0.46432   0.47603   0.68802   0.00000  Uiso   1.00
H1469  H     0.65894   0.49240   0.78166   0.00000  Uiso   1.00
H1470  H     0.34106   0.50732   0.88506   0.00000  Uiso   1.00
H1471  H     0.52731   0.62906   0.76879   0.00000  Uiso   1.00
H1472  H     0.47319   0.37093   0.89806   0.00000  Uiso   1.00
H1473  H     0.56407   0.54284   0.96232   0.00000  Uiso   1.00
H1474  H     0.43586   0.45730   0.70439   0.00000  Uiso   1.00
N1475  N     0.49999   0.49999   0.95240   0.00000  Uiso   1.00
N1476  N     0.50001   0.50001   0.71427   0.00000  Uiso   1.00
O1477  O     0.50000   0.43892   0.87154   0.00000  Uiso   1.00
O1478  O     0.50000   0.56108   0.79513   0.00000  Uiso   1.00
O1479  O     0.50000   0.43893   0.79510   0.00000  Uiso   1.00
O1480  O     0.50000   0.56107   0.87157   0.00000  Uiso   1.00
O1481  O     0.42392   0.50000   0.86261   0.00000  Uiso   1.00
O1482  O     0.57608   0.50000   0.80405   0.00000  Uiso   1.00
O1483  O     0.42392   0.50000   0.78617   0.00000  Uiso   1.00
O1484  O     0.57608   0.50000   0.88050   0.00000  Uiso   1.00
Zn1485 Zn    0.50000   0.49999   0.88437   0.00000  Uiso   1.00
Zn1486 Zn    0.50000   0.50001   0.78229   0.00000  Uiso   1.00
C1487  C     0.54500   0.37544   0.75969   0.00000  Uiso   1.00
C1488  C     0.51950   0.37289   0.71510   0.00000  Uiso   1.00
C1489  C     0.54301   0.39156   0.67956   0.00000  Uiso   1.00
C1490  C     0.59223   0.41252   0.68820   0.00000  Uiso   1.00
C1491  C     0.61815   0.41474   0.73238   0.00000  Uiso   1.00
C1492  C     0.59456   0.39650   0.76815   0.00000  Uiso   1.00
H1493  H     0.48132   0.35673   0.70799   0.00000  Uiso   1.00
H1494  H     0.52309   0.38980   0.97863   0.00000  Uiso   1.00
H1495  H     0.61037   0.42687   0.99396   0.00000  Uiso   1.00
H1496  H     0.65670   0.43035   0.73879   0.00000  Uiso   1.00
H1497  H     0.61502   0.39842   0.80226   0.00000  Uiso   1.00
C1498  C     0.45498   0.62458   0.90693   0.00000  Uiso   1.00
C1499  C     0.40552   0.60337   0.89834   0.00000  Uiso   1.00
C1500  C     0.38178   0.58517   0.93405   0.00000  Uiso   1.00
C1501  C     0.40746   0.58755   0.97831   0.00000  Uiso   1.00
C1502  C     0.45658   0.60865   0.98709   0.00000  Uiso   1.00
C1503  C     0.48020   0.62732   0.95161   0.00000  Uiso   1.00
H1504  H     0.38525   0.60132   0.86417   0.00000  Uiso   1.00
H1505  H     0.34331   0.56947   0.92754   0.00000  Uiso   1.00
H1506  H     0.38920   0.57322   0.67250   0.00000  Uiso   1.00
H1507  H     0.47631   0.61055   0.68807   0.00000  Uiso   1.00
H1508  H     0.51824   0.64367   0.95881   0.00000  Uiso   1.00
S1509  S     0.58870   0.55815   0.71890   0.00000  Uiso   1.00
O1510  O     0.58770   0.56907   0.76736   0.00000  Uiso   1.00
O1511  O     0.63935   0.53805   0.71442   0.00000  Uiso   1.00
O1512  O     0.58841   0.60290   0.68907   0.00000  Uiso   1.00
H1513  H     0.62210   0.61803   0.70017   0.00000  Uiso   1.00
S1514  S     0.41096   0.44180   0.94775   0.00000  Uiso   1.00
O1515  O     0.41148   0.40185   0.97450   0.00000  Uiso   1.00
O1516  O     0.36076   0.46218   0.95321   0.00000  Uiso   1.00
O1517  O     0.40931   0.42877   0.89340   0.00000  Uiso   1.00
H1518  H     0.37591   0.41203   0.88594   0.00000  Uiso   1.00
C1519  C     0.83577   0.42021   0.83366   0.00000  Uiso   1.00
C1520  C     0.83098   0.57980   0.83301   0.00000  Uiso   1.00
C1521  C     0.73393   0.49966   0.82168   0.00000  Uiso   1.00
C1522  C     0.93274   0.50033   0.84498   0.00000  Uiso   1.00
C1523  C     0.67902   0.49781   0.81548   0.00000  Uiso   1.00
C1524  C     0.98765   0.50202   0.85121   0.00000  Uiso   1.00
C1525  C     0.85381   0.35479   0.79720   0.00000  Uiso   1.00
C1526  C     0.81300   0.64522   0.86949   0.00000  Uiso   1.00
C1527  C     0.84815   0.64546   0.79678   0.00000  Uiso   1.00
C1528  C     0.81883   0.35454   0.86998   0.00000  Uiso   1.00
C1529  C     0.82907   0.62400   0.83280   0.00000  Uiso   1.00
C1530  C     0.83777   0.37601   0.83390   0.00000  Uiso   1.00
C1531  C     0.86963   0.52467   0.69279   0.00000  Uiso   1.00
C1532  C     0.79702   0.47527   0.97381   0.00000  Uiso   1.00
C1533  C     0.86898   0.52401   0.97863   0.00000  Uiso   1.00
C1534  C     0.79765   0.47603   0.68802   0.00000  Uiso   1.00
H1535  H     0.99227   0.49240   0.78166   0.00000  Uiso   1.00
H1536  H     0.67439   0.50732   0.88506   0.00000  Uiso   1.00
H1537  H     0.86064   0.62906   0.76879   0.00000  Uiso   1.00
H1538  H     0.80653   0.37093   0.89806   0.00000  Uiso   1.00
H1539  H     0.89740   0.54284   0.96232   0.00000  Uiso   1.00
H1540  H     0.76919   0.45730   0.70439   0.00000  Uiso   1.00
N1541  N     0.83332   0.49999   0.95240   0.00000  Uiso   1.00
N1542  N     0.83335   0.50001   0.71427   0.00000  Uiso   1.00
O1543  O     0.83333   0.43892   0.87154   0.00000  Uiso   1.00
O1544  O     0.83334   0.56108   0.79513   0.00000  Uiso   1.00
O1545  O     0.83333   0.43893   0.79510   0.00000  Uiso   1.00
O1546  O     0.83334   0.56107   0.87157   0.00000  Uiso   1.00
O1547  O     0.75725   0.50000   0.86261   0.00000  Uiso   1.00
O1548  O     0.90942   0.50000   0.80405   0.00000  Uiso   1.00
O1549  O     0.75725   0.50000   0.78617   0.00000  Uiso   1.00
O1550  O     0.90942   0.50000   0.88050   0.00000  Uiso   1.00
Zn1551 Zn    0.83333   0.49999   0.88437   0.00000  Uiso   1.00
Zn1552 Zn    0.83333   0.50001   0.78229   0.00000  Uiso   1.00
C1553  C     0.87833   0.37544   0.75969   0.00000  Uiso   1.00
C1554  C     0.85283   0.37289   0.71510   0.00000  Uiso   1.00
C1555  C     0.87634   0.39156   0.67956   0.00000  Uiso   1.00
C1556  C     0.92557   0.41252   0.68820   0.00000  Uiso   1.00
C1557  C     0.95148   0.41474   0.73238   0.00000  Uiso   1.00
C1558  C     0.92790   0.39650   0.76815   0.00000  Uiso   1.00
H1559  H     0.81466   0.35673   0.70799   0.00000  Uiso   1.00
H1560  H     0.85642   0.38980   0.97863   0.00000  Uiso   1.00
H1561  H     0.94370   0.42687   0.99396   0.00000  Uiso   1.00
H1562  H     0.99003   0.43035   0.73879   0.00000  Uiso   1.00
H1563  H     0.94836   0.39842   0.80226   0.00000  Uiso   1.00
C1564  C     0.78832   0.62458   0.90693   0.00000  Uiso   1.00
C1565  C     0.73886   0.60337   0.89834   0.00000  Uiso   1.00
C1566  C     0.71512   0.58517   0.93405   0.00000  Uiso   1.00
C1567  C     0.74079   0.58755   0.97831   0.00000  Uiso   1.00
C1568  C     0.78991   0.60865   0.98709   0.00000  Uiso   1.00
C1569  C     0.81353   0.62732   0.95161   0.00000  Uiso   1.00
H1570  H     0.71859   0.60132   0.86417   0.00000  Uiso   1.00
H1571  H     0.67664   0.56947   0.92754   0.00000  Uiso   1.00
H1572  H     0.72254   0.57322   0.67250   0.00000  Uiso   1.00
H1573  H     0.80965   0.61055   0.68807   0.00000  Uiso   1.00
H1574  H     0.85157   0.64367   0.95881   0.00000  Uiso   1.00
S1575  S     0.92204   0.55815   0.71890   0.00000  Uiso   1.00
O1576  O     0.92103   0.56907   0.76736   0.00000  Uiso   1.00
O1577  O     0.97268   0.53805   0.71442   0.00000  Uiso   1.00
O1578  O     0.92174   0.60290   0.68907   0.00000  Uiso   1.00
H1579  H     0.95543   0.61803   0.70017   0.00000  Uiso   1.00
S1580  S     0.74430   0.44180   0.94775   0.00000  Uiso   1.00
O1581  O     0.74482   0.40185   0.97450   0.00000  Uiso   1.00
O1582  O     0.69410   0.46218   0.95321   0.00000  Uiso   1.00
O1583  O     0.74265   0.42877   0.89340   0.00000  Uiso   1.00
H1584  H     0.70925   0.41203   0.88594   0.00000  Uiso   1.00
C1585  C     0.16910   0.75354   0.83366   0.00000  Uiso   1.00
C1586  C     0.16432   0.91313   0.83301   0.00000  Uiso   1.00
C1587  C     0.06726   0.83299   0.82168   0.00000  Uiso   1.00
C1588  C     0.26607   0.83367   0.84498   0.00000  Uiso   1.00
C1589  C     0.01235   0.83114   0.81548   0.00000  Uiso   1.00
C1590  C     0.32098   0.83535   0.85121   0.00000  Uiso   1.00
C1591  C     0.18714   0.68812   0.79720   0.00000  Uiso   1.00
C1592  C     0.14634   0.97855   0.86949   0.00000  Uiso   1.00
C1593  C     0.18148   0.97879   0.79678   0.00000  Uiso   1.00
C1594  C     0.15217   0.68787   0.86998   0.00000  Uiso   1.00
C1595  C     0.16240   0.95733   0.83280   0.00000  Uiso   1.00
C1596  C     0.17111   0.70934   0.83390   0.00000  Uiso   1.00
C1597  C     0.20297   0.85801   0.69279   0.00000  Uiso   1.00
C1598  C     0.13035   0.80860   0.97381   0.00000  Uiso   1.00
C1599  C     0.20231   0.85734   0.97863   0.00000  Uiso   1.00
C1600  C     0.13099   0.80936   0.68802   0.00000  Uiso   1.00
H1601  H     0.32560   0.82573   0.78166   0.00000  Uiso   1.00
H1602  H     0.00772   0.84065   0.88506   0.00000  Uiso   1.00
H1603  H     0.19397   0.96239   0.76879   0.00000  Uiso   1.00
H1604  H     0.13986   0.70426   0.89806   0.00000  Uiso   1.00
H1605  H     0.23073   0.87617   0.96232   0.00000  Uiso   1.00
H1606  H     0.10253   0.79063   0.70439   0.00000  Uiso   1.00
N1607  N     0.16665   0.83332   0.95240   0.00000  Uiso   1.00
N1608  N     0.16668   0.83334   0.71427   0.00000  Uiso   1.00
O1609  O     0.16666   0.77225   0.87154   0.00000  Uiso   1.00
O1610  O     0.16667   0.89442   0.79513   0.00000  Uiso   1.00
O1611  O     0.16666   0.77226   0.79510   0.00000  Uiso   1.00
O1612  O     0.16667   0.89441   0.87157   0.00000  Uiso   1.00
O1613  O     0.09058   0.83333   0.86261   0.00000  Uiso   1.00
O1614  O     0.24275   0.83334   0.80405   0.00000  Uiso   1.00
O1615  O     0.09058   0.83334   0.78617   0.00000  Uiso   1.00
O1616  O     0.24275   0.83333   0.88050   0.00000  Uiso   1.00
Zn1617 Zn    0.16667   0.83333   0.88437   0.00000  Uiso   1.00
Zn1618 Zn    0.16667   0.83334   0.78229   0.00000  Uiso   1.00
C1619  C     0.21167   0.70877   0.75969   0.00000  Uiso   1.00
C1620  C     0.18617   0.70623   0.71510   0.00000  Uiso   1.00
C1621  C     0.20967   0.72489   0.67956   0.00000  Uiso   1.00
C1622  C     0.25890   0.74586   0.68820   0.00000  Uiso   1.00
C1623  C     0.28482   0.74808   0.73238   0.00000  Uiso   1.00
C1624  C     0.26123   0.72983   0.76815   0.00000  Uiso   1.00
H1625  H     0.14799   0.69007   0.70799   0.00000  Uiso   1.00
H1626  H     0.18975   0.72313   0.97863   0.00000  Uiso   1.00
H1627  H     0.27703   0.76021   0.99396   0.00000  Uiso   1.00
H1628  H     0.32336   0.76368   0.73879   0.00000  Uiso   1.00
H1629  H     0.28169   0.73175   0.80226   0.00000  Uiso   1.00
C1630  C     0.12165   0.95792   0.90693   0.00000  Uiso   1.00
C1631  C     0.07219   0.93671   0.89834   0.00000  Uiso   1.00
C1632  C     0.04845   0.91850   0.93405   0.00000  Uiso   1.00
C1633  C     0.07413   0.92088   0.97831   0.00000  Uiso   1.00
C1634  C     0.12325   0.94199   0.98709   0.00000  Uiso   1.00
C1635  C     0.14687   0.96066   0.95161   0.00000  Uiso   1.00
H1636  H     0.05192   0.93466   0.86417   0.00000  Uiso   1.00
H1637  H     0.00997   0.90280   0.92754   0.00000  Uiso   1.00
H1638  H     0.05587   0.90656   0.67250   0.00000  Uiso   1.00
H1639  H     0.14298   0.94388   0.68807   0.00000  Uiso   1.00
H1640  H     0.18490   0.97700   0.95881   0.00000  Uiso   1.00
S1641  S     0.25537   0.89148   0.71890   0.00000  Uiso   1.00
O1642  O     0.25436   0.90240   0.76736   0.00000  Uiso   1.00
O1643  O     0.30602   0.87138   0.71442   0.00000  Uiso   1.00
O1644  O     0.25508   0.93624   0.68907   0.00000  Uiso   1.00
H1645  H     0.28876   0.95137   0.70017   0.00000  Uiso   1.00
S1646  S     0.07763   0.77513   0.94775   0.00000  Uiso   1.00
O1647  O     0.07815   0.73518   0.97450   0.00000  Uiso   1.00
O1648  O     0.02743   0.79551   0.95321   0.00000  Uiso   1.00
O1649  O     0.07598   0.76210   0.89340   0.00000  Uiso   1.00
H1650  H     0.04258   0.74536   0.88594   0.00000  Uiso   1.00
C1651  C     0.50244   0.75354   0.83366   0.00000  Uiso   1.00
C1652  C     0.49765   0.91313   0.83301   0.00000  Uiso   1.00
C1653  C     0.40059   0.83299   0.82168   0.00000  Uiso   1.00
C1654  C     0.59941   0.83367   0.84498   0.00000  Uiso   1.00
C1655  C     0.34568   0.83114   0.81548   0.00000  Uiso   1.00
C1656  C     0.65431   0.83535   0.85121   0.00000  Uiso   1.00
C1657  C     0.52047   0.68812   0.79720   0.00000  Uiso   1.00
C1658  C     0.47967   0.97855   0.86949   0.00000  Uiso   1.00
C1659  C     0.51481   0.97879   0.79678   0.00000  Uiso   1.00
C1660  C     0.48550   0.68787   0.86998   0.00000  Uiso   1.00
C1661  C     0.49573   0.95733   0.83280   0.00000  Uiso   1.00
C1662  C     0.50444   0.70934   0.83390   0.00000  Uiso   1.00
C1663  C     0.53630   0.85801   0.69279   0.00000  Uiso   1.00
C1664  C     0.46368   0.80860   0.97381   0.00000  Uiso   1.00
C1665  C     0.53565   0.85734   0.97863   0.00000  Uiso   1.00
C1666  C     0.46432   0.80936   0.68802   0.00000  Uiso   1.00
H1667  H     0.65894   0.82573   0.78166   0.00000  Uiso   1.00
H1668  H     0.34106   0.84065   0.88506   0.00000  Uiso   1.00
H1669  H     0.52731   0.96239   0.76879   0.00000  Uiso   1.00
H1670  H     0.47319   0.70426   0.89806   0.00000  Uiso   1.00
H1671  H     0.56407   0.87617   0.96232   0.00000  Uiso   1.00
H1672  H     0.43586   0.79063   0.70439   0.00000  Uiso   1.00
N1673  N     0.49999   0.83332   0.95240   0.00000  Uiso   1.00
N1674  N     0.50001   0.83334   0.71427   0.00000  Uiso   1.00
O1675  O     0.50000   0.77225   0.87154   0.00000  Uiso   1.00
O1676  O     0.50000   0.89442   0.79513   0.00000  Uiso   1.00
O1677  O     0.50000   0.77226   0.79510   0.00000  Uiso   1.00
O1678  O     0.50000   0.89441   0.87157   0.00000  Uiso   1.00
O1679  O     0.42392   0.83333   0.86261   0.00000  Uiso   1.00
O1680  O     0.57608   0.83334   0.80405   0.00000  Uiso   1.00
O1681  O     0.42392   0.83334   0.78617   0.00000  Uiso   1.00
O1682  O     0.57608   0.83333   0.88050   0.00000  Uiso   1.00
Zn1683 Zn    0.50000   0.83333   0.88437   0.00000  Uiso   1.00
Zn1684 Zn    0.50000   0.83334   0.78229   0.00000  Uiso   1.00
C1685  C     0.54500   0.70877   0.75969   0.00000  Uiso   1.00
C1686  C     0.51950   0.70623   0.71510   0.00000  Uiso   1.00
C1687  C     0.54301   0.72489   0.67956   0.00000  Uiso   1.00
C1688  C     0.59223   0.74586   0.68820   0.00000  Uiso   1.00
C1689  C     0.61815   0.74808   0.73238   0.00000  Uiso   1.00
C1690  C     0.59456   0.72983   0.76815   0.00000  Uiso   1.00
H1691  H     0.48132   0.69007   0.70799   0.00000  Uiso   1.00
H1692  H     0.52309   0.72313   0.97863   0.00000  Uiso   1.00
H1693  H     0.61037   0.76021   0.99396   0.00000  Uiso   1.00
H1694  H     0.65670   0.76368   0.73879   0.00000  Uiso   1.00
H1695  H     0.61502   0.73175   0.80226   0.00000  Uiso   1.00
C1696  C     0.45498   0.95792   0.90693   0.00000  Uiso   1.00
C1697  C     0.40552   0.93671   0.89834   0.00000  Uiso   1.00
C1698  C     0.38178   0.91850   0.93405   0.00000  Uiso   1.00
C1699  C     0.40746   0.92088   0.97831   0.00000  Uiso   1.00
C1700  C     0.45658   0.94199   0.98709   0.00000  Uiso   1.00
C1701  C     0.48020   0.96066   0.95161   0.00000  Uiso   1.00
H1702  H     0.38525   0.93466   0.86417   0.00000  Uiso   1.00
H1703  H     0.34331   0.90280   0.92754   0.00000  Uiso   1.00
H1704  H     0.38920   0.90656   0.67250   0.00000  Uiso   1.00
H1705  H     0.47631   0.94388   0.68807   0.00000  Uiso   1.00
H1706  H     0.51824   0.97700   0.95881   0.00000  Uiso   1.00
S1707  S     0.58870   0.89148   0.71890   0.00000  Uiso   1.00
O1708  O     0.58770   0.90240   0.76736   0.00000  Uiso   1.00
O1709  O     0.63935   0.87138   0.71442   0.00000  Uiso   1.00
O1710  O     0.58841   0.93624   0.68907   0.00000  Uiso   1.00
H1711  H     0.62210   0.95137   0.70017   0.00000  Uiso   1.00
S1712  S     0.41096   0.77513   0.94775   0.00000  Uiso   1.00
O1713  O     0.41148   0.73518   0.97450   0.00000  Uiso   1.00
O1714  O     0.36076   0.79551   0.95321   0.00000  Uiso   1.00
O1715  O     0.40931   0.76210   0.89340   0.00000  Uiso   1.00
H1716  H     0.37591   0.74536   0.88594   0.00000  Uiso   1.00
C1717  C     0.83577   0.75354   0.83366   0.00000  Uiso   1.00
C1718  C     0.83098   0.91313   0.83301   0.00000  Uiso   1.00
C1719  C     0.73393   0.83299   0.82168   0.00000  Uiso   1.00
C1720  C     0.93274   0.83367   0.84498   0.00000  Uiso   1.00
C1721  C     0.67902   0.83114   0.81548   0.00000  Uiso   1.00
C1722  C     0.98765   0.83535   0.85121   0.00000  Uiso   1.00
C1723  C     0.85381   0.68812   0.79720   0.00000  Uiso   1.00
C1724  C     0.81300   0.97855   0.86949   0.00000  Uiso   1.00
C1725  C     0.84815   0.97879   0.79678   0.00000  Uiso   1.00
C1726  C     0.81883   0.68787   0.86998   0.00000  Uiso   1.00
C1727  C     0.82907   0.95733   0.83280   0.00000  Uiso   1.00
C1728  C     0.83777   0.70934   0.83390   0.00000  Uiso   1.00
C1729  C     0.86963   0.85801   0.69279   0.00000  Uiso   1.00
C1730  C     0.79702   0.80860   0.97381   0.00000  Uiso   1.00
C1731  C     0.86898   0.85734   0.97863   0.00000  Uiso   1.00
C1732  C     0.79765   0.80936   0.68802   0.00000  Uiso   1.00
H1733  H     0.99227   0.82573   0.78166   0.00000  Uiso   1.00
H1734  H     0.67439   0.84065   0.88506   0.00000  Uiso   1.00
H1735  H     0.86064   0.96239   0.76879   0.00000  Uiso   1.00
H1736  H     0.80653   0.70426   0.89806   0.00000  Uiso   1.00
H1737  H     0.89740   0.87617   0.96232   0.00000  Uiso   1.00
H1738  H     0.76919   0.79063   0.70439   0.00000  Uiso   1.00
N1739  N     0.83332   0.83332   0.95240   0.00000  Uiso   1.00
N1740  N     0.83335   0.83334   0.71427   0.00000  Uiso   1.00
O1741  O     0.83333   0.77225   0.87154   0.00000  Uiso   1.00
O1742  O     0.83334   0.89442   0.79513   0.00000  Uiso   1.00
O1743  O     0.83333   0.77226   0.79510   0.00000  Uiso   1.00
O1744  O     0.83334   0.89441   0.87157   0.00000  Uiso   1.00
O1745  O     0.75725   0.83333   0.86261   0.00000  Uiso   1.00
O1746  O     0.90942   0.83334   0.80405   0.00000  Uiso   1.00
O1747  O     0.75725   0.83334   0.78617   0.00000  Uiso   1.00
O1748  O     0.90942   0.83333   0.88050   0.00000  Uiso   1.00
Zn1749 Zn    0.83333   0.83333   0.88437   0.00000  Uiso   1.00
Zn1750 Zn    0.83333   0.83334   0.78229   0.00000  Uiso   1.00
C1751  C     0.87833   0.70877   0.75969   0.00000  Uiso   1.00
C1752  C     0.85283   0.70623   0.71510   0.00000  Uiso   1.00
C1753  C     0.87634   0.72489   0.67956   0.00000  Uiso   1.00
C1754  C     0.92557   0.74586   0.68820   0.00000  Uiso   1.00
C1755  C     0.95148   0.74808   0.73238   0.00000  Uiso   1.00
C1756  C     0.92790   0.72983   0.76815   0.00000  Uiso   1.00
H1757  H     0.81466   0.69007   0.70799   0.00000  Uiso   1.00
H1758  H     0.85642   0.72313   0.97863   0.00000  Uiso   1.00
H1759  H     0.94370   0.76021   0.99396   0.00000  Uiso   1.00
H1760  H     0.99003   0.76368   0.73879   0.00000  Uiso   1.00
H1761  H     0.94836   0.73175   0.80226   0.00000  Uiso   1.00
C1762  C     0.78832   0.95792   0.90693   0.00000  Uiso   1.00
C1763  C     0.73886   0.93671   0.89834   0.00000  Uiso   1.00
C1764  C     0.71512   0.91850   0.93405   0.00000  Uiso   1.00
C1765  C     0.74079   0.92088   0.97831   0.00000  Uiso   1.00
C1766  C     0.78991   0.94199   0.98709   0.00000  Uiso   1.00
C1767  C     0.81353   0.96066   0.95161   0.00000  Uiso   1.00
H1768  H     0.71859   0.93466   0.86417   0.00000  Uiso   1.00
H1769  H     0.67664   0.90280   0.92754   0.00000  Uiso   1.00
H1770  H     0.72254   0.90656   0.67250   0.00000  Uiso   1.00
H1771  H     0.80965   0.94388   0.68807   0.00000  Uiso   1.00
H1772  H     0.85157   0.97700   0.95881   0.00000  Uiso   1.00
S1773  S     0.92204   0.89148   0.71890   0.00000  Uiso   1.00
O1774  O     0.92103   0.90240   0.76736   0.00000  Uiso   1.00
O1775  O     0.97268   0.87138   0.71442   0.00000  Uiso   1.00
O1776  O     0.92174   0.93624   0.68907   0.00000  Uiso   1.00
H1777  H     0.95543   0.95137   0.70017   0.00000  Uiso   1.00
S1778  S     0.74430   0.77513   0.94775   0.00000  Uiso   1.00
O1779  O     0.74482   0.73518   0.97450   0.00000  Uiso   1.00
O1780  O     0.69410   0.79551   0.95321   0.00000  Uiso   1.00
O1781  O     0.74265   0.76210   0.89340   0.00000  Uiso   1.00
H1782  H     0.70925   0.74536   0.88594   0.00000  Uiso   1.00
loop_
_geom_bond_atom_site_label_1
_geom_bond_atom_site_label_2
_geom_bond_distance
_geom_bond_site_symmetry_2
_ccdc_geom_bond_type
C1     O27     1.286   .     A
C1     O25     1.295   .     A
C1     C12     1.426   .     S
C2     C11     1.426   .     S
C2     O26     1.295   .     A
C2     O28     1.286   .     A
C3     O31     1.280   .     A
C3     O29     1.287   .     A
C3     C5      1.395   .     S
C4     O30     1.287   .     A
C4     O32     1.280   .     A
C4     C6      1.395   .     S
C5     C138    1.318   1_455 S
C5     H149    1.083   1_455 S
C6     C71     1.318   .     S
C6     H84     1.083   .     S
C7     C12     1.411   .     A
C7     C35     1.484   .     S
C7     C405    1.373   1_545 S
C8     C11     1.411   .     A
C8     C46     1.485   .     S
C8     C208    1.373   .     S
C9     C11     1.396   .     A
C9     H19     1.083   .     S
C9     C205    1.373   .     S
C10    C12     1.396   .     A
C10    H20     1.083   .     S
C10    C404    1.373   1_545 S
C13    S57     1.783   .     S
C13    N24     1.403   .     A
C13    C1203   1.413   1_554 S
C14    N23     1.404   .     A
C14    S62     1.788   .     S
C14    C610    1.414   .     S
C15    N23     1.344   .     A
C15    H21     1.083   .     S
C15    C607    1.413   .     S
C16    N24     1.344   .     A
C16    H22     1.083   .     S
C16    C1202   1.414   1_554 S
H17    C71     1.083   .     S
H18    C138    1.083   1_455 S
N23    Zn33    2.026   .     S
N24    Zn34    2.026   .     S
O25    Zn33    2.007   .     S
O26    Zn34    2.007   .     S
O27    Zn34    1.998   .     S
O28    Zn33    1.998   .     S
O29    Zn33    1.977   .     S
O30    Zn34    1.977   .     S
O31    Zn34    1.970   .     S
O32    Zn33    1.970   .     S
C35    C40     1.405   .     A
C35    C36     1.405   .     A
C36    H41     1.083   .     S
C36    C37     1.398   .     A
C37    C38     1.397   .     A
C37    H1230   1.082   1_554 S
C38    C39     1.397   .     A
C38    H1231   1.082   1_554 S
C39    H44     1.082   .     S
C39    C40     1.399   .     A
C40    H45     1.083   .     S
H42    C631    1.082   .     S
H43    C632    1.082   .     S
C46    C47     1.405   .     A
C46    C51     1.405   .     A
C47    H52     1.083   .     S
C47    C48     1.400   .     A
C48    H53     1.082   .     S
C48    C49     1.397   .     A
C49    C50     1.397   .     A
C49    H648    1.082   .     S
C50    C51     1.398   .     A
C50    H649    1.082   .     S
C51    H56     1.083   .     S
H54    C1237   1.082   1_554 S
H55    C1238   1.082   1_554 S
S57    O58     1.493   .     D
S57    O59     1.502   .     D
S57    O60     1.683   .     S
O60    H61     0.991   .     S
S62    O64     1.502   .     D
S62    O63     1.504   .     D
S62    O65     1.672   .     S
O65    H66     0.990   .     S
C67    O93     1.286   .     A
C67    O91     1.295   .     A
C67    C78     1.426   .     S
C68    C77     1.426   .     S
C68    O92     1.295   .     A
C68    O94     1.286   .     A
C69    O97     1.280   .     A
C69    O95     1.287   .     A
C69    C71     1.395   .     S
C70    O96     1.287   .     A
C70    O98     1.280   .     A
C70    C72     1.395   .     S
C72    C137    1.318   .     S
C72    H150    1.083   .     S
C73    C78     1.411   .     A
C73    C101    1.484   .     S
C73    C471    1.373   1_545 S
C74    C77     1.411   .     A
C74    C112    1.485   .     S
C74    C274    1.373   .     S
C75    C77     1.396   .     A
C75    H85     1.083   .     S
C75    C271    1.373   .     S
C76    C78     1.396   .     A
C76    H86     1.083   .     S
C76    C470    1.373   1_545 S
C79    S123    1.783   .     S
C79    N90     1.403   .     A
C79    C1269   1.413   1_554 S
C80    N89     1.404   .     A
C80    S128    1.788   .     S
C80    C676    1.414   .     S
C81    N89     1.344   .     A
C81    H87     1.083   .     S
C81    C673    1.413   .     S
C82    N90     1.344   .     A
C82    H88     1.083   .     S
C82    C1268   1.414   1_554 S
H83    C137    1.083   .     S
N89    Zn99    2.026   .     S
N90    Zn100   2.026   .     S
O91    Zn99    2.007   .     S
O92    Zn100   2.007   .     S
O93    Zn100   1.998   .     S
O94    Zn99    1.998   .     S
O95    Zn99    1.977   .     S
O96    Zn100   1.977   .     S
O97    Zn100   1.970   .     S
O98    Zn99    1.970   .     S
C101   C106    1.405   .     A
C101   C102    1.405   .     A
C102   H107    1.083   .     S
C102   C103    1.398   .     A
C103   C104    1.397   .     A
C103   H1296   1.082   1_554 S
C104   C105    1.397   .     A
C104   H1297   1.082   1_554 S
C105   H110    1.082   .     S
C105   C106    1.399   .     A
C106   H111    1.083   .     S
H108   C697    1.082   .     S
H109   C698    1.082   .     S
C112   C113    1.405   .     A
C112   C117    1.405   .     A
C113   H118    1.083   .     S
C113   C114    1.400   .     A
C114   H119    1.082   .     S
C114   C115    1.397   .     A
C115   C116    1.397   .     A
C115   H714    1.082   .     S
C116   C117    1.398   .     A
C116   H715    1.082   .     S
C117   H122    1.083   .     S
H120   C1303   1.082   1_554 S
H121   C1304   1.082   1_554 S
S123   O124    1.493   .     D
S123   O125    1.502   .     D
S123   O126    1.683   .     S
O126   H127    0.991   .     S
S128   O130    1.502   .     D
S128   O129    1.504   .     D
S128   O131    1.672   .     S
O131   H132    0.990   .     S
C133   O159    1.286   .     A
C133   O157    1.295   .     A
C133   C144    1.426   .     S
C134   C143    1.426   .     S
C134   O158    1.295   .     A
C134   O160    1.286   .     A
C135   O163    1.280   .     A
C135   O161    1.287   .     A
C135   C137    1.395   .     S
C136   O162    1.287   .     A
C136   O164    1.280   .     A
C136   C138    1.395   .     S
C138   C5      1.318   1_655 S
C138   H18     1.083   1_655 S
C139   C144    1.411   .     A
C139   C167    1.484   .     S
C139   C537    1.373   1_545 S
C140   C143    1.411   .     A
C140   C178    1.485   .     S
C140   C340    1.373   .     S
C141   C143    1.396   .     A
C141   H151    1.083   .     S
C141   C337    1.373   .     S
C142   C144    1.396   .     A
C142   H152    1.083   .     S
C142   C536    1.373   1_545 S
C145   S189    1.783   .     S
C145   N156    1.403   .     A
C145   C1335   1.413   1_554 S
C146   N155    1.404   .     A
C146   S194    1.788   .     S
C146   C742    1.414   .     S
C147   N155    1.344   .     A
C147   H153    1.083   .     S
C147   C739    1.413   .     S
C148   N156    1.344   .     A
C148   H154    1.083   .     S
C148   C1334   1.414   1_554 S
H149   C5      1.083   1_655 S
N155   Zn165   2.026   .     S
N156   Zn166   2.026   .     S
O157   Zn165   2.007   .     S
O158   Zn166   2.007   .     S
O159   Zn166   1.998   .     S
O160   Zn165   1.998   .     S
O161   Zn165   1.977   .     S
O162   Zn166   1.977   .     S
O163   Zn166   1.970   .     S
O164   Zn165   1.970   .     S
C167   C172    1.405   .     A
C167   C168    1.405   .     A
C168   H173    1.083   .     S
C168   C169    1.398   .     A
C169   C170    1.397   .     A
C169   H1362   1.082   1_554 S
C170   C171    1.397   .     A
C170   H1363   1.082   1_554 S
C171   H176    1.082   .     S
C171   C172    1.399   .     A
C172   H177    1.083   .     S
H174   C763    1.082   .     S
H175   C764    1.082   .     S
C178   C179    1.405   .     A
C178   C183    1.405   .     A
C179   H184    1.083   .     S
C179   C180    1.400   .     A
C180   H185    1.082   .     S
C180   C181    1.397   .     A
C181   C182    1.397   .     A
C181   H780    1.082   .     S
C182   C183    1.398   .     A
C182   H781    1.082   .     S
C183   H188    1.083   .     S
H186   C1369   1.082   1_554 S
H187   C1370   1.082   1_554 S
S189   O190    1.493   .     D
S189   O191    1.502   .     D
S189   O192    1.683   .     S
O192   H193    0.991   .     S
S194   O196    1.502   .     D
S194   O195    1.504   .     D
S194   O197    1.672   .     S
O197   H198    0.990   .     S
C199   O225    1.286   .     A
C199   O223    1.295   .     A
C199   C210    1.426   .     S
C200   C209    1.426   .     S
C200   O224    1.295   .     A
C200   O226    1.286   .     A
C201   O229    1.280   .     A
C201   O227    1.287   .     A
C201   C203    1.395   .     S
C202   O228    1.287   .     A
C202   O230    1.280   .     A
C202   C204    1.395   .     S
C203   C336    1.318   1_455 S
C203   H347    1.083   1_455 S
C204   C269    1.318   .     S
C204   H282    1.083   .     S
C205   C210    1.411   .     A
C205   C233    1.484   .     S
C206   C209    1.411   .     A
C206   C244    1.485   .     S
C206   C406    1.373   .     S
C207   C209    1.396   .     A
C207   H217    1.083   .     S
C207   C403    1.373   .     S
C208   C210    1.396   .     A
C208   H218    1.083   .     S
C211   S255    1.783   .     S
C211   N222    1.403   .     A
C211   C1401   1.413   1_554 S
C212   N221    1.404   .     A
C212   S260    1.788   .     S
C212   C808    1.414   .     S
C213   N221    1.344   .     A
C213   H219    1.083   .     S
C213   C805    1.413   .     S
C214   N222    1.344   .     A
C214   H220    1.083   .     S
C214   C1400   1.414   1_554 S
H215   C269    1.083   .     S
H216   C336    1.083   1_455 S
N221   Zn231   2.026   .     S
N222   Zn232   2.026   .     S
O223   Zn231   2.007   .     S
O224   Zn232   2.007   .     S
O225   Zn232   1.998   .     S
O226   Zn231   1.998   .     S
O227   Zn231   1.977   .     S
O228   Zn232   1.977   .     S
O229   Zn232   1.970   .     S
O230   Zn231   1.970   .     S
C233   C238    1.405   .     A
C233   C234    1.405   .     A
C234   H239    1.083   .     S
C234   C235    1.398   .     A
C235   C236    1.397   .     A
C235   H1428   1.082   1_554 S
C236   C237    1.397   .     A
C236   H1429   1.082   1_554 S
C237   H242    1.082   .     S
C237   C238    1.399   .     A
C238   H243    1.083   .     S
H240   C829    1.082   .     S
H241   C830    1.082   .     S
C244   C245    1.405   .     A
C244   C249    1.405   .     A
C245   H250    1.083   .     S
C245   C246    1.400   .     A
C246   H251    1.082   .     S
C246   C247    1.397   .     A
C247   C248    1.397   .     A
C247   H846    1.082   .     S
C248   C249    1.398   .     A
C248   H847    1.082   .     S
C249   H254    1.083   .     S
H252   C1435   1.082   1_554 S
H253   C1436   1.082   1_554 S
S255   O256    1.493   .     D
S255   O257    1.502   .     D
S255   O258    1.683   .     S
O258   H259    0.991   .     S
S260   O262    1.502   .     D
S260   O261    1.504   .     D
S260   O263    1.672   .     S
O263   H264    0.990   .     S
C265   O291    1.286   .     A
C265   O289    1.295   .     A
C265   C276    1.426   .     S
C266   C275    1.426   .     S
C266   O290    1.295   .     A
C266   O292    1.286   .     A
C267   O295    1.280   .     A
C267   O293    1.287   .     A
C267   C269    1.395   .     S
C268   O294    1.287   .     A
C268   O296    1.280   .     A
C268   C270    1.395   .     S
C270   C335    1.318   .     S
C270   H348    1.083   .     S
C271   C276    1.411   .     A
C271   C299    1.484   .     S
C272   C275    1.411   .     A
C272   C310    1.485   .     S
C272   C472    1.373   .     S
C273   C275    1.396   .     A
C273   H283    1.083   .     S
C273   C469    1.373   .     S
C274   C276    1.396   .     A
C274   H284    1.083   .     S
C277   S321    1.783   .     S
C277   N288    1.403   .     A
C277   C1467   1.413   1_554 S
C278   N287    1.404   .     A
C278   S326    1.788   .     S
C278   C874    1.414   .     S
C279   N287    1.344   .     A
C279   H285    1.083   .     S
C279   C871    1.413   .     S
C280   N288    1.344   .     A
C280   H286    1.083   .     S
C280   C1466   1.414   1_554 S
H281   C335    1.083   .     S
N287   Zn297   2.026   .     S
N288   Zn298   2.026   .     S
O289   Zn297   2.007   .     S
O290   Zn298   2.007   .     S
O291   Zn298   1.998   .     S
O292   Zn297   1.998   .     S
O293   Zn297   1.977   .     S
O294   Zn298   1.977   .     S
O295   Zn298   1.970   .     S
O296   Zn297   1.970   .     S
C299   C304    1.405   .     A
C299   C300    1.405   .     A
C300   H305    1.083   .     S
C300   C301    1.398   .     A
C301   C302    1.397   .     A
C301   H1494   1.082   1_554 S
C302   C303    1.397   .     A
C302   H1495   1.082   1_554 S
C303   H308    1.082   .     S
C303   C304    1.399   .     A
C304   H309    1.083   .     S
H306   C895    1.082   .     S
H307   C896    1.082   .     S
C310   C311    1.405   .     A
C310   C315    1.405   .     A
C311   H316    1.083   .     S
C311   C312    1.400   .     A
C312   H317    1.082   .     S
C312   C313    1.397   .     A
C313   C314    1.397   .     A
C313   H912    1.082   .     S
C314   C315    1.398   .     A
C314   H913    1.082   .     S
C315   H320    1.083   .     S
H318   C1501   1.082   1_554 S
H319   C1502   1.082   1_554 S
S321   O322    1.493   .     D
S321   O323    1.502   .     D
S321   O324    1.683   .     S
O324   H325    0.991   .     S
S326   O328    1.502   .     D
S326   O327    1.504   .     D
S326   O329    1.672   .     S
O329   H330    0.990   .     S
C331   O357    1.286   .     A
C331   O355    1.295   .     A
C331   C342    1.426   .     S
C332   C341    1.426   .     S
C332   O356    1.295   .     A
C332   O358    1.286   .     A
C333   O361    1.280   .     A
C333   O359    1.287   .     A
C333   C335    1.395   .     S
C334   O360    1.287   .     A
C334   O362    1.280   .     A
C334   C336    1.395   .     S
C336   C203    1.318   1_655 S
C336   H216    1.083   1_655 S
C337   C342    1.411   .     A
C337   C365    1.484   .     S
C338   C341    1.411   .     A
C338   C376    1.485   .     S
C338   C538    1.373   .     S
C339   C341    1.396   .     A
C339   H349    1.083   .     S
C339   C535    1.373   .     S
C340   C342    1.396   .     A
C340   H350    1.083   .     S
C343   S387    1.783   .     S
C343   N354    1.403   .     A
C343   C1533   1.413   1_554 S
C344   N353    1.404   .     A
C344   S392    1.788   .     S
C344   C940    1.414   .     S
C345   N353    1.344   .     A
C345   H351    1.083   .     S
C345   C937    1.413   .     S
C346   N354    1.344   .     A
C346   H352    1.083   .     S
C346   C1532   1.414   1_554 S
H347   C203    1.083   1_655 S
N353   Zn363   2.026   .     S
N354   Zn364   2.026   .     S
O355   Zn363   2.007   .     S
O356   Zn364   2.007   .     S
O357   Zn364   1.998   .     S
O358   Zn363   1.998   .     S
O359   Zn363   1.977   .     S
O360   Zn364   1.977   .     S
O361   Zn364   1.970   .     S
O362   Zn363   1.970   .     S
C365   C370    1.405   .     A
C365   C366    1.405   .     A
C366   H371    1.083   .     S
C366   C367    1.398   .     A
C367   C368    1.397   .     A
C367   H1560   1.082   1_554 S
C368   C369    1.397   .     A
C368   H1561   1.082   1_554 S
C369   H374    1.082   .     S
C369   C370    1.399   .     A
C370   H375    1.083   .     S
H372   C961    1.082   .     S
H373   C962    1.082   .     S
C376   C377    1.405   .     A
C376   C381    1.405   .     A
C377   H382    1.083   .     S
C377   C378    1.400   .     A
C378   H383    1.082   .     S
C378   C379    1.397   .     A
C379   C380    1.397   .     A
C379   H978    1.082   .     S
C380   C381    1.398   .     A
C380   H979    1.082   .     S
C381   H386    1.083   .     S
H384   C1567   1.082   1_554 S
H385   C1568   1.082   1_554 S
S387   O388    1.493   .     D
S387   O389    1.502   .     D
S387   O390    1.683   .     S
O390   H391    0.991   .     S
S392   O394    1.502   .     D
S392   O393    1.504   .     D
S392   O395    1.672   .     S
O395   H396    0.990   .     S
C397   O423    1.286   .     A
C397   O421    1.295   .     A
C397   C408    1.426   .     S
C398   C407    1.426   .     S
C398   O422    1.295   .     A
C398   O424    1.286   .     A
C399   O427    1.280   .     A
C399   O425    1.287   .     A
C399   C401    1.395   .     S
C400   O426    1.287   .     A
C400   O428    1.280   .     A
C400   C402    1.395   .     S
C401   C534    1.318   1_455 S
C401   H545    1.083   1_455 S
C402   C467    1.318   .     S
C402   H480    1.083   .     S
C403   C408    1.411   .     A
C403   C431    1.484   .     S
C404   C407    1.411   .     A
C404   C442    1.485   .     S
C404   C10     1.373   1_565 S
C405   C407    1.396   .     A
C405   H415    1.083   .     S
C405   C7      1.373   1_565 S
C406   C408    1.396   .     A
C406   H416    1.083   .     S
C409   S453    1.783   .     S
C409   N420    1.403   .     A
C409   C1599   1.413   1_554 S
C410   N419    1.404   .     A
C410   S458    1.788   .     S
C410   C1006   1.414   .     S
C411   N419    1.344   .     A
C411   H417    1.083   .     S
C411   C1003   1.413   .     S
C412   N420    1.344   .     A
C412   H418    1.083   .     S
C412   C1598   1.414   1_554 S
H413   C467    1.083   .     S
H414   C534    1.083   1_455 S
N419   Zn429   2.026   .     S
N420   Zn430   2.026   .     S
O421   Zn429   2.007   .     S
O422   Zn430   2.007   .     S
O423   Zn430   1.998   .     S
O424   Zn429   1.998   .     S
O425   Zn429   1.977   .     S
O426   Zn430   1.977   .     S
O427   Zn430   1.970   .     S
O428   Zn429   1.970   .     S
C431   C436    1.405   .     A
C431   C432    1.405   .     A
C432   H437    1.083   .     S
C432   C433    1.398   .     A
C433   C434    1.397   .     A
C433   H1626   1.082   1_554 S
C434   C435    1.397   .     A
C434   H1627   1.082   1_554 S
C435   H440    1.082   .     S
C435   C436    1.399   .     A
C436   H441    1.083   .     S
H438   C1027   1.082   .     S
H439   C1028   1.082   .     S
C442   C443    1.405   .     A
C442   C447    1.405   .     A
C443   H448    1.083   .     S
C443   C444    1.400   .     A
C444   H449    1.082   .     S
C444   C445    1.397   .     A
C445   C446    1.397   .     A
C445   H1044   1.082   .     S
C446   C447    1.398   .     A
C446   H1045   1.082   .     S
C447   H452    1.083   .     S
H450   C1633   1.082   1_554 S
H451   C1634   1.082   1_554 S
S453   O454    1.493   .     D
S453   O455    1.502   .     D
S453   O456    1.683   .     S
O456   H457    0.991   .     S
S458   O460    1.502   .     D
S458   O459    1.504   .     D
S458   O461    1.672   .     S
O461   H462    0.990   .     S
C463   O489    1.286   .     A
C463   O487    1.295   .     A
C463   C474    1.426   .     S
C464   C473    1.426   .     S
C464   O488    1.295   .     A
C464   O490    1.286   .     A
C465   O493    1.280   .     A
C465   O491    1.287   .     A
C465   C467    1.395   .     S
C466   O492    1.287   .     A
C466   O494    1.280   .     A
C466   C468    1.395   .     S
C468   C533    1.318   .     S
C468   H546    1.083   .     S
C469   C474    1.411   .     A
C469   C497    1.484   .     S
C470   C473    1.411   .     A
C470   C508    1.485   .     S
C470   C76     1.373   1_565 S
C471   C473    1.396   .     A
C471   H481    1.083   .     S
C471   C73     1.373   1_565 S
C472   C474    1.396   .     A
C472   H482    1.083   .     S
C475   S519    1.783   .     S
C475   N486    1.403   .     A
C475   C1665   1.413   1_554 S
C476   N485    1.404   .     A
C476   S524    1.788   .     S
C476   C1072   1.414   .     S
C477   N485    1.344   .     A
C477   H483    1.083   .     S
C477   C1069   1.413   .     S
C478   N486    1.344   .     A
C478   H484    1.083   .     S
C478   C1664   1.414   1_554 S
H479   C533    1.083   .     S
N485   Zn495   2.026   .     S
N486   Zn496   2.026   .     S
O487   Zn495   2.007   .     S
O488   Zn496   2.007   .     S
O489   Zn496   1.998   .     S
O490   Zn495   1.998   .     S
O491   Zn495   1.977   .     S
O492   Zn496   1.977   .     S
O493   Zn496   1.970   .     S
O494   Zn495   1.970   .     S
C497   C502    1.405   .     A
C497   C498    1.405   .     A
C498   H503    1.083   .     S
C498   C499    1.398   .     A
C499   C500    1.397   .     A
C499   H1692   1.082   1_554 S
C500   C501    1.397   .     A
C500   H1693   1.082   1_554 S
C501   H506    1.082   .     S
C501   C502    1.399   .     A
C502   H507    1.083   .     S
H504   C1093   1.082   .     S
H505   C1094   1.082   .     S
C508   C509    1.405   .     A
C508   C513    1.405   .     A
C509   H514    1.083   .     S
C509   C510    1.400   .     A
C510   H515    1.082   .     S
C510   C511    1.397   .     A
C511   C512    1.397   .     A
C511   H1110   1.082   .     S
C512   C513    1.398   .     A
C512   H1111   1.082   .     S
C513   H518    1.083   .     S
H516   C1699   1.082   1_554 S
H517   C1700   1.082   1_554 S
S519   O520    1.493   .     D
S519   O521    1.502   .     D
S519   O522    1.683   .     S
O522   H523    0.991   .     S
S524   O526    1.502   .     D
S524   O525    1.504   .     D
S524   O527    1.672   .     S
O527   H528    0.990   .     S
C529   O555    1.286   .     A
C529   O553    1.295   .     A
C529   C540    1.426   .     S
C530   C539    1.426   .     S
C530   O554    1.295   .     A
C530   O556    1.286   .     A
C531   O559    1.280   .     A
C531   O557    1.287   .     A
C531   C533    1.395   .     S
C532   O558    1.287   .     A
C532   O560    1.280   .     A
C532   C534    1.395   .     S
C534   C401    1.318   1_655 S
C534   H414    1.083   1_655 S
C535   C540    1.411   .     A
C535   C563    1.484   .     S
C536   C539    1.411   .     A
C536   C574    1.485   .     S
C536   C142    1.373   1_565 S
C537   C539    1.396   .     A
C537   H547    1.083   .     S
C537   C139    1.373   1_565 S
C538   C540    1.396   .     A
C538   H548    1.083   .     S
C541   S585    1.783   .     S
C541   N552    1.403   .     A
C541   C1731   1.413   1_554 S
C542   N551    1.404   .     A
C542   S590    1.788   .     S
C542   C1138   1.414   .     S
C543   N551    1.344   .     A
C543   H549    1.083   .     S
C543   C1135   1.413   .     S
C544   N552    1.344   .     A
C544   H550    1.083   .     S
C544   C1730   1.414   1_554 S
H545   C401    1.083   1_655 S
N551   Zn561   2.026   .     S
N552   Zn562   2.026   .     S
O553   Zn561   2.007   .     S
O554   Zn562   2.007   .     S
O555   Zn562   1.998   .     S
O556   Zn561   1.998   .     S
O557   Zn561   1.977   .     S
O558   Zn562   1.977   .     S
O559   Zn562   1.970   .     S
O560   Zn561   1.970   .     S
C563   C568    1.405   .     A
C563   C564    1.405   .     A
C564   H569    1.083   .     S
C564   C565    1.398   .     A
C565   C566    1.397   .     A
C565   H1758   1.082   1_554 S
C566   C567    1.397   .     A
C566   H1759   1.082   1_554 S
C567   H572    1.082   .     S
C567   C568    1.399   .     A
C568   H573    1.083   .     S
H570   C1159   1.082   .     S
H571   C1160   1.082   .     S
C574   C575    1.405   .     A
C574   C579    1.405   .     A
C575   H580    1.083   .     S
C575   C576    1.400   .     A
C576   H581    1.082   .     S
C576   C577    1.397   .     A
C577   C578    1.397   .     A
C577   H1176   1.082   .     S
C578   C579    1.398   .     A
C578   H1177   1.082   .     S
C579   H584    1.083   .     S
H582   C1765   1.082   1_554 S
H583   C1766   1.082   1_554 S
S585   O586    1.493   .     D
S585   O587    1.502   .     D
S585   O588    1.683   .     S
O588   H589    0.991   .     S
S590   O592    1.502   .     D
S590   O591    1.504   .     D
S590   O593    1.672   .     S
O593   H594    0.990   .     S
C595   O621    1.286   .     A
C595   O619    1.295   .     A
C595   C606    1.426   .     S
C596   C605    1.426   .     S
C596   O620    1.295   .     A
C596   O622    1.286   .     A
C597   O625    1.280   .     A
C597   O623    1.287   .     A
C597   C599    1.395   .     S
C598   O624    1.287   .     A
C598   O626    1.280   .     A
C598   C600    1.395   .     S
C599   C732    1.318   1_455 S
C599   H743    1.083   1_455 S
C600   C665    1.318   .     S
C600   H678    1.083   .     S
C601   C606    1.411   .     A
C601   C629    1.484   .     S
C601   C999    1.373   1_545 S
C602   C605    1.411   .     A
C602   C640    1.485   .     S
C602   C802    1.373   .     S
C603   C605    1.396   .     A
C603   H613    1.083   .     S
C603   C799    1.373   .     S
C604   C606    1.396   .     A
C604   H614    1.083   .     S
C604   C998    1.373   1_545 S
C607   S651    1.783   .     S
C607   N618    1.403   .     A
C608   N617    1.404   .     A
C608   S656    1.788   .     S
C608   C1204   1.414   .     S
C609   N617    1.344   .     A
C609   H615    1.083   .     S
C609   C1201   1.413   .     S
C610   N618    1.344   .     A
C610   H616    1.083   .     S
H611   C665    1.083   .     S
H612   C732    1.083   1_455 S
N617   Zn627   2.026   .     S
N618   Zn628   2.026   .     S
O619   Zn627   2.007   .     S
O620   Zn628   2.007   .     S
O621   Zn628   1.998   .     S
O622   Zn627   1.998   .     S
O623   Zn627   1.977   .     S
O624   Zn628   1.977   .     S
O625   Zn628   1.970   .     S
O626   Zn627   1.970   .     S
C629   C634    1.405   .     A
C629   C630    1.405   .     A
C630   H635    1.083   .     S
C630   C631    1.398   .     A
C631   C632    1.397   .     A
C632   C633    1.397   .     A
C633   H638    1.082   .     S
C633   C634    1.399   .     A
C634   H639    1.083   .     S
H636   C1225   1.082   .     S
H637   C1226   1.082   .     S
C640   C641    1.405   .     A
C640   C645    1.405   .     A
C641   H646    1.083   .     S
C641   C642    1.400   .     A
C642   H647    1.082   .     S
C642   C643    1.397   .     A
C643   C644    1.397   .     A
C643   H1242   1.082   .     S
C644   C645    1.398   .     A
C644   H1243   1.082   .     S
C645   H650    1.083   .     S
S651   O652    1.493   .     D
S651   O653    1.502   .     D
S651   O654    1.683   .     S
O654   H655    0.991   .     S
S656   O658    1.502   .     D
S656   O657    1.504   .     D
S656   O659    1.672   .     S
O659   H660    0.990   .     S
C661   O687    1.286   .     A
C661   O685    1.295   .     A
C661   C672    1.426   .     S
C662   C671    1.426   .     S
C662   O686    1.295   .     A
C662   O688    1.286   .     A
C663   O691    1.280   .     A
C663   O689    1.287   .     A
C663   C665    1.395   .     S
C664   O690    1.287   .     A
C664   O692    1.280   .     A
C664   C666    1.395   .     S
C666   C731    1.318   .     S
C666   H744    1.083   .     S
C667   C672    1.411   .     A
C667   C695    1.484   .     S
C667   C1065   1.373   1_545 S
C668   C671    1.411   .     A
C668   C706    1.485   .     S
C668   C868    1.373   .     S
C669   C671    1.396   .     A
C669   H679    1.083   .     S
C669   C865    1.373   .     S
C670   C672    1.396   .     A
C670   H680    1.083   .     S
C670   C1064   1.373   1_545 S
C673   S717    1.783   .     S
C673   N684    1.403   .     A
C674   N683    1.404   .     A
C674   S722    1.788   .     S
C674   C1270   1.414   .     S
C675   N683    1.344   .     A
C675   H681    1.083   .     S
C675   C1267   1.413   .     S
C676   N684    1.344   .     A
C676   H682    1.083   .     S
H677   C731    1.083   .     S
N683   Zn693   2.026   .     S
N684   Zn694   2.026   .     S
O685   Zn693   2.007   .     S
O686   Zn694   2.007   .     S
O687   Zn694   1.998   .     S
O688   Zn693   1.998   .     S
O689   Zn693   1.977   .     S
O690   Zn694   1.977   .     S
O691   Zn694   1.970   .     S
O692   Zn693   1.970   .     S
C695   C700    1.405   .     A
C695   C696    1.405   .     A
C696   H701    1.083   .     S
C696   C697    1.398   .     A
C697   C698    1.397   .     A
C698   C699    1.397   .     A
C699   H704    1.082   .     S
C699   C700    1.399   .     A
C700   H705    1.083   .     S
H702   C1291   1.082   .     S
H703   C1292   1.082   .     S
C706   C707    1.405   .     A
C706   C711    1.405   .     A
C707   H712    1.083   .     S
C707   C708    1.400   .     A
C708   H713    1.082   .     S
C708   C709    1.397   .     A
C709   C710    1.397   .     A
C709   H1308   1.082   .     S
C710   C711    1.398   .     A
C710   H1309   1.082   .     S
C711   H716    1.083   .     S
S717   O718    1.493   .     D
S717   O719    1.502   .     D
S717   O720    1.683   .     S
O720   H721    0.991   .     S
S722   O724    1.502   .     D
S722   O723    1.504   .     D
S722   O725    1.672   .     S
O725   H726    0.990   .     S
C727   O753    1.286   .     A
C727   O751    1.295   .     A
C727   C738    1.426   .     S
C728   C737    1.426   .     S
C728   O752    1.295   .     A
C728   O754    1.286   .     A
C729   O757    1.280   .     A
C729   O755    1.287   .     A
C729   C731    1.395   .     S
C730   O756    1.287   .     A
C730   O758    1.280   .     A
C730   C732    1.395   .     S
C732   C599    1.318   1_655 S
C732   H612    1.083   1_655 S
C733   C738    1.411   .     A
C733   C761    1.484   .     S
C733   C1131   1.373   1_545 S
C734   C737    1.411   .     A
C734   C772    1.485   .     S
C734   C934    1.373   .     S
C735   C737    1.396   .     A
C735   H745    1.083   .     S
C735   C931    1.373   .     S
C736   C738    1.396   .     A
C736   H746    1.083   .     S
C736   C1130   1.373   1_545 S
C739   S783    1.783   .     S
C739   N750    1.403   .     A
C740   N749    1.404   .     A
C740   S788    1.788   .     S
C740   C1336   1.414   .     S
C741   N749    1.344   .     A
C741   H747    1.083   .     S
C741   C1333   1.413   .     S
C742   N750    1.344   .     A
C742   H748    1.083   .     S
H743   C599    1.083   1_655 S
N749   Zn759   2.026   .     S
N750   Zn760   2.026   .     S
O751   Zn759   2.007   .     S
O752   Zn760   2.007   .     S
O753   Zn760   1.998   .     S
O754   Zn759   1.998   .     S
O755   Zn759   1.977   .     S
O756   Zn760   1.977   .     S
O757   Zn760   1.970   .     S
O758   Zn759   1.970   .     S
C761   C766    1.405   .     A
C761   C762    1.405   .     A
C762   H767    1.083   .     S
C762   C763    1.398   .     A
C763   C764    1.397   .     A
C764   C765    1.397   .     A
C765   H770    1.082   .     S
C765   C766    1.399   .     A
C766   H771    1.083   .     S
H768   C1357   1.082   .     S
H769   C1358   1.082   .     S
C772   C773    1.405   .     A
C772   C777    1.405   .     A
C773   H778    1.083   .     S
C773   C774    1.400   .     A
C774   H779    1.082   .     S
C774   C775    1.397   .     A
C775   C776    1.397   .     A
C775   H1374   1.082   .     S
C776   C777    1.398   .     A
C776   H1375   1.082   .     S
C777   H782    1.083   .     S
S783   O784    1.493   .     D
S783   O785    1.502   .     D
S783   O786    1.683   .     S
O786   H787    0.991   .     S
S788   O790    1.502   .     D
S788   O789    1.504   .     D
S788   O791    1.672   .     S
O791   H792    0.990   .     S
C793   O819    1.286   .     A
C793   O817    1.295   .     A
C793   C804    1.426   .     S
C794   C803    1.426   .     S
C794   O818    1.295   .     A
C794   O820    1.286   .     A
C795   O823    1.280   .     A
C795   O821    1.287   .     A
C795   C797    1.395   .     S
C796   O822    1.287   .     A
C796   O824    1.280   .     A
C796   C798    1.395   .     S
C797   C930    1.318   1_455 S
C797   H941    1.083   1_455 S
C798   C863    1.318   .     S
C798   H876    1.083   .     S
C799   C804    1.411   .     A
C799   C827    1.484   .     S
C800   C803    1.411   .     A
C800   C838    1.485   .     S
C800   C1000   1.373   .     S
C801   C803    1.396   .     A
C801   H811    1.083   .     S
C801   C997    1.373   .     S
C802   C804    1.396   .     A
C802   H812    1.083   .     S
C805   S849    1.783   .     S
C805   N816    1.403   .     A
C806   N815    1.404   .     A
C806   S854    1.788   .     S
C806   C1402   1.414   .     S
C807   N815    1.344   .     A
C807   H813    1.083   .     S
C807   C1399   1.413   .     S
C808   N816    1.344   .     A
C808   H814    1.083   .     S
H809   C863    1.083   .     S
H810   C930    1.083   1_455 S
N815   Zn825   2.026   .     S
N816   Zn826   2.026   .     S
O817   Zn825   2.007   .     S
O818   Zn826   2.007   .     S
O819   Zn826   1.998   .     S
O820   Zn825   1.998   .     S
O821   Zn825   1.977   .     S
O822   Zn826   1.977   .     S
O823   Zn826   1.970   .     S
O824   Zn825   1.970   .     S
C827   C832    1.405   .     A
C827   C828    1.405   .     A
C828   H833    1.083   .     S
C828   C829    1.398   .     A
C829   C830    1.397   .     A
C830   C831    1.397   .     A
C831   H836    1.082   .     S
C831   C832    1.399   .     A
C832   H837    1.083   .     S
H834   C1423   1.082   .     S
H835   C1424   1.082   .     S
C838   C839    1.405   .     A
C838   C843    1.405   .     A
C839   H844    1.083   .     S
C839   C840    1.400   .     A
C840   H845    1.082   .     S
C840   C841    1.397   .     A
C841   C842    1.397   .     A
C841   H1440   1.082   .     S
C842   C843    1.398   .     A
C842   H1441   1.082   .     S
C843   H848    1.083   .     S
S849   O850    1.493   .     D
S849   O851    1.502   .     D
S849   O852    1.683   .     S
O852   H853    0.991   .     S
S854   O856    1.502   .     D
S854   O855    1.504   .     D
S854   O857    1.672   .     S
O857   H858    0.990   .     S
C859   O885    1.286   .     A
C859   O883    1.295   .     A
C859   C870    1.426   .     S
C860   C869    1.426   .     S
C860   O884    1.295   .     A
C860   O886    1.286   .     A
C861   O889    1.280   .     A
C861   O887    1.287   .     A
C861   C863    1.395   .     S
C862   O888    1.287   .     A
C862   O890    1.280   .     A
C862   C864    1.395   .     S
C864   C929    1.318   .     S
C864   H942    1.083   .     S
C865   C870    1.411   .     A
C865   C893    1.484   .     S
C866   C869    1.411   .     A
C866   C904    1.485   .     S
C866   C1066   1.373   .     S
C867   C869    1.396   .     A
C867   H877    1.083   .     S
C867   C1063   1.373   .     S
C868   C870    1.396   .     A
C868   H878    1.083   .     S
C871   S915    1.783   .     S
C871   N882    1.403   .     A
C872   N881    1.404   .     A
C872   S920    1.788   .     S
C872   C1468   1.414   .     S
C873   N881    1.344   .     A
C873   H879    1.083   .     S
C873   C1465   1.413   .     S
C874   N882    1.344   .     A
C874   H880    1.083   .     S
H875   C929    1.083   .     S
N881   Zn891   2.026   .     S
N882   Zn892   2.026   .     S
O883   Zn891   2.007   .     S
O884   Zn892   2.007   .     S
O885   Zn892   1.998   .     S
O886   Zn891   1.998   .     S
O887   Zn891   1.977   .     S
O888   Zn892   1.977   .     S
O889   Zn892   1.970   .     S
O890   Zn891   1.970   .     S
C893   C898    1.405   .     A
C893   C894    1.405   .     A
C894   H899    1.083   .     S
C894   C895    1.398   .     A
C895   C896    1.397   .     A
C896   C897    1.397   .     A
C897   H902    1.082   .     S
C897   C898    1.399   .     A
C898   H903    1.083   .     S
H900   C1489   1.082   .     S
H901   C1490   1.082   .     S
C904   C905    1.405   .     A
C904   C909    1.405   .     A
C905   H910    1.083   .     S
C905   C906    1.400   .     A
C906   H911    1.082   .     S
C906   C907    1.397   .     A
C907   C908    1.397   .     A
C907   H1506   1.082   .     S
C908   C909    1.398   .     A
C908   H1507   1.082   .     S
C909   H914    1.083   .     S
S915   O916    1.493   .     D
S915   O917    1.502   .     D
S915   O918    1.683   .     S
O918   H919    0.991   .     S
S920   O922    1.502   .     D
S920   O921    1.504   .     D
S920   O923    1.672   .     S
O923   H924    0.990   .     S
C925   O951    1.286   .     A
C925   O949    1.295   .     A
C925   C936    1.426   .     S
C926   C935    1.426   .     S
C926   O950    1.295   .     A
C926   O952    1.286   .     A
C927   O955    1.280   .     A
C927   O953    1.287   .     A
C927   C929    1.395   .     S
C928   O954    1.287   .     A
C928   O956    1.280   .     A
C928   C930    1.395   .     S
C930   C797    1.318   1_655 S
C930   H810    1.083   1_655 S
C931   C936    1.411   .     A
C931   C959    1.484   .     S
C932   C935    1.411   .     A
C932   C970    1.485   .     S
C932   C1132   1.373   .     S
C933   C935    1.396   .     A
C933   H943    1.083   .     S
C933   C1129   1.373   .     S
C934   C936    1.396   .     A
C934   H944    1.083   .     S
C937   S981    1.783   .     S
C937   N948    1.403   .     A
C938   N947    1.404   .     A
C938   S986    1.788   .     S
C938   C1534   1.414   .     S
C939   N947    1.344   .     A
C939   H945    1.083   .     S
C939   C1531   1.413   .     S
C940   N948    1.344   .     A
C940   H946    1.083   .     S
H941   C797    1.083   1_655 S
N947   Zn957   2.026   .     S
N948   Zn958   2.026   .     S
O949   Zn957   2.007   .     S
O950   Zn958   2.007   .     S
O951   Zn958   1.998   .     S
O952   Zn957   1.998   .     S
O953   Zn957   1.977   .     S
O954   Zn958   1.977   .     S
O955   Zn958   1.970   .     S
O956   Zn957   1.970   .     S
C959   C964    1.405   .     A
C959   C960    1.405   .     A
C960   H965    1.083   .     S
C960   C961    1.398   .     A
C961   C962    1.397   .     A
C962   C963    1.397   .     A
C963   H968    1.082   .     S
C963   C964    1.399   .     A
C964   H969    1.083   .     S
H966   C1555   1.082   .     S
H967   C1556   1.082   .     S
C970   C971    1.405   .     A
C970   C975    1.405   .     A
C971   H976    1.083   .     S
C971   C972    1.400   .     A
C972   H977    1.082   .     S
C972   C973    1.397   .     A
C973   C974    1.397   .     A
C973   H1572   1.082   .     S
C974   C975    1.398   .     A
C974   H1573   1.082   .     S
C975   H980    1.083   .     S
S981   O982    1.493   .     D
S981   O983    1.502   .     D
S981   O984    1.683   .     S
O984   H985    0.991   .     S
S986   O988    1.502   .     D
S986   O987    1.504   .     D
S986   O989    1.672   .     S
O989   H990    0.990   .     S
C991   O1017   1.286   .     A
C991   O1015   1.295   .     A
C991   C1002   1.426   .     S
C992   C1001   1.426   .     S
C992   O1016   1.295   .     A
C992   O1018   1.286   .     A
C993   O1021   1.280   .     A
C993   O1019   1.287   .     A
C993   C995    1.395   .     S
C994   O1020   1.287   .     A
C994   O1022   1.280   .     A
C994   C996    1.395   .     S
C995   C1128   1.318   1_455 S
C995   H1139   1.083   1_455 S
C996   C1061   1.318   .     S
C996   H1074   1.083   .     S
C997   C1002   1.411   .     A
C997   C1025   1.484   .     S
C998   C1001   1.411   .     A
C998   C1036   1.485   .     S
C998   C604    1.373   1_565 S
C999   C1001   1.396   .     A
C999   H1009   1.083   .     S
C999   C601    1.373   1_565 S
C1000  C1002   1.396   .     A
C1000  H1010   1.083   .     S
C1003  S1047   1.783   .     S
C1003  N1014   1.403   .     A
C1004  N1013   1.404   .     A
C1004  S1052   1.788   .     S
C1004  C1600   1.414   .     S
C1005  N1013   1.344   .     A
C1005  H1011   1.083   .     S
C1005  C1597   1.413   .     S
C1006  N1014   1.344   .     A
C1006  H1012   1.083   .     S
H1007  C1061   1.083   .     S
H1008  C1128   1.083   1_455 S
N1013  Zn1023  2.026   .     S
N1014  Zn1024  2.026   .     S
O1015  Zn1023  2.007   .     S
O1016  Zn1024  2.007   .     S
O1017  Zn1024  1.998   .     S
O1018  Zn1023  1.998   .     S
O1019  Zn1023  1.977   .     S
O1020  Zn1024  1.977   .     S
O1021  Zn1024  1.970   .     S
O1022  Zn1023  1.970   .     S
C1025  C1030   1.405   .     A
C1025  C1026   1.405   .     A
C1026  H1031   1.083   .     S
C1026  C1027   1.398   .     A
C1027  C1028   1.397   .     A
C1028  C1029   1.397   .     A
C1029  H1034   1.082   .     S
C1029  C1030   1.399   .     A
C1030  H1035   1.083   .     S
H1032  C1621   1.082   .     S
H1033  C1622   1.082   .     S
C1036  C1037   1.405   .     A
C1036  C1041   1.405   .     A
C1037  H1042   1.083   .     S
C1037  C1038   1.400   .     A
C1038  H1043   1.082   .     S
C1038  C1039   1.397   .     A
C1039  C1040   1.397   .     A
C1039  H1638   1.082   .     S
C1040  C1041   1.398   .     A
C1040  H1639   1.082   .     S
C1041  H1046   1.083   .     S
S1047  O1048   1.493   .     D
S1047  O1049   1.502   .     D
S1047  O1050   1.683   .     S
O1050  H1051   0.991   .     S
S1052  O1054   1.502   .     D
S1052  O1053   1.504   .     D
S1052  O1055   1.672   .     S
O1055  H1056   0.990   .     S
C1057  O1083   1.286   .     A
C1057  O1081   1.295   .     A
C1057  C1068   1.426   .     S
C1058  C1067   1.426   .     S
C1058  O1082   1.295   .     A
C1058  O1084   1.286   .     A
C1059  O1087   1.280   .     A
C1059  O1085   1.287   .     A
C1059  C1061   1.395   .     S
C1060  O1086   1.287   .     A
C1060  O1088   1.280   .     A
C1060  C1062   1.395   .     S
C1062  C1127   1.318   .     S
C1062  H1140   1.083   .     S
C1063  C1068   1.411   .     A
C1063  C1091   1.484   .     S
C1064  C1067   1.411   .     A
C1064  C1102   1.485   .     S
C1064  C670    1.373   1_565 S
C1065  C1067   1.396   .     A
C1065  H1075   1.083   .     S
C1065  C667    1.373   1_565 S
C1066  C1068   1.396   .     A
C1066  H1076   1.083   .     S
C1069  S1113   1.783   .     S
C1069  N1080   1.403   .     A
C1070  N1079   1.404   .     A
C1070  S1118   1.788   .     S
C1070  C1666   1.414   .     S
C1071  N1079   1.344   .     A
C1071  H1077   1.083   .     S
C1071  C1663   1.413   .     S
C1072  N1080   1.344   .     A
C1072  H1078   1.083   .     S
H1073  C1127   1.083   .     S
N1079  Zn1089  2.026   .     S
N1080  Zn1090  2.026   .     S
O1081  Zn1089  2.007   .     S
O1082  Zn1090  2.007   .     S
O1083  Zn1090  1.998   .     S
O1084  Zn1089  1.998   .     S
O1085  Zn1089  1.977   .     S
O1086  Zn1090  1.977   .     S
O1087  Zn1090  1.970   .     S
O1088  Zn1089  1.970   .     S
C1091  C1096   1.405   .     A
C1091  C1092   1.405   .     A
C1092  H1097   1.083   .     S
C1092  C1093   1.398   .     A
C1093  C1094   1.397   .     A
C1094  C1095   1.397   .     A
C1095  H1100   1.082   .     S
C1095  C1096   1.399   .     A
C1096  H1101   1.083   .     S
H1098  C1687   1.082   .     S
H1099  C1688   1.082   .     S
C1102  C1103   1.405   .     A
C1102  C1107   1.405   .     A
C1103  H1108   1.083   .     S
C1103  C1104   1.400   .     A
C1104  H1109   1.082   .     S
C1104  C1105   1.397   .     A
C1105  C1106   1.397   .     A
C1105  H1704   1.082   .     S
C1106  C1107   1.398   .     A
C1106  H1705   1.082   .     S
C1107  H1112   1.083   .     S
S1113  O1114   1.493   .     D
S1113  O1115   1.502   .     D
S1113  O1116   1.683   .     S
O1116  H1117   0.991   .     S
S1118  O1120   1.502   .     D
S1118  O1119   1.504   .     D
S1118  O1121   1.672   .     S
O1121  H1122   0.990   .     S
C1123  O1149   1.286   .     A
C1123  O1147   1.295   .     A
C1123  C1134   1.426   .     S
C1124  C1133   1.426   .     S
C1124  O1148   1.295   .     A
C1124  O1150   1.286   .     A
C1125  O1153   1.280   .     A
C1125  O1151   1.287   .     A
C1125  C1127   1.395   .     S
C1126  O1152   1.287   .     A
C1126  O1154   1.280   .     A
C1126  C1128   1.395   .     S
C1128  C995    1.318   1_655 S
C1128  H1008   1.083   1_655 S
C1129  C1134   1.411   .     A
C1129  C1157   1.484   .     S
C1130  C1133   1.411   .     A
C1130  C1168   1.485   .     S
C1130  C736    1.373   1_565 S
C1131  C1133   1.396   .     A
C1131  H1141   1.083   .     S
C1131  C733    1.373   1_565 S
C1132  C1134   1.396   .     A
C1132  H1142   1.083   .     S
C1135  S1179   1.783   .     S
C1135  N1146   1.403   .     A
C1136  N1145   1.404   .     A
C1136  S1184   1.788   .     S
C1136  C1732   1.414   .     S
C1137  N1145   1.344   .     A
C1137  H1143   1.083   .     S
C1137  C1729   1.413   .     S
C1138  N1146   1.344   .     A
C1138  H1144   1.083   .     S
H1139  C995    1.083   1_655 S
N1145  Zn1155  2.026   .     S
N1146  Zn1156  2.026   .     S
O1147  Zn1155  2.007   .     S
O1148  Zn1156  2.007   .     S
O1149  Zn1156  1.998   .     S
O1150  Zn1155  1.998   .     S
O1151  Zn1155  1.977   .     S
O1152  Zn1156  1.977   .     S
O1153  Zn1156  1.970   .     S
O1154  Zn1155  1.970   .     S
C1157  C1162   1.405   .     A
C1157  C1158   1.405   .     A
C1158  H1163   1.083   .     S
C1158  C1159   1.398   .     A
C1159  C1160   1.397   .     A
C1160  C1161   1.397   .     A
C1161  H1166   1.082   .     S
C1161  C1162   1.399   .     A
C1162  H1167   1.083   .     S
H1164  C1753   1.082   .     S
H1165  C1754   1.082   .     S
C1168  C1169   1.405   .     A
C1168  C1173   1.405   .     A
C1169  H1174   1.083   .     S
C1169  C1170   1.400   .     A
C1170  H1175   1.082   .     S
C1170  C1171   1.397   .     A
C1171  C1172   1.397   .     A
C1171  H1770   1.082   .     S
C1172  C1173   1.398   .     A
C1172  H1771   1.082   .     S
C1173  H1178   1.083   .     S
S1179  O1180   1.493   .     D
S1179  O1181   1.502   .     D
S1179  O1182   1.683   .     S
O1182  H1183   0.991   .     S
S1184  O1186   1.502   .     D
S1184  O1185   1.504   .     D
S1184  O1187   1.672   .     S
O1187  H1188   0.990   .     S
C1189  O1215   1.286   .     A
C1189  O1213   1.295   .     A
C1189  C1200   1.426   .     S
C1190  C1199   1.426   .     S
C1190  O1214   1.295   .     A
C1190  O1216   1.286   .     A
C1191  O1219   1.280   .     A
C1191  O1217   1.287   .     A
C1191  C1193   1.395   .     S
C1192  O1218   1.287   .     A
C1192  O1220   1.280   .     A
C1192  C1194   1.395   .     S
C1193  C1326   1.318   1_455 S
C1193  H1337   1.083   1_455 S
C1194  C1259   1.318   .     S
C1194  H1272   1.083   .     S
C1195  C1200   1.411   .     A
C1195  C1223   1.484   .     S
C1195  C1593   1.373   1_545 S
C1196  C1199   1.411   .     A
C1196  C1234   1.485   .     S
C1196  C1396   1.373   .     S
C1197  C1199   1.396   .     A
C1197  H1207   1.083   .     S
C1197  C1393   1.373   .     S
C1198  C1200   1.396   .     A
C1198  H1208   1.083   .     S
C1198  C1592   1.373   1_545 S
C1201  S1245   1.783   .     S
C1201  N1212   1.403   .     A
C1202  N1211   1.404   .     A
C1202  S1250   1.788   .     S
C1202  C16     1.414   1_556 S
C1203  N1211   1.344   .     A
C1203  H1209   1.083   .     S
C1203  C13     1.413   1_556 S
C1204  N1212   1.344   .     A
C1204  H1210   1.083   .     S
H1205  C1259   1.083   .     S
H1206  C1326   1.083   1_455 S
N1211  Zn1221  2.026   .     S
N1212  Zn1222  2.026   .     S
O1213  Zn1221  2.007   .     S
O1214  Zn1222  2.007   .     S
O1215  Zn1222  1.998   .     S
O1216  Zn1221  1.998   .     S
O1217  Zn1221  1.977   .     S
O1218  Zn1222  1.977   .     S
O1219  Zn1222  1.970   .     S
O1220  Zn1221  1.970   .     S
C1223  C1228   1.405   .     A
C1223  C1224   1.405   .     A
C1224  H1229   1.083   .     S
C1224  C1225   1.398   .     A
C1225  C1226   1.397   .     A
C1226  C1227   1.397   .     A
C1227  H1232   1.082   .     S
C1227  C1228   1.399   .     A
C1228  H1233   1.083   .     S
H1230  C37     1.082   1_556 S
H1231  C38     1.082   1_556 S
C1234  C1235   1.405   .     A
C1234  C1239   1.405   .     A
C1235  H1240   1.083   .     S
C1235  C1236   1.400   .     A
C1236  H1241   1.082   .     S
C1236  C1237   1.397   .     A
C1237  C1238   1.397   .     A
C1237  H54     1.082   1_556 S
C1238  C1239   1.398   .     A
C1238  H55     1.082   1_556 S
C1239  H1244   1.083   .     S
S1245  O1246   1.493   .     D
S1245  O1247   1.502   .     D
S1245  O1248   1.683   .     S
O1248  H1249   0.991   .     S
S1250  O1252   1.502   .     D
S1250  O1251   1.504   .     D
S1250  O1253   1.672   .     S
O1253  H1254   0.990   .     S
C1255  O1281   1.286   .     A
C1255  O1279   1.295   .     A
C1255  C1266   1.426   .     S
C1256  C1265   1.426   .     S
C1256  O1280   1.295   .     A
C1256  O1282   1.286   .     A
C1257  O1285   1.280   .     A
C1257  O1283   1.287   .     A
C1257  C1259   1.395   .     S
C1258  O1284   1.287   .     A
C1258  O1286   1.280   .     A
C1258  C1260   1.395   .     S
C1260  C1325   1.318   .     S
C1260  H1338   1.083   .     S
C1261  C1266   1.411   .     A
C1261  C1289   1.484   .     S
C1261  C1659   1.373   1_545 S
C1262  C1265   1.411   .     A
C1262  C1300   1.485   .     S
C1262  C1462   1.373   .     S
C1263  C1265   1.396   .     A
C1263  H1273   1.083   .     S
C1263  C1459   1.373   .     S
C1264  C1266   1.396   .     A
C1264  H1274   1.083   .     S
C1264  C1658   1.373   1_545 S
C1267  S1311   1.783   .     S
C1267  N1278   1.403   .     A
C1268  N1277   1.404   .     A
C1268  S1316   1.788   .     S
C1268  C82     1.414   1_556 S
C1269  N1277   1.344   .     A
C1269  H1275   1.083   .     S
C1269  C79     1.413   1_556 S
C1270  N1278   1.344   .     A
C1270  H1276   1.083   .     S
H1271  C1325   1.083   .     S
N1277  Zn1287  2.026   .     S
N1278  Zn1288  2.026   .     S
O1279  Zn1287  2.007   .     S
O1280  Zn1288  2.007   .     S
O1281  Zn1288  1.998   .     S
O1282  Zn1287  1.998   .     S
O1283  Zn1287  1.977   .     S
O1284  Zn1288  1.977   .     S
O1285  Zn1288  1.970   .     S
O1286  Zn1287  1.970   .     S
C1289  C1294   1.405   .     A
C1289  C1290   1.405   .     A
C1290  H1295   1.083   .     S
C1290  C1291   1.398   .     A
C1291  C1292   1.397   .     A
C1292  C1293   1.397   .     A
C1293  H1298   1.082   .     S
C1293  C1294   1.399   .     A
C1294  H1299   1.083   .     S
H1296  C103    1.082   1_556 S
H1297  C104    1.082   1_556 S
C1300  C1301   1.405   .     A
C1300  C1305   1.405   .     A
C1301  H1306   1.083   .     S
C1301  C1302   1.400   .     A
C1302  H1307   1.082   .     S
C1302  C1303   1.397   .     A
C1303  C1304   1.397   .     A
C1303  H120    1.082   1_556 S
C1304  C1305   1.398   .     A
C1304  H121    1.082   1_556 S
C1305  H1310   1.083   .     S
S1311  O1312   1.493   .     D
S1311  O1313   1.502   .     D
S1311  O1314   1.683   .     S
O1314  H1315   0.991   .     S
S1316  O1318   1.502   .     D
S1316  O1317   1.504   .     D
S1316  O1319   1.672   .     S
O1319  H1320   0.990   .     S
C1321  O1347   1.286   .     A
C1321  O1345   1.295   .     A
C1321  C1332   1.426   .     S
C1322  C1331   1.426   .     S
C1322  O1346   1.295   .     A
C1322  O1348   1.286   .     A
C1323  O1351   1.280   .     A
C1323  O1349   1.287   .     A
C1323  C1325   1.395   .     S
C1324  O1350   1.287   .     A
C1324  O1352   1.280   .     A
C1324  C1326   1.395   .     S
C1326  C1193   1.318   1_655 S
C1326  H1206   1.083   1_655 S
C1327  C1332   1.411   .     A
C1327  C1355   1.484   .     S
C1327  C1725   1.373   1_545 S
C1328  C1331   1.411   .     A
C1328  C1366   1.485   .     S
C1328  C1528   1.373   .     S
C1329  C1331   1.396   .     A
C1329  H1339   1.083   .     S
C1329  C1525   1.373   .     S
C1330  C1332   1.396   .     A
C1330  H1340   1.083   .     S
C1330  C1724   1.373   1_545 S
C1333  S1377   1.783   .     S
C1333  N1344   1.403   .     A
C1334  N1343   1.404   .     A
C1334  S1382   1.788   .     S
C1334  C148    1.414   1_556 S
C1335  N1343   1.344   .     A
C1335  H1341   1.083   .     S
C1335  C145    1.413   1_556 S
C1336  N1344   1.344   .     A
C1336  H1342   1.083   .     S
H1337  C1193   1.083   1_655 S
N1343  Zn1353  2.026   .     S
N1344  Zn1354  2.026   .     S
O1345  Zn1353  2.007   .     S
O1346  Zn1354  2.007   .     S
O1347  Zn1354  1.998   .     S
O1348  Zn1353  1.998   .     S
O1349  Zn1353  1.977   .     S
O1350  Zn1354  1.977   .     S
O1351  Zn1354  1.970   .     S
O1352  Zn1353  1.970   .     S
C1355  C1360   1.405   .     A
C1355  C1356   1.405   .     A
C1356  H1361   1.083   .     S
C1356  C1357   1.398   .     A
C1357  C1358   1.397   .     A
C1358  C1359   1.397   .     A
C1359  H1364   1.082   .     S
C1359  C1360   1.399   .     A
C1360  H1365   1.083   .     S
H1362  C169    1.082   1_556 S
H1363  C170    1.082   1_556 S
C1366  C1367   1.405   .     A
C1366  C1371   1.405   .     A
C1367  H1372   1.083   .     S
C1367  C1368   1.400   .     A
C1368  H1373   1.082   .     S
C1368  C1369   1.397   .     A
C1369  C1370   1.397   .     A
C1369  H186    1.082   1_556 S
C1370  C1371   1.398   .     A
C1370  H187    1.082   1_556 S
C1371  H1376   1.083   .     S
S1377  O1378   1.493   .     D
S1377  O1379   1.502   .     D
S1377  O1380   1.683   .     S
O1380  H1381   0.991   .     S
S1382  O1384   1.502   .     D
S1382  O1383   1.504   .     D
S1382  O1385   1.672   .     S
O1385  H1386   0.990   .     S
C1387  O1413   1.286   .     A
C1387  O1411   1.295   .     A
C1387  C1398   1.426   .     S
C1388  C1397   1.426   .     S
C1388  O1412   1.295   .     A
C1388  O1414   1.286   .     A
C1389  O1417   1.280   .     A
C1389  O1415   1.287   .     A
C1389  C1391   1.395   .     S
C1390  O1416   1.287   .     A
C1390  O1418   1.280   .     A
C1390  C1392   1.395   .     S
C1391  C1524   1.318   1_455 S
C1391  H1535   1.083   1_455 S
C1392  C1457   1.318   .     S
C1392  H1470   1.083   .     S
C1393  C1398   1.411   .     A
C1393  C1421   1.484   .     S
C1394  C1397   1.411   .     A
C1394  C1432   1.485   .     S
C1394  C1594   1.373   .     S
C1395  C1397   1.396   .     A
C1395  H1405   1.083   .     S
C1395  C1591   1.373   .     S
C1396  C1398   1.396   .     A
C1396  H1406   1.083   .     S
C1399  S1443   1.783   .     S
C1399  N1410   1.403   .     A
C1400  N1409   1.404   .     A
C1400  S1448   1.788   .     S
C1400  C214    1.414   1_556 S
C1401  N1409   1.344   .     A
C1401  H1407   1.083   .     S
C1401  C211    1.413   1_556 S
C1402  N1410   1.344   .     A
C1402  H1408   1.083   .     S
H1403  C1457   1.083   .     S
H1404  C1524   1.083   1_455 S
N1409  Zn1419  2.026   .     S
N1410  Zn1420  2.026   .     S
O1411  Zn1419  2.007   .     S
O1412  Zn1420  2.007   .     S
O1413  Zn1420  1.998   .     S
O1414  Zn1419  1.998   .     S
O1415  Zn1419  1.977   .     S
O1416  Zn1420  1.977   .     S
O1417  Zn1420  1.970   .     S
O1418  Zn1419  1.970   .     S
C1421  C1426   1.405   .     A
C1421  C1422   1.405   .     A
C1422  H1427   1.083   .     S
C1422  C1423   1.398   .     A
C1423  C1424   1.397   .     A
C1424  C1425   1.397   .     A
C1425  H1430   1.082   .     S
C1425  C1426   1.399   .     A
C1426  H1431   1.083   .     S
H1428  C235    1.082   1_556 S
H1429  C236    1.082   1_556 S
C1432  C1433   1.405   .     A
C1432  C1437   1.405   .     A
C1433  H1438   1.083   .     S
C1433  C1434   1.400   .     A
C1434  H1439   1.082   .     S
C1434  C1435   1.397   .     A
C1435  C1436   1.397   .     A
C1435  H252    1.082   1_556 S
C1436  C1437   1.398   .     A
C1436  H253    1.082   1_556 S
C1437  H1442   1.083   .     S
S1443  O1444   1.493   .     D
S1443  O1445   1.502   .     D
S1443  O1446   1.683   .     S
O1446  H1447   0.991   .     S
S1448  O1450   1.502   .     D
S1448  O1449   1.504   .     D
S1448  O1451   1.672   .     S
O1451  H1452   0.990   .     S
C1453  O1479   1.286   .     A
C1453  O1477   1.295   .     A
C1453  C1464   1.426   .     S
C1454  C1463   1.426   .     S
C1454  O1478   1.295   .     A
C1454  O1480   1.286   .     A
C1455  O1483   1.280   .     A
C1455  O1481   1.287   .     A
C1455  C1457   1.395   .     S
C1456  O1482   1.287   .     A
C1456  O1484   1.280   .     A
C1456  C1458   1.395   .     S
C1458  C1523   1.318   .     S
C1458  H1536   1.083   .     S
C1459  C1464   1.411   .     A
C1459  C1487   1.484   .     S
C1460  C1463   1.411   .     A
C1460  C1498   1.485   .     S
C1460  C1660   1.373   .     S
C1461  C1463   1.396   .     A
C1461  H1471   1.083   .     S
C1461  C1657   1.373   .     S
C1462  C1464   1.396   .     A
C1462  H1472   1.083   .     S
C1465  S1509   1.783   .     S
C1465  N1476   1.403   .     A
C1466  N1475   1.404   .     A
C1466  S1514   1.788   .     S
C1466  C280    1.414   1_556 S
C1467  N1475   1.344   .     A
C1467  H1473   1.083   .     S
C1467  C277    1.413   1_556 S
C1468  N1476   1.344   .     A
C1468  H1474   1.083   .     S
H1469  C1523   1.083   .     S
N1475  Zn1485  2.026   .     S
N1476  Zn1486  2.026   .     S
O1477  Zn1485  2.007   .     S
O1478  Zn1486  2.007   .     S
O1479  Zn1486  1.998   .     S
O1480  Zn1485  1.998   .     S
O1481  Zn1485  1.977   .     S
O1482  Zn1486  1.977   .     S
O1483  Zn1486  1.970   .     S
O1484  Zn1485  1.970   .     S
C1487  C1492   1.405   .     A
C1487  C1488   1.405   .     A
C1488  H1493   1.083   .     S
C1488  C1489   1.398   .     A
C1489  C1490   1.397   .     A
C1490  C1491   1.397   .     A
C1491  H1496   1.082   .     S
C1491  C1492   1.399   .     A
C1492  H1497   1.083   .     S
H1494  C301    1.082   1_556 S
H1495  C302    1.082   1_556 S
C1498  C1499   1.405   .     A
C1498  C1503   1.405   .     A
C1499  H1504   1.083   .     S
C1499  C1500   1.400   .     A
C1500  H1505   1.082   .     S
C1500  C1501   1.397   .     A
C1501  C1502   1.397   .     A
C1501  H318    1.082   1_556 S
C1502  C1503   1.398   .     A
C1502  H319    1.082   1_556 S
C1503  H1508   1.083   .     S
S1509  O1510   1.493   .     D
S1509  O1511   1.502   .     D
S1509  O1512   1.683   .     S
O1512  H1513   0.991   .     S
S1514  O1516   1.502   .     D
S1514  O1515   1.504   .     D
S1514  O1517   1.672   .     S
O1517  H1518   0.990   .     S
C1519  O1545   1.286   .     A
C1519  O1543   1.295   .     A
C1519  C1530   1.426   .     S
C1520  C1529   1.426   .     S
C1520  O1544   1.295   .     A
C1520  O1546   1.286   .     A
C1521  O1549   1.280   .     A
C1521  O1547   1.287   .     A
C1521  C1523   1.395   .     S
C1522  O1548   1.287   .     A
C1522  O1550   1.280   .     A
C1522  C1524   1.395   .     S
C1524  C1391   1.318   1_655 S
C1524  H1404   1.083   1_655 S
C1525  C1530   1.411   .     A
C1525  C1553   1.484   .     S
C1526  C1529   1.411   .     A
C1526  C1564   1.485   .     S
C1526  C1726   1.373   .     S
C1527  C1529   1.396   .     A
C1527  H1537   1.083   .     S
C1527  C1723   1.373   .     S
C1528  C1530   1.396   .     A
C1528  H1538   1.083   .     S
C1531  S1575   1.783   .     S
C1531  N1542   1.403   .     A
C1532  N1541   1.404   .     A
C1532  S1580   1.788   .     S
C1532  C346    1.414   1_556 S
C1533  N1541   1.344   .     A
C1533  H1539   1.083   .     S
C1533  C343    1.413   1_556 S
C1534  N1542   1.344   .     A
C1534  H1540   1.083   .     S
H1535  C1391   1.083   1_655 S
N1541  Zn1551  2.026   .     S
N1542  Zn1552  2.026   .     S
O1543  Zn1551  2.007   .     S
O1544  Zn1552  2.007   .     S
O1545  Zn1552  1.998   .     S
O1546  Zn1551  1.998   .     S
O1547  Zn1551  1.977   .     S
O1548  Zn1552  1.977   .     S
O1549  Zn1552  1.970   .     S
O1550  Zn1551  1.970   .     S
C1553  C1558   1.405   .     A
C1553  C1554   1.405   .     A
C1554  H1559   1.083   .     S
C1554  C1555   1.398   .     A
C1555  C1556   1.397   .     A
C1556  C1557   1.397   .     A
C1557  H1562   1.082   .     S
C1557  C1558   1.399   .     A
C1558  H1563   1.083   .     S
H1560  C367    1.082   1_556 S
H1561  C368    1.082   1_556 S
C1564  C1565   1.405   .     A
C1564  C1569   1.405   .     A
C1565  H1570   1.083   .     S
C1565  C1566   1.400   .     A
C1566  H1571   1.082   .     S
C1566  C1567   1.397   .     A
C1567  C1568   1.397   .     A
C1567  H384    1.082   1_556 S
C1568  C1569   1.398   .     A
C1568  H385    1.082   1_556 S
C1569  H1574   1.083   .     S
S1575  O1576   1.493   .     D
S1575  O1577   1.502   .     D
S1575  O1578   1.683   .     S
O1578  H1579   0.991   .     S
S1580  O1582   1.502   .     D
S1580  O1581   1.504   .     D
S1580  O1583   1.672   .     S
O1583  H1584   0.990   .     S
C1585  O1611   1.286   .     A
C1585  O1609   1.295   .     A
C1585  C1596   1.426   .     S
C1586  C1595   1.426   .     S
C1586  O1610   1.295   .     A
C1586  O1612   1.286   .     A
C1587  O1615   1.280   .     A
C1587  O1613   1.287   .     A
C1587  C1589   1.395   .     S
C1588  O1614   1.287   .     A
C1588  O1616   1.280   .     A
C1588  C1590   1.395   .     S
C1589  C1722   1.318   1_455 S
C1589  H1733   1.083   1_455 S
C1590  C1655   1.318   .     S
C1590  H1668   1.083   .     S
C1591  C1596   1.411   .     A
C1591  C1619   1.484   .     S
C1592  C1595   1.411   .     A
C1592  C1630   1.485   .     S
C1592  C1198   1.373   1_565 S
C1593  C1595   1.396   .     A
C1593  H1603   1.083   .     S
C1593  C1195   1.373   1_565 S
C1594  C1596   1.396   .     A
C1594  H1604   1.083   .     S
C1597  S1641   1.783   .     S
C1597  N1608   1.403   .     A
C1598  N1607   1.404   .     A
C1598  S1646   1.788   .     S
C1598  C412    1.414   1_556 S
C1599  N1607   1.344   .     A
C1599  H1605   1.083   .     S
C1599  C409    1.413   1_556 S
C1600  N1608   1.344   .     A
C1600  H1606   1.083   .     S
H1601  C1655   1.083   .     S
H1602  C1722   1.083   1_455 S
N1607  Zn1617  2.026   .     S
N1608  Zn1618  2.026   .     S
O1609  Zn1617  2.007   .     S
O1610  Zn1618  2.007   .     S
O1611  Zn1618  1.998   .     S
O1612  Zn1617  1.998   .     S
O1613  Zn1617  1.977   .     S
O1614  Zn1618  1.977   .     S
O1615  Zn1618  1.970   .     S
O1616  Zn1617  1.970   .     S
C1619  C1624   1.405   .     A
C1619  C1620   1.405   .     A
C1620  H1625   1.083   .     S
C1620  C1621   1.398   .     A
C1621  C1622   1.397   .     A
C1622  C1623   1.397   .     A
C1623  H1628   1.082   .     S
C1623  C1624   1.399   .     A
C1624  H1629   1.083   .     S
H1626  C433    1.082   1_556 S
H1627  C434    1.082   1_556 S
C1630  C1631   1.405   .     A
C1630  C1635   1.405   .     A
C1631  H1636   1.083   .     S
C1631  C1632   1.400   .     A
C1632  H1637   1.082   .     S
C1632  C1633   1.397   .     A
C1633  C1634   1.397   .     A
C1633  H450    1.082   1_556 S
C1634  C1635   1.398   .     A
C1634  H451    1.082   1_556 S
C1635  H1640   1.083   .     S
S1641  O1642   1.493   .     D
S1641  O1643   1.502   .     D
S1641  O1644   1.683   .     S
O1644  H1645   0.991   .     S
S1646  O1648   1.502   .     D
S1646  O1647   1.504   .     D
S1646  O1649   1.672   .     S
O1649  H1650   0.990   .     S
C1651  O1677   1.286   .     A
C1651  O1675   1.295   .     A
C1651  C1662   1.426   .     S
C1652  C1661   1.426   .     S
C1652  O1676   1.295   .     A
C1652  O1678   1.286   .     A
C1653  O1681   1.280   .     A
C1653  O1679   1.287   .     A
C1653  C1655   1.395   .     S
C1654  O1680   1.287   .     A
C1654  O1682   1.280   .     A
C1654  C1656   1.395   .     S
C1656  C1721   1.318   .     S
C1656  H1734   1.083   .     S
C1657  C1662   1.411   .     A
C1657  C1685   1.484   .     S
C1658  C1661   1.411   .     A
C1658  C1696   1.485   .     S
C1658  C1264   1.373   1_565 S
C1659  C1661   1.396   .     A
C1659  H1669   1.083   .     S
C1659  C1261   1.373   1_565 S
C1660  C1662   1.396   .     A
C1660  H1670   1.083   .     S
C1663  S1707   1.783   .     S
C1663  N1674   1.403   .     A
C1664  N1673   1.404   .     A
C1664  S1712   1.788   .     S
C1664  C478    1.414   1_556 S
C1665  N1673   1.344   .     A
C1665  H1671   1.083   .     S
C1665  C475    1.413   1_556 S
C1666  N1674   1.344   .     A
C1666  H1672   1.083   .     S
H1667  C1721   1.083   .     S
N1673  Zn1683  2.026   .     S
N1674  Zn1684  2.026   .     S
O1675  Zn1683  2.007   .     S
O1676  Zn1684  2.007   .     S
O1677  Zn1684  1.998   .     S
O1678  Zn1683  1.998   .     S
O1679  Zn1683  1.977   .     S
O1680  Zn1684  1.977   .     S
O1681  Zn1684  1.970   .     S
O1682  Zn1683  1.970   .     S
C1685  C1690   1.405   .     A
C1685  C1686   1.405   .     A
C1686  H1691   1.083   .     S
C1686  C1687   1.398   .     A
C1687  C1688   1.397   .     A
C1688  C1689   1.397   .     A
C1689  H1694   1.082   .     S
C1689  C1690   1.399   .     A
C1690  H1695   1.083   .     S
H1692  C499    1.082   1_556 S
H1693  C500    1.082   1_556 S
C1696  C1697   1.405   .     A
C1696  C1701   1.405   .     A
C1697  H1702   1.083   .     S
C1697  C1698   1.400   .     A
C1698  H1703   1.082   .     S
C1698  C1699   1.397   .     A
C1699  C1700   1.397   .     A
C1699  H516    1.082   1_556 S
C1700  C1701   1.398   .     A
C1700  H517    1.082   1_556 S
C1701  H1706   1.083   .     S
S1707  O1708   1.493   .     D
S1707  O1709   1.502   .     D
S1707  O1710   1.683   .     S
O1710  H1711   0.991   .     S
S1712  O1714   1.502   .     D
S1712  O1713   1.504   .     D
S1712  O1715   1.672   .     S
O1715  H1716   0.990   .     S
C1717  O1743   1.286   .     A
C1717  O1741   1.295   .     A
C1717  C1728   1.426   .     S
C1718  C1727   1.426   .     S
C1718  O1742   1.295   .     A
C1718  O1744   1.286   .     A
C1719  O1747   1.280   .     A
C1719  O1745   1.287   .     A
C1719  C1721   1.395   .     S
C1720  O1746   1.287   .     A
C1720  O1748   1.280   .     A
C1720  C1722   1.395   .     S
C1722  C1589   1.318   1_655 S
C1722  H1602   1.083   1_655 S
C1723  C1728   1.411   .     A
C1723  C1751   1.484   .     S
C1724  C1727   1.411   .     A
C1724  C1762   1.485   .     S
C1724  C1330   1.373   1_565 S
C1725  C1727   1.396   .     A
C1725  H1735   1.083   .     S
C1725  C1327   1.373   1_565 S
C1726  C1728   1.396   .     A
C1726  H1736   1.083   .     S
C1729  S1773   1.783   .     S
C1729  N1740   1.403   .     A
C1730  N1739   1.404   .     A
C1730  S1778   1.788   .     S
C1730  C544    1.414   1_556 S
C1731  N1739   1.344   .     A
C1731  H1737   1.083   .     S
C1731  C541    1.413   1_556 S
C1732  N1740   1.344   .     A
C1732  H1738   1.083   .     S
H1733  C1589   1.083   1_655 S
N1739  Zn1749  2.026   .     S
N1740  Zn1750  2.026   .     S
O1741  Zn1749  2.007   .     S
O1742  Zn1750  2.007   .     S
O1743  Zn1750  1.998   .     S
O1744  Zn1749  1.998   .     S
O1745  Zn1749  1.977   .     S
O1746  Zn1750  1.977   .     S
O1747  Zn1750  1.970   .     S
O1748  Zn1749  1.970   .     S
C1751  C1756   1.405   .     A
C1751  C1752   1.405   .     A
C1752  H1757   1.083   .     S
C1752  C1753   1.398   .     A
C1753  C1754   1.397   .     A
C1754  C1755   1.397   .     A
C1755  H1760   1.082   .     S
C1755  C1756   1.399   .     A
C1756  H1761   1.083   .     S
H1758  C565    1.082   1_556 S
H1759  C566    1.082   1_556 S
C1762  C1763   1.405   .     A
C1762  C1767   1.405   .     A
C1763  H1768   1.083   .     S
C1763  C1764   1.400   .     A
C1764  H1769   1.082   .     S
C1764  C1765   1.397   .     A
C1765  C1766   1.397   .     A
C1765  H582    1.082   1_556 S
C1766  C1767   1.398   .     A
C1766  H583    1.082   1_556 S
C1767  H1772   1.083   .     S
S1773  O1774   1.493   .     D
S1773  O1775   1.502   .     D
S1773  O1776   1.683   .     S
O1776  H1777   0.991   .     S
S1778  O1780   1.502   .     D
S1778  O1779   1.504   .     D
S1778  O1781   1.672   .     S
O1781  H1782   0.990   .     S
