data_str_m1_o10_o16_pcu_sym.131
_audit_creation_date              2020-01-03
_audit_creation_method            'Materials Studio'
_symmetry_space_group_name_H-M    'P1'
_symmetry_Int_Tables_number       1
_symmetry_cell_setting            triclinic
loop_
_symmetry_equiv_pos_as_xyz
  x,y,z
_cell_length_a                    32.6612
_cell_length_b                    32.6542
_cell_length_c                    31.0106
_cell_angle_alpha                 96.2065
_cell_angle_beta                  74.5036
_cell_angle_gamma                 98.4200
loop_
_atom_site_label
_atom_site_type_symbol
_atom_site_fract_x
_atom_site_fract_y
_atom_site_fract_z
_atom_site_U_iso_or_equiv
_atom_site_adp_type
_atom_site_occupancy
C1     C     0.05311   0.16006   0.25953   0.00000  Uiso   1.00
C2     C     0.16674   0.15653   0.05977   0.00000  Uiso   1.00
C3     C     0.23307   0.12979   0.05603   0.00000  Uiso   1.00
C4     C     0.28075   0.17380   0.24016   0.00000  Uiso   1.00
C5     C     0.13664   0.18753   0.42034   0.00000  Uiso   1.00
C6     C     0.32644   0.17637   0.23677   0.00000  Uiso   1.00
C7     C     0.00762   0.15678   0.26476   0.00000  Uiso   1.00
C8     C     0.18059   0.32307   0.23701   0.00000  Uiso   1.00
C9     C     0.15131   0.01213   0.26461   0.00000  Uiso   1.00
C10    C     0.15615   0.05615   0.26028   0.00000  Uiso   1.00
C11    C     0.17666   0.27803   0.24023   0.00000  Uiso   1.00
C12    C     0.07710   0.17660   0.48567   0.00000  Uiso   1.00
C13    C     0.18554   0.14834   0.12941   0.00000  Uiso   1.00
C14    C     0.14869   0.18476   0.37088   0.00000  Uiso   1.00
C15    C     0.24639   0.13417   0.01012   0.00000  Uiso   1.00
C16    C     0.19410   0.14247   0.08094   0.00000  Uiso   1.00
C17    C     0.09322   0.18915   0.44241   0.00000  Uiso   1.00
C18    C     0.10386   0.16310   0.00786   0.00000  Uiso   1.00
C19    C     0.14886   0.16705   0.48924   0.00000  Uiso   1.00
C20    C     0.16540   0.17918   0.44462   0.00000  Uiso   1.00
C21    C     0.17768   0.15724   0.01263   0.00000  Uiso   1.00
C22    C     0.22005   0.15043   0.48842   0.00000  Uiso   1.00
C23    C     0.23609   0.16253   0.44428   0.00000  Uiso   1.00
C24    C     0.21011   0.18216   0.42512   0.00000  Uiso   1.00
F25    F     0.25975   0.11635   0.07688   0.00000  Uiso   1.00
F26    F     0.28581   0.12413   0.48771   0.00000  Uiso   1.00
F27    F     0.13369   0.17597   0.08594   0.00000  Uiso   1.00
F28    F     0.06516   0.19798   0.42035   0.00000  Uiso   1.00
F29    F     0.08466   0.14210   0.04488   0.00000  Uiso   1.00
F30    F     0.03435   0.17388   0.00476   0.00000  Uiso   1.00
F31    F     0.02107   0.19901   0.20448   0.00000  Uiso   1.00
H32    H     0.33091   0.12179   0.31438   0.00000  Uiso   1.00
H33    H     0.23300   0.32284   0.18848   0.00000  Uiso   1.00
H34    H     0.09931   0.01626   0.31241   0.00000  Uiso   1.00
H35    H     0.28019   0.15583   0.38875   0.00000  Uiso   1.00
H36    H     0.25837   0.21540   0.38765   0.00000  Uiso   1.00
O37    O     0.16667   0.16667   0.25000   0.00000  Uiso   1.00
O38    O     0.15451   0.12637   0.15459   0.00000  Uiso   1.00
O39    O     0.12940   0.20391   0.34968   0.00000  Uiso   1.00
O40    O     0.20824   0.17759   0.14606   0.00000  Uiso   1.00
O41    O     0.17451   0.15880   0.34968   0.00000  Uiso   1.00
O42    O     0.31357   0.13345   0.29793   0.00000  Uiso   1.00
O43    O     0.21414   0.00990   0.20592   0.00000  Uiso   1.00
O44    O     0.11661   0.32750   0.29603   0.00000  Uiso   1.00
O45    O     0.27772   0.15718   0.42140   0.00000  Uiso   1.00
O46    O     0.22786   0.20598   0.38884   0.00000  Uiso   1.00
O47    O     0.17930   0.08019   0.28214   0.00000  Uiso   1.00
O48    O     0.14632   0.26085   0.27014   0.00000  Uiso   1.00
O49    O     0.07412   0.13291   0.23413   0.00000  Uiso   1.00
O50    O     0.26693   0.19272   0.21361   0.00000  Uiso   1.00
O51    O     0.07071   0.18878   0.28213   0.00000  Uiso   1.00
O52    O     0.25491   0.15226   0.27014   0.00000  Uiso   1.00
O53    O     0.13760   0.06944   0.23413   0.00000  Uiso   1.00
O54    O     0.20345   0.25620   0.21361   0.00000  Uiso   1.00
Zn55   Zn    0.19338   0.13994   0.28734   0.00000  Uiso   1.00
Zn56   Zn    0.13379   0.12458   0.21876   0.00000  Uiso   1.00
Zn57   Zn    0.21056   0.19775   0.20657   0.00000  Uiso   1.00
Zn58   Zn    0.12893   0.20439   0.28734   0.00000  Uiso   1.00
C59    C     0.38644   0.16006   0.25953   0.00000  Uiso   1.00
C60    C     0.50008   0.15653   0.05977   0.00000  Uiso   1.00
C61    C     0.56640   0.12979   0.05603   0.00000  Uiso   1.00
C62    C     0.61408   0.17380   0.24016   0.00000  Uiso   1.00
C63    C     0.46998   0.18753   0.42034   0.00000  Uiso   1.00
C64    C     0.65978   0.17637   0.23677   0.00000  Uiso   1.00
C65    C     0.34095   0.15678   0.26476   0.00000  Uiso   1.00
C66    C     0.51392   0.32307   0.23701   0.00000  Uiso   1.00
C67    C     0.48464   0.01213   0.26461   0.00000  Uiso   1.00
C68    C     0.48948   0.05615   0.26028   0.00000  Uiso   1.00
C69    C     0.50999   0.27803   0.24023   0.00000  Uiso   1.00
C70    C     0.41044   0.17660   0.48567   0.00000  Uiso   1.00
C71    C     0.51887   0.14834   0.12941   0.00000  Uiso   1.00
C72    C     0.48203   0.18476   0.37088   0.00000  Uiso   1.00
C73    C     0.57972   0.13417   0.01012   0.00000  Uiso   1.00
C74    C     0.52744   0.14247   0.08094   0.00000  Uiso   1.00
C75    C     0.42655   0.18915   0.44241   0.00000  Uiso   1.00
C76    C     0.43720   0.16310   0.00786   0.00000  Uiso   1.00
C77    C     0.48220   0.16705   0.48924   0.00000  Uiso   1.00
C78    C     0.49873   0.17918   0.44462   0.00000  Uiso   1.00
C79    C     0.51101   0.15724   0.01263   0.00000  Uiso   1.00
C80    C     0.55338   0.15043   0.48842   0.00000  Uiso   1.00
C81    C     0.56942   0.16253   0.44428   0.00000  Uiso   1.00
C82    C     0.54344   0.18216   0.42512   0.00000  Uiso   1.00
F83    F     0.59309   0.11635   0.07688   0.00000  Uiso   1.00
F84    F     0.61914   0.12413   0.48771   0.00000  Uiso   1.00
F85    F     0.46702   0.17597   0.08594   0.00000  Uiso   1.00
F86    F     0.39849   0.19798   0.42035   0.00000  Uiso   1.00
F87    F     0.41799   0.14210   0.04488   0.00000  Uiso   1.00
F88    F     0.36769   0.17388   0.00476   0.00000  Uiso   1.00
F89    F     0.35441   0.19901   0.20448   0.00000  Uiso   1.00
H90    H     0.66424   0.12179   0.31438   0.00000  Uiso   1.00
H91    H     0.56634   0.32284   0.18848   0.00000  Uiso   1.00
H92    H     0.43264   0.01626   0.31241   0.00000  Uiso   1.00
H93    H     0.61352   0.15583   0.38875   0.00000  Uiso   1.00
H94    H     0.59170   0.21540   0.38765   0.00000  Uiso   1.00
O95    O     0.50000   0.16667   0.25000   0.00000  Uiso   1.00
O96    O     0.48784   0.12637   0.15459   0.00000  Uiso   1.00
O97    O     0.46274   0.20391   0.34968   0.00000  Uiso   1.00
O98    O     0.54157   0.17759   0.14606   0.00000  Uiso   1.00
O99    O     0.50785   0.15880   0.34968   0.00000  Uiso   1.00
O100   O     0.64691   0.13345   0.29793   0.00000  Uiso   1.00
O101   O     0.54747   0.00990   0.20592   0.00000  Uiso   1.00
O102   O     0.44994   0.32750   0.29603   0.00000  Uiso   1.00
O103   O     0.61106   0.15718   0.42140   0.00000  Uiso   1.00
O104   O     0.56120   0.20598   0.38884   0.00000  Uiso   1.00
O105   O     0.51264   0.08019   0.28214   0.00000  Uiso   1.00
O106   O     0.47965   0.26085   0.27014   0.00000  Uiso   1.00
O107   O     0.40745   0.13291   0.23413   0.00000  Uiso   1.00
O108   O     0.60026   0.19272   0.21361   0.00000  Uiso   1.00
O109   O     0.40405   0.18878   0.28213   0.00000  Uiso   1.00
O110   O     0.58824   0.15226   0.27014   0.00000  Uiso   1.00
O111   O     0.47093   0.06944   0.23413   0.00000  Uiso   1.00
O112   O     0.53678   0.25620   0.21361   0.00000  Uiso   1.00
Zn113  Zn    0.52672   0.13994   0.28734   0.00000  Uiso   1.00
Zn114  Zn    0.46713   0.12458   0.21876   0.00000  Uiso   1.00
Zn115  Zn    0.54389   0.19775   0.20657   0.00000  Uiso   1.00
Zn116  Zn    0.46226   0.20439   0.28734   0.00000  Uiso   1.00
C117   C     0.71978   0.16006   0.25953   0.00000  Uiso   1.00
C118   C     0.83341   0.15653   0.05977   0.00000  Uiso   1.00
C119   C     0.89973   0.12979   0.05603   0.00000  Uiso   1.00
C120   C     0.94742   0.17380   0.24016   0.00000  Uiso   1.00
C121   C     0.80331   0.18753   0.42034   0.00000  Uiso   1.00
C122   C     0.99311   0.17637   0.23677   0.00000  Uiso   1.00
C123   C     0.67429   0.15678   0.26476   0.00000  Uiso   1.00
C124   C     0.84726   0.32307   0.23701   0.00000  Uiso   1.00
C125   C     0.81797   0.01213   0.26461   0.00000  Uiso   1.00
C126   C     0.82281   0.05615   0.26028   0.00000  Uiso   1.00
C127   C     0.84332   0.27803   0.24023   0.00000  Uiso   1.00
C128   C     0.74377   0.17660   0.48567   0.00000  Uiso   1.00
C129   C     0.85221   0.14834   0.12941   0.00000  Uiso   1.00
C130   C     0.81536   0.18476   0.37088   0.00000  Uiso   1.00
C131   C     0.91306   0.13417   0.01012   0.00000  Uiso   1.00
C132   C     0.86077   0.14247   0.08094   0.00000  Uiso   1.00
C133   C     0.75988   0.18915   0.44241   0.00000  Uiso   1.00
C134   C     0.77053   0.16310   0.00786   0.00000  Uiso   1.00
C135   C     0.81553   0.16705   0.48924   0.00000  Uiso   1.00
C136   C     0.83206   0.17918   0.44462   0.00000  Uiso   1.00
C137   C     0.84434   0.15724   0.01263   0.00000  Uiso   1.00
C138   C     0.88671   0.15043   0.48842   0.00000  Uiso   1.00
C139   C     0.90276   0.16253   0.44428   0.00000  Uiso   1.00
C140   C     0.87677   0.18216   0.42512   0.00000  Uiso   1.00
F141   F     0.92642   0.11635   0.07688   0.00000  Uiso   1.00
F142   F     0.95248   0.12413   0.48771   0.00000  Uiso   1.00
F143   F     0.80036   0.17597   0.08594   0.00000  Uiso   1.00
F144   F     0.73183   0.19798   0.42035   0.00000  Uiso   1.00
F145   F     0.75133   0.14210   0.04488   0.00000  Uiso   1.00
F146   F     0.70102   0.17388   0.00476   0.00000  Uiso   1.00
F147   F     0.68774   0.19901   0.20448   0.00000  Uiso   1.00
H148   H     0.99758   0.12179   0.31438   0.00000  Uiso   1.00
H149   H     0.89967   0.32284   0.18848   0.00000  Uiso   1.00
H150   H     0.76597   0.01626   0.31241   0.00000  Uiso   1.00
H151   H     0.94685   0.15583   0.38875   0.00000  Uiso   1.00
H152   H     0.92503   0.21540   0.38765   0.00000  Uiso   1.00
O153   O     0.83333   0.16667   0.25000   0.00000  Uiso   1.00
O154   O     0.82118   0.12637   0.15459   0.00000  Uiso   1.00
O155   O     0.79607   0.20391   0.34968   0.00000  Uiso   1.00
O156   O     0.87491   0.17759   0.14606   0.00000  Uiso   1.00
O157   O     0.84118   0.15880   0.34968   0.00000  Uiso   1.00
O158   O     0.98024   0.13345   0.29793   0.00000  Uiso   1.00
O159   O     0.88081   0.00990   0.20592   0.00000  Uiso   1.00
O160   O     0.78328   0.32750   0.29603   0.00000  Uiso   1.00
O161   O     0.94439   0.15718   0.42140   0.00000  Uiso   1.00
O162   O     0.89453   0.20598   0.38884   0.00000  Uiso   1.00
O163   O     0.84597   0.08019   0.28214   0.00000  Uiso   1.00
O164   O     0.81298   0.26085   0.27014   0.00000  Uiso   1.00
O165   O     0.74078   0.13291   0.23413   0.00000  Uiso   1.00
O166   O     0.93360   0.19272   0.21361   0.00000  Uiso   1.00
O167   O     0.73738   0.18878   0.28213   0.00000  Uiso   1.00
O168   O     0.92158   0.15226   0.27014   0.00000  Uiso   1.00
O169   O     0.80426   0.06944   0.23413   0.00000  Uiso   1.00
O170   O     0.87012   0.25620   0.21361   0.00000  Uiso   1.00
Zn171  Zn    0.86005   0.13994   0.28734   0.00000  Uiso   1.00
Zn172  Zn    0.80046   0.12458   0.21876   0.00000  Uiso   1.00
Zn173  Zn    0.87723   0.19775   0.20657   0.00000  Uiso   1.00
Zn174  Zn    0.79560   0.20439   0.28734   0.00000  Uiso   1.00
C175   C     0.05311   0.49340   0.25953   0.00000  Uiso   1.00
C176   C     0.16674   0.48986   0.05977   0.00000  Uiso   1.00
C177   C     0.23307   0.46313   0.05603   0.00000  Uiso   1.00
C178   C     0.28075   0.50713   0.24016   0.00000  Uiso   1.00
C179   C     0.13664   0.52086   0.42034   0.00000  Uiso   1.00
C180   C     0.32644   0.50971   0.23677   0.00000  Uiso   1.00
C181   C     0.00762   0.49011   0.26476   0.00000  Uiso   1.00
C182   C     0.18059   0.65640   0.23701   0.00000  Uiso   1.00
C183   C     0.15131   0.34547   0.26461   0.00000  Uiso   1.00
C184   C     0.15615   0.38948   0.26028   0.00000  Uiso   1.00
C185   C     0.17666   0.61136   0.24023   0.00000  Uiso   1.00
C186   C     0.07710   0.50993   0.48567   0.00000  Uiso   1.00
C187   C     0.18554   0.48168   0.12941   0.00000  Uiso   1.00
C188   C     0.14869   0.51810   0.37088   0.00000  Uiso   1.00
C189   C     0.24639   0.46750   0.01012   0.00000  Uiso   1.00
C190   C     0.19410   0.47580   0.08094   0.00000  Uiso   1.00
C191   C     0.09322   0.52248   0.44241   0.00000  Uiso   1.00
C192   C     0.10386   0.49643   0.00786   0.00000  Uiso   1.00
C193   C     0.14886   0.50039   0.48924   0.00000  Uiso   1.00
C194   C     0.16540   0.51252   0.44462   0.00000  Uiso   1.00
C195   C     0.17768   0.49057   0.01263   0.00000  Uiso   1.00
C196   C     0.22005   0.48376   0.48842   0.00000  Uiso   1.00
C197   C     0.23609   0.49587   0.44428   0.00000  Uiso   1.00
C198   C     0.21011   0.51550   0.42512   0.00000  Uiso   1.00
F199   F     0.25975   0.44968   0.07688   0.00000  Uiso   1.00
F200   F     0.28581   0.45746   0.48771   0.00000  Uiso   1.00
F201   F     0.13369   0.50931   0.08594   0.00000  Uiso   1.00
F202   F     0.06516   0.53131   0.42035   0.00000  Uiso   1.00
F203   F     0.08466   0.47544   0.04488   0.00000  Uiso   1.00
F204   F     0.03435   0.50722   0.00476   0.00000  Uiso   1.00
F205   F     0.02107   0.53234   0.20448   0.00000  Uiso   1.00
H206   H     0.33091   0.45513   0.31438   0.00000  Uiso   1.00
H207   H     0.23300   0.65617   0.18848   0.00000  Uiso   1.00
H208   H     0.09931   0.34959   0.31241   0.00000  Uiso   1.00
H209   H     0.28019   0.48916   0.38875   0.00000  Uiso   1.00
H210   H     0.25837   0.54873   0.38765   0.00000  Uiso   1.00
O211   O     0.16667   0.50000   0.25000   0.00000  Uiso   1.00
O212   O     0.15451   0.45970   0.15459   0.00000  Uiso   1.00
O213   O     0.12940   0.53724   0.34968   0.00000  Uiso   1.00
O214   O     0.20824   0.51092   0.14606   0.00000  Uiso   1.00
O215   O     0.17451   0.49213   0.34968   0.00000  Uiso   1.00
O216   O     0.31357   0.46679   0.29793   0.00000  Uiso   1.00
O217   O     0.21414   0.34323   0.20592   0.00000  Uiso   1.00
O218   O     0.11661   0.66083   0.29603   0.00000  Uiso   1.00
O219   O     0.27772   0.49051   0.42140   0.00000  Uiso   1.00
O220   O     0.22786   0.53931   0.38884   0.00000  Uiso   1.00
O221   O     0.17930   0.41352   0.28214   0.00000  Uiso   1.00
O222   O     0.14632   0.59418   0.27014   0.00000  Uiso   1.00
O223   O     0.07412   0.46625   0.23413   0.00000  Uiso   1.00
O224   O     0.26693   0.52605   0.21361   0.00000  Uiso   1.00
O225   O     0.07071   0.52211   0.28213   0.00000  Uiso   1.00
O226   O     0.25491   0.48559   0.27014   0.00000  Uiso   1.00
O227   O     0.13760   0.40277   0.23413   0.00000  Uiso   1.00
O228   O     0.20345   0.58953   0.21361   0.00000  Uiso   1.00
Zn229  Zn    0.19338   0.47327   0.28734   0.00000  Uiso   1.00
Zn230  Zn    0.13379   0.45791   0.21876   0.00000  Uiso   1.00
Zn231  Zn    0.21056   0.53109   0.20657   0.00000  Uiso   1.00
Zn232  Zn    0.12893   0.53773   0.28734   0.00000  Uiso   1.00
C233   C     0.38644   0.49340   0.25953   0.00000  Uiso   1.00
C234   C     0.50008   0.48986   0.05977   0.00000  Uiso   1.00
C235   C     0.56640   0.46313   0.05603   0.00000  Uiso   1.00
C236   C     0.61408   0.50713   0.24016   0.00000  Uiso   1.00
C237   C     0.46998   0.52086   0.42034   0.00000  Uiso   1.00
C238   C     0.65978   0.50971   0.23677   0.00000  Uiso   1.00
C239   C     0.34095   0.49011   0.26476   0.00000  Uiso   1.00
C240   C     0.51392   0.65640   0.23701   0.00000  Uiso   1.00
C241   C     0.48464   0.34547   0.26461   0.00000  Uiso   1.00
C242   C     0.48948   0.38948   0.26028   0.00000  Uiso   1.00
C243   C     0.50999   0.61136   0.24023   0.00000  Uiso   1.00
C244   C     0.41044   0.50993   0.48567   0.00000  Uiso   1.00
C245   C     0.51887   0.48168   0.12941   0.00000  Uiso   1.00
C246   C     0.48203   0.51810   0.37088   0.00000  Uiso   1.00
C247   C     0.57972   0.46750   0.01012   0.00000  Uiso   1.00
C248   C     0.52744   0.47580   0.08094   0.00000  Uiso   1.00
C249   C     0.42655   0.52248   0.44241   0.00000  Uiso   1.00
C250   C     0.43720   0.49643   0.00786   0.00000  Uiso   1.00
C251   C     0.48220   0.50039   0.48924   0.00000  Uiso   1.00
C252   C     0.49873   0.51252   0.44462   0.00000  Uiso   1.00
C253   C     0.51101   0.49057   0.01263   0.00000  Uiso   1.00
C254   C     0.55338   0.48376   0.48842   0.00000  Uiso   1.00
C255   C     0.56942   0.49587   0.44428   0.00000  Uiso   1.00
C256   C     0.54344   0.51550   0.42512   0.00000  Uiso   1.00
F257   F     0.59309   0.44968   0.07688   0.00000  Uiso   1.00
F258   F     0.61914   0.45746   0.48771   0.00000  Uiso   1.00
F259   F     0.46702   0.50931   0.08594   0.00000  Uiso   1.00
F260   F     0.39849   0.53131   0.42035   0.00000  Uiso   1.00
F261   F     0.41799   0.47544   0.04488   0.00000  Uiso   1.00
F262   F     0.36769   0.50722   0.00476   0.00000  Uiso   1.00
F263   F     0.35441   0.53234   0.20448   0.00000  Uiso   1.00
H264   H     0.66424   0.45513   0.31438   0.00000  Uiso   1.00
H265   H     0.56634   0.65617   0.18848   0.00000  Uiso   1.00
H266   H     0.43264   0.34959   0.31241   0.00000  Uiso   1.00
H267   H     0.61352   0.48916   0.38875   0.00000  Uiso   1.00
H268   H     0.59170   0.54873   0.38765   0.00000  Uiso   1.00
O269   O     0.50000   0.50000   0.25000   0.00000  Uiso   1.00
O270   O     0.48784   0.45970   0.15459   0.00000  Uiso   1.00
O271   O     0.46274   0.53724   0.34968   0.00000  Uiso   1.00
O272   O     0.54157   0.51092   0.14606   0.00000  Uiso   1.00
O273   O     0.50785   0.49213   0.34968   0.00000  Uiso   1.00
O274   O     0.64691   0.46679   0.29793   0.00000  Uiso   1.00
O275   O     0.54747   0.34323   0.20592   0.00000  Uiso   1.00
O276   O     0.44994   0.66083   0.29603   0.00000  Uiso   1.00
O277   O     0.61106   0.49051   0.42140   0.00000  Uiso   1.00
O278   O     0.56120   0.53931   0.38884   0.00000  Uiso   1.00
O279   O     0.51264   0.41352   0.28214   0.00000  Uiso   1.00
O280   O     0.47965   0.59418   0.27014   0.00000  Uiso   1.00
O281   O     0.40745   0.46625   0.23413   0.00000  Uiso   1.00
O282   O     0.60026   0.52605   0.21361   0.00000  Uiso   1.00
O283   O     0.40405   0.52211   0.28213   0.00000  Uiso   1.00
O284   O     0.58824   0.48559   0.27014   0.00000  Uiso   1.00
O285   O     0.47093   0.40277   0.23413   0.00000  Uiso   1.00
O286   O     0.53678   0.58953   0.21361   0.00000  Uiso   1.00
Zn287  Zn    0.52672   0.47327   0.28734   0.00000  Uiso   1.00
Zn288  Zn    0.46713   0.45791   0.21876   0.00000  Uiso   1.00
Zn289  Zn    0.54389   0.53109   0.20657   0.00000  Uiso   1.00
Zn290  Zn    0.46226   0.53773   0.28734   0.00000  Uiso   1.00
C291   C     0.71978   0.49340   0.25953   0.00000  Uiso   1.00
C292   C     0.83341   0.48986   0.05977   0.00000  Uiso   1.00
C293   C     0.89973   0.46313   0.05603   0.00000  Uiso   1.00
C294   C     0.94742   0.50713   0.24016   0.00000  Uiso   1.00
C295   C     0.80331   0.52086   0.42034   0.00000  Uiso   1.00
C296   C     0.99311   0.50971   0.23677   0.00000  Uiso   1.00
C297   C     0.67429   0.49011   0.26476   0.00000  Uiso   1.00
C298   C     0.84726   0.65640   0.23701   0.00000  Uiso   1.00
C299   C     0.81797   0.34547   0.26461   0.00000  Uiso   1.00
C300   C     0.82281   0.38948   0.26028   0.00000  Uiso   1.00
C301   C     0.84332   0.61136   0.24023   0.00000  Uiso   1.00
C302   C     0.74377   0.50993   0.48567   0.00000  Uiso   1.00
C303   C     0.85221   0.48168   0.12941   0.00000  Uiso   1.00
C304   C     0.81536   0.51810   0.37088   0.00000  Uiso   1.00
C305   C     0.91306   0.46750   0.01012   0.00000  Uiso   1.00
C306   C     0.86077   0.47580   0.08094   0.00000  Uiso   1.00
C307   C     0.75988   0.52248   0.44241   0.00000  Uiso   1.00
C308   C     0.77053   0.49643   0.00786   0.00000  Uiso   1.00
C309   C     0.81553   0.50039   0.48924   0.00000  Uiso   1.00
C310   C     0.83206   0.51252   0.44462   0.00000  Uiso   1.00
C311   C     0.84434   0.49057   0.01263   0.00000  Uiso   1.00
C312   C     0.88671   0.48376   0.48842   0.00000  Uiso   1.00
C313   C     0.90276   0.49587   0.44428   0.00000  Uiso   1.00
C314   C     0.87677   0.51550   0.42512   0.00000  Uiso   1.00
F315   F     0.92642   0.44968   0.07688   0.00000  Uiso   1.00
F316   F     0.95248   0.45746   0.48771   0.00000  Uiso   1.00
F317   F     0.80036   0.50931   0.08594   0.00000  Uiso   1.00
F318   F     0.73183   0.53131   0.42035   0.00000  Uiso   1.00
F319   F     0.75133   0.47544   0.04488   0.00000  Uiso   1.00
F320   F     0.70102   0.50722   0.00476   0.00000  Uiso   1.00
F321   F     0.68774   0.53234   0.20448   0.00000  Uiso   1.00
H322   H     0.99758   0.45513   0.31438   0.00000  Uiso   1.00
H323   H     0.89967   0.65617   0.18848   0.00000  Uiso   1.00
H324   H     0.76597   0.34959   0.31241   0.00000  Uiso   1.00
H325   H     0.94685   0.48916   0.38875   0.00000  Uiso   1.00
H326   H     0.92503   0.54873   0.38765   0.00000  Uiso   1.00
O327   O     0.83333   0.50000   0.25000   0.00000  Uiso   1.00
O328   O     0.82118   0.45970   0.15459   0.00000  Uiso   1.00
O329   O     0.79607   0.53724   0.34968   0.00000  Uiso   1.00
O330   O     0.87491   0.51092   0.14606   0.00000  Uiso   1.00
O331   O     0.84118   0.49213   0.34968   0.00000  Uiso   1.00
O332   O     0.98024   0.46679   0.29793   0.00000  Uiso   1.00
O333   O     0.88081   0.34323   0.20592   0.00000  Uiso   1.00
O334   O     0.78328   0.66083   0.29603   0.00000  Uiso   1.00
O335   O     0.94439   0.49051   0.42140   0.00000  Uiso   1.00
O336   O     0.89453   0.53931   0.38884   0.00000  Uiso   1.00
O337   O     0.84597   0.41352   0.28214   0.00000  Uiso   1.00
O338   O     0.81298   0.59418   0.27014   0.00000  Uiso   1.00
O339   O     0.74078   0.46625   0.23413   0.00000  Uiso   1.00
O340   O     0.93360   0.52605   0.21361   0.00000  Uiso   1.00
O341   O     0.73738   0.52211   0.28213   0.00000  Uiso   1.00
O342   O     0.92158   0.48559   0.27014   0.00000  Uiso   1.00
O343   O     0.80426   0.40277   0.23413   0.00000  Uiso   1.00
O344   O     0.87012   0.58953   0.21361   0.00000  Uiso   1.00
Zn345  Zn    0.86005   0.47327   0.28734   0.00000  Uiso   1.00
Zn346  Zn    0.80046   0.45791   0.21876   0.00000  Uiso   1.00
Zn347  Zn    0.87723   0.53109   0.20657   0.00000  Uiso   1.00
Zn348  Zn    0.79560   0.53773   0.28734   0.00000  Uiso   1.00
C349   C     0.05311   0.82673   0.25953   0.00000  Uiso   1.00
C350   C     0.16674   0.82319   0.05977   0.00000  Uiso   1.00
C351   C     0.23307   0.79646   0.05603   0.00000  Uiso   1.00
C352   C     0.28075   0.84047   0.24016   0.00000  Uiso   1.00
C353   C     0.13664   0.85420   0.42034   0.00000  Uiso   1.00
C354   C     0.32644   0.84304   0.23677   0.00000  Uiso   1.00
C355   C     0.00762   0.82345   0.26476   0.00000  Uiso   1.00
C356   C     0.18059   0.98973   0.23701   0.00000  Uiso   1.00
C357   C     0.15131   0.67880   0.26461   0.00000  Uiso   1.00
C358   C     0.15615   0.72282   0.26028   0.00000  Uiso   1.00
C359   C     0.17666   0.94469   0.24023   0.00000  Uiso   1.00
C360   C     0.07710   0.84327   0.48567   0.00000  Uiso   1.00
C361   C     0.18554   0.81501   0.12941   0.00000  Uiso   1.00
C362   C     0.14869   0.85143   0.37088   0.00000  Uiso   1.00
C363   C     0.24639   0.80084   0.01012   0.00000  Uiso   1.00
C364   C     0.19410   0.80913   0.08094   0.00000  Uiso   1.00
C365   C     0.09322   0.85582   0.44241   0.00000  Uiso   1.00
C366   C     0.10386   0.82977   0.00786   0.00000  Uiso   1.00
C367   C     0.14886   0.83372   0.48924   0.00000  Uiso   1.00
C368   C     0.16540   0.84585   0.44462   0.00000  Uiso   1.00
C369   C     0.17768   0.82391   0.01263   0.00000  Uiso   1.00
C370   C     0.22005   0.81710   0.48842   0.00000  Uiso   1.00
C371   C     0.23609   0.82920   0.44428   0.00000  Uiso   1.00
C372   C     0.21011   0.84883   0.42512   0.00000  Uiso   1.00
F373   F     0.25975   0.78301   0.07688   0.00000  Uiso   1.00
F374   F     0.28581   0.79079   0.48771   0.00000  Uiso   1.00
F375   F     0.13369   0.84264   0.08594   0.00000  Uiso   1.00
F376   F     0.06516   0.86464   0.42035   0.00000  Uiso   1.00
F377   F     0.08466   0.80877   0.04488   0.00000  Uiso   1.00
F378   F     0.03435   0.84055   0.00476   0.00000  Uiso   1.00
F379   F     0.02107   0.86568   0.20448   0.00000  Uiso   1.00
H380   H     0.33091   0.78846   0.31438   0.00000  Uiso   1.00
H381   H     0.23300   0.98950   0.18848   0.00000  Uiso   1.00
H382   H     0.09931   0.68293   0.31241   0.00000  Uiso   1.00
H383   H     0.28019   0.82249   0.38875   0.00000  Uiso   1.00
H384   H     0.25837   0.88206   0.38765   0.00000  Uiso   1.00
O385   O     0.16667   0.83333   0.25000   0.00000  Uiso   1.00
O386   O     0.15451   0.79304   0.15459   0.00000  Uiso   1.00
O387   O     0.12940   0.87058   0.34968   0.00000  Uiso   1.00
O388   O     0.20824   0.84425   0.14606   0.00000  Uiso   1.00
O389   O     0.17451   0.82546   0.34968   0.00000  Uiso   1.00
O390   O     0.31357   0.80012   0.29793   0.00000  Uiso   1.00
O391   O     0.21414   0.67656   0.20592   0.00000  Uiso   1.00
O392   O     0.11661   0.99416   0.29603   0.00000  Uiso   1.00
O393   O     0.27772   0.82385   0.42140   0.00000  Uiso   1.00
O394   O     0.22786   0.87265   0.38884   0.00000  Uiso   1.00
O395   O     0.17930   0.74686   0.28214   0.00000  Uiso   1.00
O396   O     0.14632   0.92751   0.27014   0.00000  Uiso   1.00
O397   O     0.07412   0.79958   0.23413   0.00000  Uiso   1.00
O398   O     0.26693   0.85939   0.21361   0.00000  Uiso   1.00
O399   O     0.07071   0.85544   0.28213   0.00000  Uiso   1.00
O400   O     0.25491   0.81892   0.27014   0.00000  Uiso   1.00
O401   O     0.13760   0.73610   0.23413   0.00000  Uiso   1.00
O402   O     0.20345   0.92286   0.21361   0.00000  Uiso   1.00
Zn403  Zn    0.19338   0.80661   0.28734   0.00000  Uiso   1.00
Zn404  Zn    0.13379   0.79124   0.21876   0.00000  Uiso   1.00
Zn405  Zn    0.21056   0.86442   0.20657   0.00000  Uiso   1.00
Zn406  Zn    0.12893   0.87106   0.28734   0.00000  Uiso   1.00
C407   C     0.38644   0.82673   0.25953   0.00000  Uiso   1.00
C408   C     0.50008   0.82319   0.05977   0.00000  Uiso   1.00
C409   C     0.56640   0.79646   0.05603   0.00000  Uiso   1.00
C410   C     0.61408   0.84047   0.24016   0.00000  Uiso   1.00
C411   C     0.46998   0.85420   0.42034   0.00000  Uiso   1.00
C412   C     0.65978   0.84304   0.23677   0.00000  Uiso   1.00
C413   C     0.34095   0.82345   0.26476   0.00000  Uiso   1.00
C414   C     0.51392   0.98973   0.23701   0.00000  Uiso   1.00
C415   C     0.48464   0.67880   0.26461   0.00000  Uiso   1.00
C416   C     0.48948   0.72282   0.26028   0.00000  Uiso   1.00
C417   C     0.50999   0.94469   0.24023   0.00000  Uiso   1.00
C418   C     0.41044   0.84327   0.48567   0.00000  Uiso   1.00
C419   C     0.51887   0.81501   0.12941   0.00000  Uiso   1.00
C420   C     0.48203   0.85143   0.37088   0.00000  Uiso   1.00
C421   C     0.57972   0.80084   0.01012   0.00000  Uiso   1.00
C422   C     0.52744   0.80913   0.08094   0.00000  Uiso   1.00
C423   C     0.42655   0.85582   0.44241   0.00000  Uiso   1.00
C424   C     0.43720   0.82977   0.00786   0.00000  Uiso   1.00
C425   C     0.48220   0.83372   0.48924   0.00000  Uiso   1.00
C426   C     0.49873   0.84585   0.44462   0.00000  Uiso   1.00
C427   C     0.51101   0.82391   0.01263   0.00000  Uiso   1.00
C428   C     0.55338   0.81710   0.48842   0.00000  Uiso   1.00
C429   C     0.56942   0.82920   0.44428   0.00000  Uiso   1.00
C430   C     0.54344   0.84883   0.42512   0.00000  Uiso   1.00
F431   F     0.59309   0.78301   0.07688   0.00000  Uiso   1.00
F432   F     0.61914   0.79079   0.48771   0.00000  Uiso   1.00
F433   F     0.46702   0.84264   0.08594   0.00000  Uiso   1.00
F434   F     0.39849   0.86464   0.42035   0.00000  Uiso   1.00
F435   F     0.41799   0.80877   0.04488   0.00000  Uiso   1.00
F436   F     0.36769   0.84055   0.00476   0.00000  Uiso   1.00
F437   F     0.35441   0.86568   0.20448   0.00000  Uiso   1.00
H438   H     0.66424   0.78846   0.31438   0.00000  Uiso   1.00
H439   H     0.56634   0.98950   0.18848   0.00000  Uiso   1.00
H440   H     0.43264   0.68293   0.31241   0.00000  Uiso   1.00
H441   H     0.61352   0.82249   0.38875   0.00000  Uiso   1.00
H442   H     0.59170   0.88206   0.38765   0.00000  Uiso   1.00
O443   O     0.50000   0.83333   0.25000   0.00000  Uiso   1.00
O444   O     0.48784   0.79304   0.15459   0.00000  Uiso   1.00
O445   O     0.46274   0.87058   0.34968   0.00000  Uiso   1.00
O446   O     0.54157   0.84425   0.14606   0.00000  Uiso   1.00
O447   O     0.50785   0.82546   0.34968   0.00000  Uiso   1.00
O448   O     0.64691   0.80012   0.29793   0.00000  Uiso   1.00
O449   O     0.54747   0.67656   0.20592   0.00000  Uiso   1.00
O450   O     0.44994   0.99416   0.29603   0.00000  Uiso   1.00
O451   O     0.61106   0.82385   0.42140   0.00000  Uiso   1.00
O452   O     0.56120   0.87265   0.38884   0.00000  Uiso   1.00
O453   O     0.51264   0.74686   0.28214   0.00000  Uiso   1.00
O454   O     0.47965   0.92751   0.27014   0.00000  Uiso   1.00
O455   O     0.40745   0.79958   0.23413   0.00000  Uiso   1.00
O456   O     0.60026   0.85939   0.21361   0.00000  Uiso   1.00
O457   O     0.40405   0.85544   0.28213   0.00000  Uiso   1.00
O458   O     0.58824   0.81892   0.27014   0.00000  Uiso   1.00
O459   O     0.47093   0.73610   0.23413   0.00000  Uiso   1.00
O460   O     0.53678   0.92286   0.21361   0.00000  Uiso   1.00
Zn461  Zn    0.52672   0.80661   0.28734   0.00000  Uiso   1.00
Zn462  Zn    0.46713   0.79124   0.21876   0.00000  Uiso   1.00
Zn463  Zn    0.54389   0.86442   0.20657   0.00000  Uiso   1.00
Zn464  Zn    0.46226   0.87106   0.28734   0.00000  Uiso   1.00
C465   C     0.71978   0.82673   0.25953   0.00000  Uiso   1.00
C466   C     0.83341   0.82319   0.05977   0.00000  Uiso   1.00
C467   C     0.89973   0.79646   0.05603   0.00000  Uiso   1.00
C468   C     0.94742   0.84047   0.24016   0.00000  Uiso   1.00
C469   C     0.80331   0.85420   0.42034   0.00000  Uiso   1.00
C470   C     0.99311   0.84304   0.23677   0.00000  Uiso   1.00
C471   C     0.67429   0.82345   0.26476   0.00000  Uiso   1.00
C472   C     0.84726   0.98973   0.23701   0.00000  Uiso   1.00
C473   C     0.81797   0.67880   0.26461   0.00000  Uiso   1.00
C474   C     0.82281   0.72282   0.26028   0.00000  Uiso   1.00
C475   C     0.84332   0.94469   0.24023   0.00000  Uiso   1.00
C476   C     0.74377   0.84327   0.48567   0.00000  Uiso   1.00
C477   C     0.85221   0.81501   0.12941   0.00000  Uiso   1.00
C478   C     0.81536   0.85143   0.37088   0.00000  Uiso   1.00
C479   C     0.91306   0.80084   0.01012   0.00000  Uiso   1.00
C480   C     0.86077   0.80913   0.08094   0.00000  Uiso   1.00
C481   C     0.75988   0.85582   0.44241   0.00000  Uiso   1.00
C482   C     0.77053   0.82977   0.00786   0.00000  Uiso   1.00
C483   C     0.81553   0.83372   0.48924   0.00000  Uiso   1.00
C484   C     0.83206   0.84585   0.44462   0.00000  Uiso   1.00
C485   C     0.84434   0.82391   0.01263   0.00000  Uiso   1.00
C486   C     0.88671   0.81710   0.48842   0.00000  Uiso   1.00
C487   C     0.90276   0.82920   0.44428   0.00000  Uiso   1.00
C488   C     0.87677   0.84883   0.42512   0.00000  Uiso   1.00
F489   F     0.92642   0.78301   0.07688   0.00000  Uiso   1.00
F490   F     0.95248   0.79079   0.48771   0.00000  Uiso   1.00
F491   F     0.80036   0.84264   0.08594   0.00000  Uiso   1.00
F492   F     0.73183   0.86464   0.42035   0.00000  Uiso   1.00
F493   F     0.75133   0.80877   0.04488   0.00000  Uiso   1.00
F494   F     0.70102   0.84055   0.00476   0.00000  Uiso   1.00
F495   F     0.68774   0.86568   0.20448   0.00000  Uiso   1.00
H496   H     0.99758   0.78846   0.31438   0.00000  Uiso   1.00
H497   H     0.89967   0.98950   0.18848   0.00000  Uiso   1.00
H498   H     0.76597   0.68293   0.31241   0.00000  Uiso   1.00
H499   H     0.94685   0.82249   0.38875   0.00000  Uiso   1.00
H500   H     0.92503   0.88206   0.38765   0.00000  Uiso   1.00
O501   O     0.83333   0.83333   0.25000   0.00000  Uiso   1.00
O502   O     0.82118   0.79304   0.15459   0.00000  Uiso   1.00
O503   O     0.79607   0.87058   0.34968   0.00000  Uiso   1.00
O504   O     0.87491   0.84425   0.14606   0.00000  Uiso   1.00
O505   O     0.84118   0.82546   0.34968   0.00000  Uiso   1.00
O506   O     0.98024   0.80012   0.29793   0.00000  Uiso   1.00
O507   O     0.88081   0.67656   0.20592   0.00000  Uiso   1.00
O508   O     0.78328   0.99416   0.29603   0.00000  Uiso   1.00
O509   O     0.94439   0.82385   0.42140   0.00000  Uiso   1.00
O510   O     0.89453   0.87265   0.38884   0.00000  Uiso   1.00
O511   O     0.84597   0.74686   0.28214   0.00000  Uiso   1.00
O512   O     0.81298   0.92751   0.27014   0.00000  Uiso   1.00
O513   O     0.74078   0.79958   0.23413   0.00000  Uiso   1.00
O514   O     0.93360   0.85939   0.21361   0.00000  Uiso   1.00
O515   O     0.73738   0.85544   0.28213   0.00000  Uiso   1.00
O516   O     0.92158   0.81892   0.27014   0.00000  Uiso   1.00
O517   O     0.80426   0.73610   0.23413   0.00000  Uiso   1.00
O518   O     0.87012   0.92286   0.21361   0.00000  Uiso   1.00
Zn519  Zn    0.86005   0.80661   0.28734   0.00000  Uiso   1.00
Zn520  Zn    0.80046   0.79124   0.21876   0.00000  Uiso   1.00
Zn521  Zn    0.87723   0.86442   0.20657   0.00000  Uiso   1.00
Zn522  Zn    0.79560   0.87106   0.28734   0.00000  Uiso   1.00
C523   C     0.05311   0.16006   0.75953   0.00000  Uiso   1.00
C524   C     0.16674   0.15653   0.55977   0.00000  Uiso   1.00
C525   C     0.23307   0.12979   0.55603   0.00000  Uiso   1.00
C526   C     0.28075   0.17380   0.74016   0.00000  Uiso   1.00
C527   C     0.13664   0.18753   0.92034   0.00000  Uiso   1.00
C528   C     0.32644   0.17637   0.73677   0.00000  Uiso   1.00
C529   C     0.00762   0.15678   0.76476   0.00000  Uiso   1.00
C530   C     0.18059   0.32307   0.73701   0.00000  Uiso   1.00
C531   C     0.15131   0.01213   0.76461   0.00000  Uiso   1.00
C532   C     0.15615   0.05615   0.76028   0.00000  Uiso   1.00
C533   C     0.17666   0.27803   0.74023   0.00000  Uiso   1.00
C534   C     0.07710   0.17660   0.98567   0.00000  Uiso   1.00
C535   C     0.18554   0.14834   0.62941   0.00000  Uiso   1.00
C536   C     0.14869   0.18476   0.87088   0.00000  Uiso   1.00
C537   C     0.24639   0.13417   0.51012   0.00000  Uiso   1.00
C538   C     0.19410   0.14247   0.58094   0.00000  Uiso   1.00
C539   C     0.09322   0.18915   0.94241   0.00000  Uiso   1.00
C540   C     0.10386   0.16310   0.50786   0.00000  Uiso   1.00
C541   C     0.14886   0.16705   0.98924   0.00000  Uiso   1.00
C542   C     0.16540   0.17918   0.94462   0.00000  Uiso   1.00
C543   C     0.17768   0.15724   0.51263   0.00000  Uiso   1.00
C544   C     0.22005   0.15043   0.98842   0.00000  Uiso   1.00
C545   C     0.23609   0.16253   0.94428   0.00000  Uiso   1.00
C546   C     0.21011   0.18216   0.92512   0.00000  Uiso   1.00
F547   F     0.25975   0.11635   0.57688   0.00000  Uiso   1.00
F548   F     0.28581   0.12413   0.98771   0.00000  Uiso   1.00
F549   F     0.13369   0.17597   0.58594   0.00000  Uiso   1.00
F550   F     0.06516   0.19798   0.92035   0.00000  Uiso   1.00
F551   F     0.08466   0.14210   0.54488   0.00000  Uiso   1.00
F552   F     0.03435   0.17388   0.50476   0.00000  Uiso   1.00
F553   F     0.02107   0.19901   0.70448   0.00000  Uiso   1.00
H554   H     0.33091   0.12179   0.81438   0.00000  Uiso   1.00
H555   H     0.23300   0.32284   0.68848   0.00000  Uiso   1.00
H556   H     0.09931   0.01626   0.81241   0.00000  Uiso   1.00
H557   H     0.28019   0.15583   0.88875   0.00000  Uiso   1.00
H558   H     0.25837   0.21540   0.88765   0.00000  Uiso   1.00
O559   O     0.16667   0.16667   0.75000   0.00000  Uiso   1.00
O560   O     0.15451   0.12637   0.65459   0.00000  Uiso   1.00
O561   O     0.12940   0.20391   0.84968   0.00000  Uiso   1.00
O562   O     0.20824   0.17759   0.64606   0.00000  Uiso   1.00
O563   O     0.17451   0.15880   0.84968   0.00000  Uiso   1.00
O564   O     0.31357   0.13345   0.79793   0.00000  Uiso   1.00
O565   O     0.21414   0.00990   0.70592   0.00000  Uiso   1.00
O566   O     0.11661   0.32750   0.79603   0.00000  Uiso   1.00
O567   O     0.27772   0.15718   0.92140   0.00000  Uiso   1.00
O568   O     0.22786   0.20598   0.88884   0.00000  Uiso   1.00
O569   O     0.17930   0.08019   0.78214   0.00000  Uiso   1.00
O570   O     0.14632   0.26085   0.77014   0.00000  Uiso   1.00
O571   O     0.07412   0.13291   0.73413   0.00000  Uiso   1.00
O572   O     0.26693   0.19272   0.71361   0.00000  Uiso   1.00
O573   O     0.07071   0.18878   0.78213   0.00000  Uiso   1.00
O574   O     0.25491   0.15226   0.77014   0.00000  Uiso   1.00
O575   O     0.13760   0.06944   0.73413   0.00000  Uiso   1.00
O576   O     0.20345   0.25620   0.71361   0.00000  Uiso   1.00
Zn577  Zn    0.19338   0.13994   0.78734   0.00000  Uiso   1.00
Zn578  Zn    0.13379   0.12458   0.71876   0.00000  Uiso   1.00
Zn579  Zn    0.21056   0.19775   0.70657   0.00000  Uiso   1.00
Zn580  Zn    0.12893   0.20439   0.78734   0.00000  Uiso   1.00
C581   C     0.38644   0.16006   0.75953   0.00000  Uiso   1.00
C582   C     0.50008   0.15653   0.55977   0.00000  Uiso   1.00
C583   C     0.56640   0.12979   0.55603   0.00000  Uiso   1.00
C584   C     0.61408   0.17380   0.74016   0.00000  Uiso   1.00
C585   C     0.46998   0.18753   0.92034   0.00000  Uiso   1.00
C586   C     0.65978   0.17637   0.73677   0.00000  Uiso   1.00
C587   C     0.34095   0.15678   0.76476   0.00000  Uiso   1.00
C588   C     0.51392   0.32307   0.73701   0.00000  Uiso   1.00
C589   C     0.48464   0.01213   0.76461   0.00000  Uiso   1.00
C590   C     0.48948   0.05615   0.76028   0.00000  Uiso   1.00
C591   C     0.50999   0.27803   0.74023   0.00000  Uiso   1.00
C592   C     0.41044   0.17660   0.98567   0.00000  Uiso   1.00
C593   C     0.51887   0.14834   0.62941   0.00000  Uiso   1.00
C594   C     0.48203   0.18476   0.87088   0.00000  Uiso   1.00
C595   C     0.57972   0.13417   0.51012   0.00000  Uiso   1.00
C596   C     0.52744   0.14247   0.58094   0.00000  Uiso   1.00
C597   C     0.42655   0.18915   0.94241   0.00000  Uiso   1.00
C598   C     0.43720   0.16310   0.50786   0.00000  Uiso   1.00
C599   C     0.48220   0.16705   0.98924   0.00000  Uiso   1.00
C600   C     0.49873   0.17918   0.94462   0.00000  Uiso   1.00
C601   C     0.51101   0.15724   0.51263   0.00000  Uiso   1.00
C602   C     0.55338   0.15043   0.98842   0.00000  Uiso   1.00
C603   C     0.56942   0.16253   0.94428   0.00000  Uiso   1.00
C604   C     0.54344   0.18216   0.92512   0.00000  Uiso   1.00
F605   F     0.59309   0.11635   0.57688   0.00000  Uiso   1.00
F606   F     0.61914   0.12413   0.98771   0.00000  Uiso   1.00
F607   F     0.46702   0.17597   0.58594   0.00000  Uiso   1.00
F608   F     0.39849   0.19798   0.92035   0.00000  Uiso   1.00
F609   F     0.41799   0.14210   0.54488   0.00000  Uiso   1.00
F610   F     0.36769   0.17388   0.50476   0.00000  Uiso   1.00
F611   F     0.35441   0.19901   0.70448   0.00000  Uiso   1.00
H612   H     0.66424   0.12179   0.81438   0.00000  Uiso   1.00
H613   H     0.56634   0.32284   0.68848   0.00000  Uiso   1.00
H614   H     0.43264   0.01626   0.81241   0.00000  Uiso   1.00
H615   H     0.61352   0.15583   0.88875   0.00000  Uiso   1.00
H616   H     0.59170   0.21540   0.88765   0.00000  Uiso   1.00
O617   O     0.50000   0.16667   0.75000   0.00000  Uiso   1.00
O618   O     0.48784   0.12637   0.65459   0.00000  Uiso   1.00
O619   O     0.46274   0.20391   0.84968   0.00000  Uiso   1.00
O620   O     0.54157   0.17759   0.64606   0.00000  Uiso   1.00
O621   O     0.50785   0.15880   0.84968   0.00000  Uiso   1.00
O622   O     0.64691   0.13345   0.79793   0.00000  Uiso   1.00
O623   O     0.54747   0.00990   0.70592   0.00000  Uiso   1.00
O624   O     0.44994   0.32750   0.79603   0.00000  Uiso   1.00
O625   O     0.61106   0.15718   0.92140   0.00000  Uiso   1.00
O626   O     0.56120   0.20598   0.88884   0.00000  Uiso   1.00
O627   O     0.51264   0.08019   0.78214   0.00000  Uiso   1.00
O628   O     0.47965   0.26085   0.77014   0.00000  Uiso   1.00
O629   O     0.40745   0.13291   0.73413   0.00000  Uiso   1.00
O630   O     0.60026   0.19272   0.71361   0.00000  Uiso   1.00
O631   O     0.40405   0.18878   0.78213   0.00000  Uiso   1.00
O632   O     0.58824   0.15226   0.77014   0.00000  Uiso   1.00
O633   O     0.47093   0.06944   0.73413   0.00000  Uiso   1.00
O634   O     0.53678   0.25620   0.71361   0.00000  Uiso   1.00
Zn635  Zn    0.52672   0.13994   0.78734   0.00000  Uiso   1.00
Zn636  Zn    0.46713   0.12458   0.71876   0.00000  Uiso   1.00
Zn637  Zn    0.54389   0.19775   0.70657   0.00000  Uiso   1.00
Zn638  Zn    0.46226   0.20439   0.78734   0.00000  Uiso   1.00
C639   C     0.71978   0.16006   0.75953   0.00000  Uiso   1.00
C640   C     0.83341   0.15653   0.55977   0.00000  Uiso   1.00
C641   C     0.89973   0.12979   0.55603   0.00000  Uiso   1.00
C642   C     0.94742   0.17380   0.74016   0.00000  Uiso   1.00
C643   C     0.80331   0.18753   0.92034   0.00000  Uiso   1.00
C644   C     0.99311   0.17637   0.73677   0.00000  Uiso   1.00
C645   C     0.67429   0.15678   0.76476   0.00000  Uiso   1.00
C646   C     0.84726   0.32307   0.73701   0.00000  Uiso   1.00
C647   C     0.81797   0.01213   0.76461   0.00000  Uiso   1.00
C648   C     0.82281   0.05615   0.76028   0.00000  Uiso   1.00
C649   C     0.84332   0.27803   0.74023   0.00000  Uiso   1.00
C650   C     0.74377   0.17660   0.98567   0.00000  Uiso   1.00
C651   C     0.85221   0.14834   0.62941   0.00000  Uiso   1.00
C652   C     0.81536   0.18476   0.87088   0.00000  Uiso   1.00
C653   C     0.91306   0.13417   0.51012   0.00000  Uiso   1.00
C654   C     0.86077   0.14247   0.58094   0.00000  Uiso   1.00
C655   C     0.75988   0.18915   0.94241   0.00000  Uiso   1.00
C656   C     0.77053   0.16310   0.50786   0.00000  Uiso   1.00
C657   C     0.81553   0.16705   0.98924   0.00000  Uiso   1.00
C658   C     0.83206   0.17918   0.94462   0.00000  Uiso   1.00
C659   C     0.84434   0.15724   0.51263   0.00000  Uiso   1.00
C660   C     0.88671   0.15043   0.98842   0.00000  Uiso   1.00
C661   C     0.90276   0.16253   0.94428   0.00000  Uiso   1.00
C662   C     0.87677   0.18216   0.92512   0.00000  Uiso   1.00
F663   F     0.92642   0.11635   0.57688   0.00000  Uiso   1.00
F664   F     0.95248   0.12413   0.98771   0.00000  Uiso   1.00
F665   F     0.80036   0.17597   0.58594   0.00000  Uiso   1.00
F666   F     0.73183   0.19798   0.92035   0.00000  Uiso   1.00
F667   F     0.75133   0.14210   0.54488   0.00000  Uiso   1.00
F668   F     0.70102   0.17388   0.50476   0.00000  Uiso   1.00
F669   F     0.68774   0.19901   0.70448   0.00000  Uiso   1.00
H670   H     0.99758   0.12179   0.81438   0.00000  Uiso   1.00
H671   H     0.89967   0.32284   0.68848   0.00000  Uiso   1.00
H672   H     0.76597   0.01626   0.81241   0.00000  Uiso   1.00
H673   H     0.94685   0.15583   0.88875   0.00000  Uiso   1.00
H674   H     0.92503   0.21540   0.88765   0.00000  Uiso   1.00
O675   O     0.83333   0.16667   0.75000   0.00000  Uiso   1.00
O676   O     0.82118   0.12637   0.65459   0.00000  Uiso   1.00
O677   O     0.79607   0.20391   0.84968   0.00000  Uiso   1.00
O678   O     0.87491   0.17759   0.64606   0.00000  Uiso   1.00
O679   O     0.84118   0.15880   0.84968   0.00000  Uiso   1.00
O680   O     0.98024   0.13345   0.79793   0.00000  Uiso   1.00
O681   O     0.88081   0.00990   0.70592   0.00000  Uiso   1.00
O682   O     0.78328   0.32750   0.79603   0.00000  Uiso   1.00
O683   O     0.94439   0.15718   0.92140   0.00000  Uiso   1.00
O684   O     0.89453   0.20598   0.88884   0.00000  Uiso   1.00
O685   O     0.84597   0.08019   0.78214   0.00000  Uiso   1.00
O686   O     0.81298   0.26085   0.77014   0.00000  Uiso   1.00
O687   O     0.74078   0.13291   0.73413   0.00000  Uiso   1.00
O688   O     0.93360   0.19272   0.71361   0.00000  Uiso   1.00
O689   O     0.73738   0.18878   0.78213   0.00000  Uiso   1.00
O690   O     0.92158   0.15226   0.77014   0.00000  Uiso   1.00
O691   O     0.80426   0.06944   0.73413   0.00000  Uiso   1.00
O692   O     0.87012   0.25620   0.71361   0.00000  Uiso   1.00
Zn693  Zn    0.86005   0.13994   0.78734   0.00000  Uiso   1.00
Zn694  Zn    0.80046   0.12458   0.71876   0.00000  Uiso   1.00
Zn695  Zn    0.87723   0.19775   0.70657   0.00000  Uiso   1.00
Zn696  Zn    0.79560   0.20439   0.78734   0.00000  Uiso   1.00
C697   C     0.05311   0.49340   0.75953   0.00000  Uiso   1.00
C698   C     0.16674   0.48986   0.55977   0.00000  Uiso   1.00
C699   C     0.23307   0.46313   0.55603   0.00000  Uiso   1.00
C700   C     0.28075   0.50713   0.74016   0.00000  Uiso   1.00
C701   C     0.13664   0.52086   0.92034   0.00000  Uiso   1.00
C702   C     0.32644   0.50971   0.73677   0.00000  Uiso   1.00
C703   C     0.00762   0.49011   0.76476   0.00000  Uiso   1.00
C704   C     0.18059   0.65640   0.73701   0.00000  Uiso   1.00
C705   C     0.15131   0.34547   0.76461   0.00000  Uiso   1.00
C706   C     0.15615   0.38948   0.76028   0.00000  Uiso   1.00
C707   C     0.17666   0.61136   0.74023   0.00000  Uiso   1.00
C708   C     0.07710   0.50993   0.98567   0.00000  Uiso   1.00
C709   C     0.18554   0.48168   0.62941   0.00000  Uiso   1.00
C710   C     0.14869   0.51810   0.87088   0.00000  Uiso   1.00
C711   C     0.24639   0.46750   0.51012   0.00000  Uiso   1.00
C712   C     0.19410   0.47580   0.58094   0.00000  Uiso   1.00
C713   C     0.09322   0.52248   0.94241   0.00000  Uiso   1.00
C714   C     0.10386   0.49643   0.50786   0.00000  Uiso   1.00
C715   C     0.14886   0.50039   0.98924   0.00000  Uiso   1.00
C716   C     0.16540   0.51252   0.94462   0.00000  Uiso   1.00
C717   C     0.17768   0.49057   0.51263   0.00000  Uiso   1.00
C718   C     0.22005   0.48376   0.98842   0.00000  Uiso   1.00
C719   C     0.23609   0.49587   0.94428   0.00000  Uiso   1.00
C720   C     0.21011   0.51550   0.92512   0.00000  Uiso   1.00
F721   F     0.25975   0.44968   0.57688   0.00000  Uiso   1.00
F722   F     0.28581   0.45746   0.98771   0.00000  Uiso   1.00
F723   F     0.13369   0.50931   0.58594   0.00000  Uiso   1.00
F724   F     0.06516   0.53131   0.92035   0.00000  Uiso   1.00
F725   F     0.08466   0.47544   0.54488   0.00000  Uiso   1.00
F726   F     0.03435   0.50722   0.50476   0.00000  Uiso   1.00
F727   F     0.02107   0.53234   0.70448   0.00000  Uiso   1.00
H728   H     0.33091   0.45513   0.81438   0.00000  Uiso   1.00
H729   H     0.23300   0.65617   0.68848   0.00000  Uiso   1.00
H730   H     0.09931   0.34959   0.81241   0.00000  Uiso   1.00
H731   H     0.28019   0.48916   0.88875   0.00000  Uiso   1.00
H732   H     0.25837   0.54873   0.88765   0.00000  Uiso   1.00
O733   O     0.16667   0.50000   0.75000   0.00000  Uiso   1.00
O734   O     0.15451   0.45970   0.65459   0.00000  Uiso   1.00
O735   O     0.12940   0.53724   0.84968   0.00000  Uiso   1.00
O736   O     0.20824   0.51092   0.64606   0.00000  Uiso   1.00
O737   O     0.17451   0.49213   0.84968   0.00000  Uiso   1.00
O738   O     0.31357   0.46679   0.79793   0.00000  Uiso   1.00
O739   O     0.21414   0.34323   0.70592   0.00000  Uiso   1.00
O740   O     0.11661   0.66083   0.79603   0.00000  Uiso   1.00
O741   O     0.27772   0.49051   0.92140   0.00000  Uiso   1.00
O742   O     0.22786   0.53931   0.88884   0.00000  Uiso   1.00
O743   O     0.17930   0.41352   0.78214   0.00000  Uiso   1.00
O744   O     0.14632   0.59418   0.77014   0.00000  Uiso   1.00
O745   O     0.07412   0.46625   0.73413   0.00000  Uiso   1.00
O746   O     0.26693   0.52605   0.71361   0.00000  Uiso   1.00
O747   O     0.07071   0.52211   0.78213   0.00000  Uiso   1.00
O748   O     0.25491   0.48559   0.77014   0.00000  Uiso   1.00
O749   O     0.13760   0.40277   0.73413   0.00000  Uiso   1.00
O750   O     0.20345   0.58953   0.71361   0.00000  Uiso   1.00
Zn751  Zn    0.19338   0.47327   0.78734   0.00000  Uiso   1.00
Zn752  Zn    0.13379   0.45791   0.71876   0.00000  Uiso   1.00
Zn753  Zn    0.21056   0.53109   0.70657   0.00000  Uiso   1.00
Zn754  Zn    0.12893   0.53773   0.78734   0.00000  Uiso   1.00
C755   C     0.38644   0.49340   0.75953   0.00000  Uiso   1.00
C756   C     0.50008   0.48986   0.55977   0.00000  Uiso   1.00
C757   C     0.56640   0.46313   0.55603   0.00000  Uiso   1.00
C758   C     0.61408   0.50713   0.74016   0.00000  Uiso   1.00
C759   C     0.46998   0.52086   0.92034   0.00000  Uiso   1.00
C760   C     0.65978   0.50971   0.73677   0.00000  Uiso   1.00
C761   C     0.34095   0.49011   0.76476   0.00000  Uiso   1.00
C762   C     0.51392   0.65640   0.73701   0.00000  Uiso   1.00
C763   C     0.48464   0.34547   0.76461   0.00000  Uiso   1.00
C764   C     0.48948   0.38948   0.76028   0.00000  Uiso   1.00
C765   C     0.50999   0.61136   0.74023   0.00000  Uiso   1.00
C766   C     0.41044   0.50993   0.98567   0.00000  Uiso   1.00
C767   C     0.51887   0.48168   0.62941   0.00000  Uiso   1.00
C768   C     0.48203   0.51810   0.87088   0.00000  Uiso   1.00
C769   C     0.57972   0.46750   0.51012   0.00000  Uiso   1.00
C770   C     0.52744   0.47580   0.58094   0.00000  Uiso   1.00
C771   C     0.42655   0.52248   0.94241   0.00000  Uiso   1.00
C772   C     0.43720   0.49643   0.50786   0.00000  Uiso   1.00
C773   C     0.48220   0.50039   0.98924   0.00000  Uiso   1.00
C774   C     0.49873   0.51252   0.94462   0.00000  Uiso   1.00
C775   C     0.51101   0.49057   0.51263   0.00000  Uiso   1.00
C776   C     0.55338   0.48376   0.98842   0.00000  Uiso   1.00
C777   C     0.56942   0.49587   0.94428   0.00000  Uiso   1.00
C778   C     0.54344   0.51550   0.92512   0.00000  Uiso   1.00
F779   F     0.59309   0.44968   0.57688   0.00000  Uiso   1.00
F780   F     0.61914   0.45746   0.98771   0.00000  Uiso   1.00
F781   F     0.46702   0.50931   0.58594   0.00000  Uiso   1.00
F782   F     0.39849   0.53131   0.92035   0.00000  Uiso   1.00
F783   F     0.41799   0.47544   0.54488   0.00000  Uiso   1.00
F784   F     0.36769   0.50722   0.50476   0.00000  Uiso   1.00
F785   F     0.35441   0.53234   0.70448   0.00000  Uiso   1.00
H786   H     0.66424   0.45513   0.81438   0.00000  Uiso   1.00
H787   H     0.56634   0.65617   0.68848   0.00000  Uiso   1.00
H788   H     0.43264   0.34959   0.81241   0.00000  Uiso   1.00
H789   H     0.61352   0.48916   0.88875   0.00000  Uiso   1.00
H790   H     0.59170   0.54873   0.88765   0.00000  Uiso   1.00
O791   O     0.50000   0.50000   0.75000   0.00000  Uiso   1.00
O792   O     0.48784   0.45970   0.65459   0.00000  Uiso   1.00
O793   O     0.46274   0.53724   0.84968   0.00000  Uiso   1.00
O794   O     0.54157   0.51092   0.64606   0.00000  Uiso   1.00
O795   O     0.50785   0.49213   0.84968   0.00000  Uiso   1.00
O796   O     0.64691   0.46679   0.79793   0.00000  Uiso   1.00
O797   O     0.54747   0.34323   0.70592   0.00000  Uiso   1.00
O798   O     0.44994   0.66083   0.79603   0.00000  Uiso   1.00
O799   O     0.61106   0.49051   0.92140   0.00000  Uiso   1.00
O800   O     0.56120   0.53931   0.88884   0.00000  Uiso   1.00
O801   O     0.51264   0.41352   0.78214   0.00000  Uiso   1.00
O802   O     0.47965   0.59418   0.77014   0.00000  Uiso   1.00
O803   O     0.40745   0.46625   0.73413   0.00000  Uiso   1.00
O804   O     0.60026   0.52605   0.71361   0.00000  Uiso   1.00
O805   O     0.40405   0.52211   0.78213   0.00000  Uiso   1.00
O806   O     0.58824   0.48559   0.77014   0.00000  Uiso   1.00
O807   O     0.47093   0.40277   0.73413   0.00000  Uiso   1.00
O808   O     0.53678   0.58953   0.71361   0.00000  Uiso   1.00
Zn809  Zn    0.52672   0.47327   0.78734   0.00000  Uiso   1.00
Zn810  Zn    0.46713   0.45791   0.71876   0.00000  Uiso   1.00
Zn811  Zn    0.54389   0.53109   0.70657   0.00000  Uiso   1.00
Zn812  Zn    0.46226   0.53773   0.78734   0.00000  Uiso   1.00
C813   C     0.71978   0.49340   0.75953   0.00000  Uiso   1.00
C814   C     0.83341   0.48986   0.55977   0.00000  Uiso   1.00
C815   C     0.89973   0.46313   0.55603   0.00000  Uiso   1.00
C816   C     0.94742   0.50713   0.74016   0.00000  Uiso   1.00
C817   C     0.80331   0.52086   0.92034   0.00000  Uiso   1.00
C818   C     0.99311   0.50971   0.73677   0.00000  Uiso   1.00
C819   C     0.67429   0.49011   0.76476   0.00000  Uiso   1.00
C820   C     0.84726   0.65640   0.73701   0.00000  Uiso   1.00
C821   C     0.81797   0.34547   0.76461   0.00000  Uiso   1.00
C822   C     0.82281   0.38948   0.76028   0.00000  Uiso   1.00
C823   C     0.84332   0.61136   0.74023   0.00000  Uiso   1.00
C824   C     0.74377   0.50993   0.98567   0.00000  Uiso   1.00
C825   C     0.85221   0.48168   0.62941   0.00000  Uiso   1.00
C826   C     0.81536   0.51810   0.87088   0.00000  Uiso   1.00
C827   C     0.91306   0.46750   0.51012   0.00000  Uiso   1.00
C828   C     0.86077   0.47580   0.58094   0.00000  Uiso   1.00
C829   C     0.75988   0.52248   0.94241   0.00000  Uiso   1.00
C830   C     0.77053   0.49643   0.50786   0.00000  Uiso   1.00
C831   C     0.81553   0.50039   0.98924   0.00000  Uiso   1.00
C832   C     0.83206   0.51252   0.94462   0.00000  Uiso   1.00
C833   C     0.84434   0.49057   0.51263   0.00000  Uiso   1.00
C834   C     0.88671   0.48376   0.98842   0.00000  Uiso   1.00
C835   C     0.90276   0.49587   0.94428   0.00000  Uiso   1.00
C836   C     0.87677   0.51550   0.92512   0.00000  Uiso   1.00
F837   F     0.92642   0.44968   0.57688   0.00000  Uiso   1.00
F838   F     0.95248   0.45746   0.98771   0.00000  Uiso   1.00
F839   F     0.80036   0.50931   0.58594   0.00000  Uiso   1.00
F840   F     0.73183   0.53131   0.92035   0.00000  Uiso   1.00
F841   F     0.75133   0.47544   0.54488   0.00000  Uiso   1.00
F842   F     0.70102   0.50722   0.50476   0.00000  Uiso   1.00
F843   F     0.68774   0.53234   0.70448   0.00000  Uiso   1.00
H844   H     0.99758   0.45513   0.81438   0.00000  Uiso   1.00
H845   H     0.89967   0.65617   0.68848   0.00000  Uiso   1.00
H846   H     0.76597   0.34959   0.81241   0.00000  Uiso   1.00
H847   H     0.94685   0.48916   0.88875   0.00000  Uiso   1.00
H848   H     0.92503   0.54873   0.88765   0.00000  Uiso   1.00
O849   O     0.83333   0.50000   0.75000   0.00000  Uiso   1.00
O850   O     0.82118   0.45970   0.65459   0.00000  Uiso   1.00
O851   O     0.79607   0.53724   0.84968   0.00000  Uiso   1.00
O852   O     0.87491   0.51092   0.64606   0.00000  Uiso   1.00
O853   O     0.84118   0.49213   0.84968   0.00000  Uiso   1.00
O854   O     0.98024   0.46679   0.79793   0.00000  Uiso   1.00
O855   O     0.88081   0.34323   0.70592   0.00000  Uiso   1.00
O856   O     0.78328   0.66083   0.79603   0.00000  Uiso   1.00
O857   O     0.94439   0.49051   0.92140   0.00000  Uiso   1.00
O858   O     0.89453   0.53931   0.88884   0.00000  Uiso   1.00
O859   O     0.84597   0.41352   0.78214   0.00000  Uiso   1.00
O860   O     0.81298   0.59418   0.77014   0.00000  Uiso   1.00
O861   O     0.74078   0.46625   0.73413   0.00000  Uiso   1.00
O862   O     0.93360   0.52605   0.71361   0.00000  Uiso   1.00
O863   O     0.73738   0.52211   0.78213   0.00000  Uiso   1.00
O864   O     0.92158   0.48559   0.77014   0.00000  Uiso   1.00
O865   O     0.80426   0.40277   0.73413   0.00000  Uiso   1.00
O866   O     0.87012   0.58953   0.71361   0.00000  Uiso   1.00
Zn867  Zn    0.86005   0.47327   0.78734   0.00000  Uiso   1.00
Zn868  Zn    0.80046   0.45791   0.71876   0.00000  Uiso   1.00
Zn869  Zn    0.87723   0.53109   0.70657   0.00000  Uiso   1.00
Zn870  Zn    0.79560   0.53773   0.78734   0.00000  Uiso   1.00
C871   C     0.05311   0.82673   0.75953   0.00000  Uiso   1.00
C872   C     0.16674   0.82319   0.55977   0.00000  Uiso   1.00
C873   C     0.23307   0.79646   0.55603   0.00000  Uiso   1.00
C874   C     0.28075   0.84047   0.74016   0.00000  Uiso   1.00
C875   C     0.13664   0.85420   0.92034   0.00000  Uiso   1.00
C876   C     0.32644   0.84304   0.73677   0.00000  Uiso   1.00
C877   C     0.00762   0.82345   0.76476   0.00000  Uiso   1.00
C878   C     0.18059   0.98973   0.73701   0.00000  Uiso   1.00
C879   C     0.15131   0.67880   0.76461   0.00000  Uiso   1.00
C880   C     0.15615   0.72282   0.76028   0.00000  Uiso   1.00
C881   C     0.17666   0.94469   0.74023   0.00000  Uiso   1.00
C882   C     0.07710   0.84327   0.98567   0.00000  Uiso   1.00
C883   C     0.18554   0.81501   0.62941   0.00000  Uiso   1.00
C884   C     0.14869   0.85143   0.87088   0.00000  Uiso   1.00
C885   C     0.24639   0.80084   0.51012   0.00000  Uiso   1.00
C886   C     0.19410   0.80913   0.58094   0.00000  Uiso   1.00
C887   C     0.09322   0.85582   0.94241   0.00000  Uiso   1.00
C888   C     0.10386   0.82977   0.50786   0.00000  Uiso   1.00
C889   C     0.14886   0.83372   0.98924   0.00000  Uiso   1.00
C890   C     0.16540   0.84585   0.94462   0.00000  Uiso   1.00
C891   C     0.17768   0.82391   0.51263   0.00000  Uiso   1.00
C892   C     0.22005   0.81710   0.98842   0.00000  Uiso   1.00
C893   C     0.23609   0.82920   0.94428   0.00000  Uiso   1.00
C894   C     0.21011   0.84883   0.92512   0.00000  Uiso   1.00
F895   F     0.25975   0.78301   0.57688   0.00000  Uiso   1.00
F896   F     0.28581   0.79079   0.98771   0.00000  Uiso   1.00
F897   F     0.13369   0.84264   0.58594   0.00000  Uiso   1.00
F898   F     0.06516   0.86464   0.92035   0.00000  Uiso   1.00
F899   F     0.08466   0.80877   0.54488   0.00000  Uiso   1.00
F900   F     0.03435   0.84055   0.50476   0.00000  Uiso   1.00
F901   F     0.02107   0.86568   0.70448   0.00000  Uiso   1.00
H902   H     0.33091   0.78846   0.81438   0.00000  Uiso   1.00
H903   H     0.23300   0.98950   0.68848   0.00000  Uiso   1.00
H904   H     0.09931   0.68293   0.81241   0.00000  Uiso   1.00
H905   H     0.28019   0.82249   0.88875   0.00000  Uiso   1.00
H906   H     0.25837   0.88206   0.88765   0.00000  Uiso   1.00
O907   O     0.16667   0.83333   0.75000   0.00000  Uiso   1.00
O908   O     0.15451   0.79304   0.65459   0.00000  Uiso   1.00
O909   O     0.12940   0.87058   0.84968   0.00000  Uiso   1.00
O910   O     0.20824   0.84425   0.64606   0.00000  Uiso   1.00
O911   O     0.17451   0.82546   0.84968   0.00000  Uiso   1.00
O912   O     0.31357   0.80012   0.79793   0.00000  Uiso   1.00
O913   O     0.21414   0.67656   0.70592   0.00000  Uiso   1.00
O914   O     0.11661   0.99416   0.79603   0.00000  Uiso   1.00
O915   O     0.27772   0.82385   0.92140   0.00000  Uiso   1.00
O916   O     0.22786   0.87265   0.88884   0.00000  Uiso   1.00
O917   O     0.17930   0.74686   0.78214   0.00000  Uiso   1.00
O918   O     0.14632   0.92751   0.77014   0.00000  Uiso   1.00
O919   O     0.07412   0.79958   0.73413   0.00000  Uiso   1.00
O920   O     0.26693   0.85939   0.71361   0.00000  Uiso   1.00
O921   O     0.07071   0.85544   0.78213   0.00000  Uiso   1.00
O922   O     0.25491   0.81892   0.77014   0.00000  Uiso   1.00
O923   O     0.13760   0.73610   0.73413   0.00000  Uiso   1.00
O924   O     0.20345   0.92286   0.71361   0.00000  Uiso   1.00
Zn925  Zn    0.19338   0.80661   0.78734   0.00000  Uiso   1.00
Zn926  Zn    0.13379   0.79124   0.71876   0.00000  Uiso   1.00
Zn927  Zn    0.21056   0.86442   0.70657   0.00000  Uiso   1.00
Zn928  Zn    0.12893   0.87106   0.78734   0.00000  Uiso   1.00
C929   C     0.38644   0.82673   0.75953   0.00000  Uiso   1.00
C930   C     0.50008   0.82319   0.55977   0.00000  Uiso   1.00
C931   C     0.56640   0.79646   0.55603   0.00000  Uiso   1.00
C932   C     0.61408   0.84047   0.74016   0.00000  Uiso   1.00
C933   C     0.46998   0.85420   0.92034   0.00000  Uiso   1.00
C934   C     0.65978   0.84304   0.73677   0.00000  Uiso   1.00
C935   C     0.34095   0.82345   0.76476   0.00000  Uiso   1.00
C936   C     0.51392   0.98973   0.73701   0.00000  Uiso   1.00
C937   C     0.48464   0.67880   0.76461   0.00000  Uiso   1.00
C938   C     0.48948   0.72282   0.76028   0.00000  Uiso   1.00
C939   C     0.50999   0.94469   0.74023   0.00000  Uiso   1.00
C940   C     0.41044   0.84327   0.98567   0.00000  Uiso   1.00
C941   C     0.51887   0.81501   0.62941   0.00000  Uiso   1.00
C942   C     0.48203   0.85143   0.87088   0.00000  Uiso   1.00
C943   C     0.57972   0.80084   0.51012   0.00000  Uiso   1.00
C944   C     0.52744   0.80913   0.58094   0.00000  Uiso   1.00
C945   C     0.42655   0.85582   0.94241   0.00000  Uiso   1.00
C946   C     0.43720   0.82977   0.50786   0.00000  Uiso   1.00
C947   C     0.48220   0.83372   0.98924   0.00000  Uiso   1.00
C948   C     0.49873   0.84585   0.94462   0.00000  Uiso   1.00
C949   C     0.51101   0.82391   0.51263   0.00000  Uiso   1.00
C950   C     0.55338   0.81710   0.98842   0.00000  Uiso   1.00
C951   C     0.56942   0.82920   0.94428   0.00000  Uiso   1.00
C952   C     0.54344   0.84883   0.92512   0.00000  Uiso   1.00
F953   F     0.59309   0.78301   0.57688   0.00000  Uiso   1.00
F954   F     0.61914   0.79079   0.98771   0.00000  Uiso   1.00
F955   F     0.46702   0.84264   0.58594   0.00000  Uiso   1.00
F956   F     0.39849   0.86464   0.92035   0.00000  Uiso   1.00
F957   F     0.41799   0.80877   0.54488   0.00000  Uiso   1.00
F958   F     0.36769   0.84055   0.50476   0.00000  Uiso   1.00
F959   F     0.35441   0.86568   0.70448   0.00000  Uiso   1.00
H960   H     0.66424   0.78846   0.81438   0.00000  Uiso   1.00
H961   H     0.56634   0.98950   0.68848   0.00000  Uiso   1.00
H962   H     0.43264   0.68293   0.81241   0.00000  Uiso   1.00
H963   H     0.61352   0.82249   0.88875   0.00000  Uiso   1.00
H964   H     0.59170   0.88206   0.88765   0.00000  Uiso   1.00
O965   O     0.50000   0.83333   0.75000   0.00000  Uiso   1.00
O966   O     0.48784   0.79304   0.65459   0.00000  Uiso   1.00
O967   O     0.46274   0.87058   0.84968   0.00000  Uiso   1.00
O968   O     0.54157   0.84425   0.64606   0.00000  Uiso   1.00
O969   O     0.50785   0.82546   0.84968   0.00000  Uiso   1.00
O970   O     0.64691   0.80012   0.79793   0.00000  Uiso   1.00
O971   O     0.54747   0.67656   0.70592   0.00000  Uiso   1.00
O972   O     0.44994   0.99416   0.79603   0.00000  Uiso   1.00
O973   O     0.61106   0.82385   0.92140   0.00000  Uiso   1.00
O974   O     0.56120   0.87265   0.88884   0.00000  Uiso   1.00
O975   O     0.51264   0.74686   0.78214   0.00000  Uiso   1.00
O976   O     0.47965   0.92751   0.77014   0.00000  Uiso   1.00
O977   O     0.40745   0.79958   0.73413   0.00000  Uiso   1.00
O978   O     0.60026   0.85939   0.71361   0.00000  Uiso   1.00
O979   O     0.40405   0.85544   0.78213   0.00000  Uiso   1.00
O980   O     0.58824   0.81892   0.77014   0.00000  Uiso   1.00
O981   O     0.47093   0.73610   0.73413   0.00000  Uiso   1.00
O982   O     0.53678   0.92286   0.71361   0.00000  Uiso   1.00
Zn983  Zn    0.52672   0.80661   0.78734   0.00000  Uiso   1.00
Zn984  Zn    0.46713   0.79124   0.71876   0.00000  Uiso   1.00
Zn985  Zn    0.54389   0.86442   0.70657   0.00000  Uiso   1.00
Zn986  Zn    0.46226   0.87106   0.78734   0.00000  Uiso   1.00
C987   C     0.71978   0.82673   0.75953   0.00000  Uiso   1.00
C988   C     0.83341   0.82319   0.55977   0.00000  Uiso   1.00
C989   C     0.89973   0.79646   0.55603   0.00000  Uiso   1.00
C990   C     0.94742   0.84047   0.74016   0.00000  Uiso   1.00
C991   C     0.80331   0.85420   0.92034   0.00000  Uiso   1.00
C992   C     0.99311   0.84304   0.73677   0.00000  Uiso   1.00
C993   C     0.67429   0.82345   0.76476   0.00000  Uiso   1.00
C994   C     0.84726   0.98973   0.73701   0.00000  Uiso   1.00
C995   C     0.81797   0.67880   0.76461   0.00000  Uiso   1.00
C996   C     0.82281   0.72282   0.76028   0.00000  Uiso   1.00
C997   C     0.84332   0.94469   0.74023   0.00000  Uiso   1.00
C998   C     0.74377   0.84327   0.98567   0.00000  Uiso   1.00
C999   C     0.85221   0.81501   0.62941   0.00000  Uiso   1.00
C1000  C     0.81536   0.85143   0.87088   0.00000  Uiso   1.00
C1001  C     0.91306   0.80084   0.51012   0.00000  Uiso   1.00
C1002  C     0.86077   0.80913   0.58094   0.00000  Uiso   1.00
C1003  C     0.75988   0.85582   0.94241   0.00000  Uiso   1.00
C1004  C     0.77053   0.82977   0.50786   0.00000  Uiso   1.00
C1005  C     0.81553   0.83372   0.98924   0.00000  Uiso   1.00
C1006  C     0.83206   0.84585   0.94462   0.00000  Uiso   1.00
C1007  C     0.84434   0.82391   0.51263   0.00000  Uiso   1.00
C1008  C     0.88671   0.81710   0.98842   0.00000  Uiso   1.00
C1009  C     0.90276   0.82920   0.94428   0.00000  Uiso   1.00
C1010  C     0.87677   0.84883   0.92512   0.00000  Uiso   1.00
F1011  F     0.92642   0.78301   0.57688   0.00000  Uiso   1.00
F1012  F     0.95248   0.79079   0.98771   0.00000  Uiso   1.00
F1013  F     0.80036   0.84264   0.58594   0.00000  Uiso   1.00
F1014  F     0.73183   0.86464   0.92035   0.00000  Uiso   1.00
F1015  F     0.75133   0.80877   0.54488   0.00000  Uiso   1.00
F1016  F     0.70102   0.84055   0.50476   0.00000  Uiso   1.00
F1017  F     0.68774   0.86568   0.70448   0.00000  Uiso   1.00
H1018  H     0.99758   0.78846   0.81438   0.00000  Uiso   1.00
H1019  H     0.89967   0.98950   0.68848   0.00000  Uiso   1.00
H1020  H     0.76597   0.68293   0.81241   0.00000  Uiso   1.00
H1021  H     0.94685   0.82249   0.88875   0.00000  Uiso   1.00
H1022  H     0.92503   0.88206   0.88765   0.00000  Uiso   1.00
O1023  O     0.83333   0.83333   0.75000   0.00000  Uiso   1.00
O1024  O     0.82118   0.79304   0.65459   0.00000  Uiso   1.00
O1025  O     0.79607   0.87058   0.84968   0.00000  Uiso   1.00
O1026  O     0.87491   0.84425   0.64606   0.00000  Uiso   1.00
O1027  O     0.84118   0.82546   0.84968   0.00000  Uiso   1.00
O1028  O     0.98024   0.80012   0.79793   0.00000  Uiso   1.00
O1029  O     0.88081   0.67656   0.70592   0.00000  Uiso   1.00
O1030  O     0.78328   0.99416   0.79603   0.00000  Uiso   1.00
O1031  O     0.94439   0.82385   0.92140   0.00000  Uiso   1.00
O1032  O     0.89453   0.87265   0.88884   0.00000  Uiso   1.00
O1033  O     0.84597   0.74686   0.78214   0.00000  Uiso   1.00
O1034  O     0.81298   0.92751   0.77014   0.00000  Uiso   1.00
O1035  O     0.74078   0.79958   0.73413   0.00000  Uiso   1.00
O1036  O     0.93360   0.85939   0.71361   0.00000  Uiso   1.00
O1037  O     0.73738   0.85544   0.78213   0.00000  Uiso   1.00
O1038  O     0.92158   0.81892   0.77014   0.00000  Uiso   1.00
O1039  O     0.80426   0.73610   0.73413   0.00000  Uiso   1.00
O1040  O     0.87012   0.92286   0.71361   0.00000  Uiso   1.00
Zn1041 Zn    0.86005   0.80661   0.78734   0.00000  Uiso   1.00
Zn1042 Zn    0.80046   0.79124   0.71876   0.00000  Uiso   1.00
Zn1043 Zn    0.87723   0.86442   0.70657   0.00000  Uiso   1.00
Zn1044 Zn    0.79560   0.87106   0.78734   0.00000  Uiso   1.00
loop_
_geom_bond_atom_site_label_1
_geom_bond_atom_site_label_2
_geom_bond_distance
_geom_bond_site_symmetry_2
_ccdc_geom_bond_type
C1     O51     1.271   .     A
C1     O49     1.271   .     A
C1     C7      1.440   .     S
C2     F27     1.360   .     S
C2     C16     1.392   .     A
C2     C21     1.411   .     A
C3     C15     1.390   .     A
C3     F25     1.358   .     S
C3     C16     1.395   .     A
C4     O52     1.273   .     A
C4     C6      1.458   .     S
C4     O50     1.286   .     A
C5     C17     1.407   .     A
C5     C20     1.421   .     A
C5     C14     1.474   .     S
C6     C65     1.348   .     S
C6     F89     1.363   .     S
C7     C122    1.348   1_455 S
C7     O158    1.384   1_455 S
C8     C11     1.469   .     S
C8     C183    1.347   .     S
C8     O217    1.388   .     S
C9     C10     1.440   .     S
C9     C356    1.347   1_545 S
C9     O392    1.384   1_545 S
C10    O47     1.278   .     A
C10    O53     1.276   .     A
C11    O48     1.271   .     A
C11    O54     1.275   .     A
C12    C17     1.387   .     A
C12    C540    1.390   .     S
C12    F552    1.357   .     S
C13    C16     1.450   .     S
C13    O38     1.279   .     A
C13    O40     1.272   .     A
C14    O41     1.286   .     A
C14    O39     1.283   .     A
C15    C544    1.413   1_554 S
C15    F548    1.358   1_554 S
C17    F28     1.359   .     S
C18    F29     1.357   .     S
C18    C534    1.390   1_554 S
C18    C541    1.420   1_554 S
C19    C20     1.421   .     A
C19    C540    1.420   .     S
C19    C543    1.421   .     S
C20    C24     1.417   .     A
C21    C541    1.421   1_554 S
C21    C544    1.424   1_554 S
C22    C23     1.406   .     A
C22    C537    1.413   .     S
C22    C543    1.424   .     S
C23    C24     1.413   .     A
C23    O45     1.382   .     S
C24    O46     1.384   .     S
F26    C537    1.358   .     S
F30    C534    1.357   1_554 S
F31    C122    1.363   1_455 S
H32    O42     0.992   .     S
H33    O217    0.990   .     S
H34    O392    0.992   1_545 S
H35    O45     0.991   .     S
H36    O46     0.991   .     S
O37    Zn58    1.937   .     S
O37    Zn55    1.961   .     S
O37    Zn56    1.954   .     S
O37    Zn57    1.933   .     S
O38    Zn56    1.928   .     S
O39    Zn58    1.939   .     S
O40    Zn57    1.938   .     S
O41    Zn55    1.927   .     S
O42    C65     1.384   .     S
O43    H381    0.990   1_545 S
O43    C356    1.388   1_545 S
O44    H208    0.992   .     S
O44    C183    1.384   .     S
O47    Zn55    1.937   .     S
O48    Zn58    1.936   .     S
O49    Zn56    1.932   .     S
O50    Zn57    1.943   .     S
O51    Zn58    1.940   .     S
O52    Zn55    1.929   .     S
O53    Zn56    1.941   .     S
O54    Zn57    1.938   .     S
C59    O109    1.271   .     A
C59    O107    1.271   .     A
C59    C65     1.440   .     S
C60    F85     1.360   .     S
C60    C74     1.392   .     A
C60    C79     1.411   .     A
C61    C73     1.390   .     A
C61    F83     1.358   .     S
C61    C74     1.395   .     A
C62    O110    1.273   .     A
C62    C64     1.458   .     S
C62    O108    1.286   .     A
C63    C75     1.407   .     A
C63    C78     1.421   .     A
C63    C72     1.474   .     S
C64    C123    1.348   .     S
C64    F147    1.363   .     S
C66    C69     1.469   .     S
C66    C241    1.347   .     S
C66    O275    1.388   .     S
C67    C68     1.440   .     S
C67    C414    1.347   1_545 S
C67    O450    1.384   1_545 S
C68    O105    1.278   .     A
C68    O111    1.276   .     A
C69    O106    1.271   .     A
C69    O112    1.275   .     A
C70    C75     1.387   .     A
C70    C598    1.390   .     S
C70    F610    1.357   .     S
C71    C74     1.450   .     S
C71    O96     1.279   .     A
C71    O98     1.272   .     A
C72    O99     1.286   .     A
C72    O97     1.283   .     A
C73    C602    1.413   1_554 S
C73    F606    1.358   1_554 S
C75    F86     1.359   .     S
C76    F87     1.357   .     S
C76    C592    1.390   1_554 S
C76    C599    1.420   1_554 S
C77    C78     1.421   .     A
C77    C598    1.420   .     S
C77    C601    1.421   .     S
C78    C82     1.417   .     A
C79    C599    1.421   1_554 S
C79    C602    1.424   1_554 S
C80    C81     1.406   .     A
C80    C595    1.413   .     S
C80    C601    1.424   .     S
C81    C82     1.413   .     A
C81    O103    1.382   .     S
C82    O104    1.384   .     S
F84    C595    1.358   .     S
F88    C592    1.357   1_554 S
H90    O100    0.992   .     S
H91    O275    0.990   .     S
H92    O450    0.992   1_545 S
H93    O103    0.991   .     S
H94    O104    0.991   .     S
O95    Zn116   1.937   .     S
O95    Zn113   1.961   .     S
O95    Zn114   1.954   .     S
O95    Zn115   1.933   .     S
O96    Zn114   1.928   .     S
O97    Zn116   1.939   .     S
O98    Zn115   1.938   .     S
O99    Zn113   1.927   .     S
O100   C123    1.384   .     S
O101   H439    0.990   1_545 S
O101   C414    1.388   1_545 S
O102   H266    0.992   .     S
O102   C241    1.384   .     S
O105   Zn113   1.937   .     S
O106   Zn116   1.936   .     S
O107   Zn114   1.932   .     S
O108   Zn115   1.943   .     S
O109   Zn116   1.940   .     S
O110   Zn113   1.929   .     S
O111   Zn114   1.941   .     S
O112   Zn115   1.938   .     S
C117   O167    1.271   .     A
C117   O165    1.271   .     A
C117   C123    1.440   .     S
C118   F143    1.360   .     S
C118   C132    1.392   .     A
C118   C137    1.411   .     A
C119   C131    1.390   .     A
C119   F141    1.358   .     S
C119   C132    1.395   .     A
C120   O168    1.273   .     A
C120   C122    1.458   .     S
C120   O166    1.286   .     A
C121   C133    1.407   .     A
C121   C136    1.421   .     A
C121   C130    1.474   .     S
C122   C7      1.348   1_655 S
C122   F31     1.363   1_655 S
C124   C127    1.469   .     S
C124   C299    1.347   .     S
C124   O333    1.388   .     S
C125   C126    1.440   .     S
C125   C472    1.347   1_545 S
C125   O508    1.384   1_545 S
C126   O163    1.278   .     A
C126   O169    1.276   .     A
C127   O164    1.271   .     A
C127   O170    1.275   .     A
C128   C133    1.387   .     A
C128   C656    1.390   .     S
C128   F668    1.357   .     S
C129   C132    1.450   .     S
C129   O154    1.279   .     A
C129   O156    1.272   .     A
C130   O157    1.286   .     A
C130   O155    1.283   .     A
C131   C660    1.413   1_554 S
C131   F664    1.358   1_554 S
C133   F144    1.359   .     S
C134   F145    1.357   .     S
C134   C650    1.390   1_554 S
C134   C657    1.420   1_554 S
C135   C136    1.421   .     A
C135   C656    1.420   .     S
C135   C659    1.421   .     S
C136   C140    1.417   .     A
C137   C657    1.421   1_554 S
C137   C660    1.424   1_554 S
C138   C139    1.406   .     A
C138   C653    1.413   .     S
C138   C659    1.424   .     S
C139   C140    1.413   .     A
C139   O161    1.382   .     S
C140   O162    1.384   .     S
F142   C653    1.358   .     S
F146   C650    1.357   1_554 S
H148   O158    0.992   .     S
H149   O333    0.990   .     S
H150   O508    0.992   1_545 S
H151   O161    0.991   .     S
H152   O162    0.991   .     S
O153   Zn174   1.937   .     S
O153   Zn171   1.961   .     S
O153   Zn172   1.954   .     S
O153   Zn173   1.933   .     S
O154   Zn172   1.928   .     S
O155   Zn174   1.939   .     S
O156   Zn173   1.938   .     S
O157   Zn171   1.927   .     S
O158   C7      1.384   1_655 S
O159   H497    0.990   1_545 S
O159   C472    1.388   1_545 S
O160   H324    0.992   .     S
O160   C299    1.384   .     S
O163   Zn171   1.937   .     S
O164   Zn174   1.936   .     S
O165   Zn172   1.932   .     S
O166   Zn173   1.943   .     S
O167   Zn174   1.940   .     S
O168   Zn171   1.929   .     S
O169   Zn172   1.941   .     S
O170   Zn173   1.938   .     S
C175   O225    1.271   .     A
C175   O223    1.271   .     A
C175   C181    1.440   .     S
C176   F201    1.360   .     S
C176   C190    1.392   .     A
C176   C195    1.411   .     A
C177   C189    1.390   .     A
C177   F199    1.358   .     S
C177   C190    1.395   .     A
C178   O226    1.273   .     A
C178   C180    1.458   .     S
C178   O224    1.286   .     A
C179   C191    1.407   .     A
C179   C194    1.421   .     A
C179   C188    1.474   .     S
C180   C239    1.348   .     S
C180   F263    1.363   .     S
C181   C296    1.348   1_455 S
C181   O332    1.384   1_455 S
C182   C185    1.469   .     S
C182   C357    1.347   .     S
C182   O391    1.388   .     S
C183   C184    1.440   .     S
C184   O221    1.278   .     A
C184   O227    1.276   .     A
C185   O222    1.271   .     A
C185   O228    1.275   .     A
C186   C191    1.387   .     A
C186   C714    1.390   .     S
C186   F726    1.357   .     S
C187   C190    1.450   .     S
C187   O212    1.279   .     A
C187   O214    1.272   .     A
C188   O215    1.286   .     A
C188   O213    1.283   .     A
C189   C718    1.413   1_554 S
C189   F722    1.358   1_554 S
C191   F202    1.359   .     S
C192   F203    1.357   .     S
C192   C708    1.390   1_554 S
C192   C715    1.420   1_554 S
C193   C194    1.421   .     A
C193   C714    1.420   .     S
C193   C717    1.421   .     S
C194   C198    1.417   .     A
C195   C715    1.421   1_554 S
C195   C718    1.424   1_554 S
C196   C197    1.406   .     A
C196   C711    1.413   .     S
C196   C717    1.424   .     S
C197   C198    1.413   .     A
C197   O219    1.382   .     S
C198   O220    1.384   .     S
F200   C711    1.358   .     S
F204   C708    1.357   1_554 S
F205   C296    1.363   1_455 S
H206   O216    0.992   .     S
H207   O391    0.990   .     S
H209   O219    0.991   .     S
H210   O220    0.991   .     S
O211   Zn232   1.937   .     S
O211   Zn229   1.961   .     S
O211   Zn230   1.954   .     S
O211   Zn231   1.933   .     S
O212   Zn230   1.928   .     S
O213   Zn232   1.939   .     S
O214   Zn231   1.938   .     S
O215   Zn229   1.927   .     S
O216   C239    1.384   .     S
O218   H382    0.992   .     S
O218   C357    1.384   .     S
O221   Zn229   1.937   .     S
O222   Zn232   1.936   .     S
O223   Zn230   1.932   .     S
O224   Zn231   1.943   .     S
O225   Zn232   1.940   .     S
O226   Zn229   1.929   .     S
O227   Zn230   1.941   .     S
O228   Zn231   1.938   .     S
C233   O283    1.271   .     A
C233   O281    1.271   .     A
C233   C239    1.440   .     S
C234   F259    1.360   .     S
C234   C248    1.392   .     A
C234   C253    1.411   .     A
C235   C247    1.390   .     A
C235   F257    1.358   .     S
C235   C248    1.395   .     A
C236   O284    1.273   .     A
C236   C238    1.458   .     S
C236   O282    1.286   .     A
C237   C249    1.407   .     A
C237   C252    1.421   .     A
C237   C246    1.474   .     S
C238   C297    1.348   .     S
C238   F321    1.363   .     S
C240   C243    1.469   .     S
C240   C415    1.347   .     S
C240   O449    1.388   .     S
C241   C242    1.440   .     S
C242   O279    1.278   .     A
C242   O285    1.276   .     A
C243   O280    1.271   .     A
C243   O286    1.275   .     A
C244   C249    1.387   .     A
C244   C772    1.390   .     S
C244   F784    1.357   .     S
C245   C248    1.450   .     S
C245   O270    1.279   .     A
C245   O272    1.272   .     A
C246   O273    1.286   .     A
C246   O271    1.283   .     A
C247   C776    1.413   1_554 S
C247   F780    1.358   1_554 S
C249   F260    1.359   .     S
C250   F261    1.357   .     S
C250   C766    1.390   1_554 S
C250   C773    1.420   1_554 S
C251   C252    1.421   .     A
C251   C772    1.420   .     S
C251   C775    1.421   .     S
C252   C256    1.417   .     A
C253   C773    1.421   1_554 S
C253   C776    1.424   1_554 S
C254   C255    1.406   .     A
C254   C769    1.413   .     S
C254   C775    1.424   .     S
C255   C256    1.413   .     A
C255   O277    1.382   .     S
C256   O278    1.384   .     S
F258   C769    1.358   .     S
F262   C766    1.357   1_554 S
H264   O274    0.992   .     S
H265   O449    0.990   .     S
H267   O277    0.991   .     S
H268   O278    0.991   .     S
O269   Zn290   1.937   .     S
O269   Zn287   1.961   .     S
O269   Zn288   1.954   .     S
O269   Zn289   1.933   .     S
O270   Zn288   1.928   .     S
O271   Zn290   1.939   .     S
O272   Zn289   1.938   .     S
O273   Zn287   1.927   .     S
O274   C297    1.384   .     S
O276   H440    0.992   .     S
O276   C415    1.384   .     S
O279   Zn287   1.937   .     S
O280   Zn290   1.936   .     S
O281   Zn288   1.932   .     S
O282   Zn289   1.943   .     S
O283   Zn290   1.940   .     S
O284   Zn287   1.929   .     S
O285   Zn288   1.941   .     S
O286   Zn289   1.938   .     S
C291   O341    1.271   .     A
C291   O339    1.271   .     A
C291   C297    1.440   .     S
C292   F317    1.360   .     S
C292   C306    1.392   .     A
C292   C311    1.411   .     A
C293   C305    1.390   .     A
C293   F315    1.358   .     S
C293   C306    1.395   .     A
C294   O342    1.273   .     A
C294   C296    1.458   .     S
C294   O340    1.286   .     A
C295   C307    1.407   .     A
C295   C310    1.421   .     A
C295   C304    1.474   .     S
C296   C181    1.348   1_655 S
C296   F205    1.363   1_655 S
C298   C301    1.469   .     S
C298   C473    1.347   .     S
C298   O507    1.388   .     S
C299   C300    1.440   .     S
C300   O337    1.278   .     A
C300   O343    1.276   .     A
C301   O338    1.271   .     A
C301   O344    1.275   .     A
C302   C307    1.387   .     A
C302   C830    1.390   .     S
C302   F842    1.357   .     S
C303   C306    1.450   .     S
C303   O328    1.279   .     A
C303   O330    1.272   .     A
C304   O331    1.286   .     A
C304   O329    1.283   .     A
C305   C834    1.413   1_554 S
C305   F838    1.358   1_554 S
C307   F318    1.359   .     S
C308   F319    1.357   .     S
C308   C824    1.390   1_554 S
C308   C831    1.420   1_554 S
C309   C310    1.421   .     A
C309   C830    1.420   .     S
C309   C833    1.421   .     S
C310   C314    1.417   .     A
C311   C831    1.421   1_554 S
C311   C834    1.424   1_554 S
C312   C313    1.406   .     A
C312   C827    1.413   .     S
C312   C833    1.424   .     S
C313   C314    1.413   .     A
C313   O335    1.382   .     S
C314   O336    1.384   .     S
F316   C827    1.358   .     S
F320   C824    1.357   1_554 S
H322   O332    0.992   .     S
H323   O507    0.990   .     S
H325   O335    0.991   .     S
H326   O336    0.991   .     S
O327   Zn348   1.937   .     S
O327   Zn345   1.961   .     S
O327   Zn346   1.954   .     S
O327   Zn347   1.933   .     S
O328   Zn346   1.928   .     S
O329   Zn348   1.939   .     S
O330   Zn347   1.938   .     S
O331   Zn345   1.927   .     S
O332   C181    1.384   1_655 S
O334   H498    0.992   .     S
O334   C473    1.384   .     S
O337   Zn345   1.937   .     S
O338   Zn348   1.936   .     S
O339   Zn346   1.932   .     S
O340   Zn347   1.943   .     S
O341   Zn348   1.940   .     S
O342   Zn345   1.929   .     S
O343   Zn346   1.941   .     S
O344   Zn347   1.938   .     S
C349   O399    1.271   .     A
C349   O397    1.271   .     A
C349   C355    1.440   .     S
C350   F375    1.360   .     S
C350   C364    1.392   .     A
C350   C369    1.411   .     A
C351   C363    1.390   .     A
C351   F373    1.358   .     S
C351   C364    1.395   .     A
C352   O400    1.273   .     A
C352   C354    1.458   .     S
C352   O398    1.286   .     A
C353   C365    1.407   .     A
C353   C368    1.421   .     A
C353   C362    1.474   .     S
C354   C413    1.348   .     S
C354   F437    1.363   .     S
C355   C470    1.348   1_455 S
C355   O506    1.384   1_455 S
C356   C359    1.469   .     S
C356   C9      1.347   1_565 S
C356   O43     1.388   1_565 S
C357   C358    1.440   .     S
C358   O395    1.278   .     A
C358   O401    1.276   .     A
C359   O396    1.271   .     A
C359   O402    1.275   .     A
C360   C365    1.387   .     A
C360   C888    1.390   .     S
C360   F900    1.357   .     S
C361   C364    1.450   .     S
C361   O386    1.279   .     A
C361   O388    1.272   .     A
C362   O389    1.286   .     A
C362   O387    1.283   .     A
C363   C892    1.413   1_554 S
C363   F896    1.358   1_554 S
C365   F376    1.359   .     S
C366   F377    1.357   .     S
C366   C882    1.390   1_554 S
C366   C889    1.420   1_554 S
C367   C368    1.421   .     A
C367   C888    1.420   .     S
C367   C891    1.421   .     S
C368   C372    1.417   .     A
C369   C889    1.421   1_554 S
C369   C892    1.424   1_554 S
C370   C371    1.406   .     A
C370   C885    1.413   .     S
C370   C891    1.424   .     S
C371   C372    1.413   .     A
C371   O393    1.382   .     S
C372   O394    1.384   .     S
F374   C885    1.358   .     S
F378   C882    1.357   1_554 S
F379   C470    1.363   1_455 S
H380   O390    0.992   .     S
H381   O43     0.990   1_565 S
H383   O393    0.991   .     S
H384   O394    0.991   .     S
O385   Zn406   1.937   .     S
O385   Zn403   1.961   .     S
O385   Zn404   1.954   .     S
O385   Zn405   1.933   .     S
O386   Zn404   1.928   .     S
O387   Zn406   1.939   .     S
O388   Zn405   1.938   .     S
O389   Zn403   1.927   .     S
O390   C413    1.384   .     S
O392   H34     0.992   1_565 S
O392   C9      1.384   1_565 S
O395   Zn403   1.937   .     S
O396   Zn406   1.936   .     S
O397   Zn404   1.932   .     S
O398   Zn405   1.943   .     S
O399   Zn406   1.940   .     S
O400   Zn403   1.929   .     S
O401   Zn404   1.941   .     S
O402   Zn405   1.938   .     S
C407   O457    1.271   .     A
C407   O455    1.271   .     A
C407   C413    1.440   .     S
C408   F433    1.360   .     S
C408   C422    1.392   .     A
C408   C427    1.411   .     A
C409   C421    1.390   .     A
C409   F431    1.358   .     S
C409   C422    1.395   .     A
C410   O458    1.273   .     A
C410   C412    1.458   .     S
C410   O456    1.286   .     A
C411   C423    1.407   .     A
C411   C426    1.421   .     A
C411   C420    1.474   .     S
C412   C471    1.348   .     S
C412   F495    1.363   .     S
C414   C417    1.469   .     S
C414   C67     1.347   1_565 S
C414   O101    1.388   1_565 S
C415   C416    1.440   .     S
C416   O453    1.278   .     A
C416   O459    1.276   .     A
C417   O454    1.271   .     A
C417   O460    1.275   .     A
C418   C423    1.387   .     A
C418   C946    1.390   .     S
C418   F958    1.357   .     S
C419   C422    1.450   .     S
C419   O444    1.279   .     A
C419   O446    1.272   .     A
C420   O447    1.286   .     A
C420   O445    1.283   .     A
C421   C950    1.413   1_554 S
C421   F954    1.358   1_554 S
C423   F434    1.359   .     S
C424   F435    1.357   .     S
C424   C940    1.390   1_554 S
C424   C947    1.420   1_554 S
C425   C426    1.421   .     A
C425   C946    1.420   .     S
C425   C949    1.421   .     S
C426   C430    1.417   .     A
C427   C947    1.421   1_554 S
C427   C950    1.424   1_554 S
C428   C429    1.406   .     A
C428   C943    1.413   .     S
C428   C949    1.424   .     S
C429   C430    1.413   .     A
C429   O451    1.382   .     S
C430   O452    1.384   .     S
F432   C943    1.358   .     S
F436   C940    1.357   1_554 S
H438   O448    0.992   .     S
H439   O101    0.990   1_565 S
H441   O451    0.991   .     S
H442   O452    0.991   .     S
O443   Zn464   1.937   .     S
O443   Zn461   1.961   .     S
O443   Zn462   1.954   .     S
O443   Zn463   1.933   .     S
O444   Zn462   1.928   .     S
O445   Zn464   1.939   .     S
O446   Zn463   1.938   .     S
O447   Zn461   1.927   .     S
O448   C471    1.384   .     S
O450   H92     0.992   1_565 S
O450   C67     1.384   1_565 S
O453   Zn461   1.937   .     S
O454   Zn464   1.936   .     S
O455   Zn462   1.932   .     S
O456   Zn463   1.943   .     S
O457   Zn464   1.940   .     S
O458   Zn461   1.929   .     S
O459   Zn462   1.941   .     S
O460   Zn463   1.938   .     S
C465   O515    1.271   .     A
C465   O513    1.271   .     A
C465   C471    1.440   .     S
C466   F491    1.360   .     S
C466   C480    1.392   .     A
C466   C485    1.411   .     A
C467   C479    1.390   .     A
C467   F489    1.358   .     S
C467   C480    1.395   .     A
C468   O516    1.273   .     A
C468   C470    1.458   .     S
C468   O514    1.286   .     A
C469   C481    1.407   .     A
C469   C484    1.421   .     A
C469   C478    1.474   .     S
C470   C355    1.348   1_655 S
C470   F379    1.363   1_655 S
C472   C475    1.469   .     S
C472   C125    1.347   1_565 S
C472   O159    1.388   1_565 S
C473   C474    1.440   .     S
C474   O511    1.278   .     A
C474   O517    1.276   .     A
C475   O512    1.271   .     A
C475   O518    1.275   .     A
C476   C481    1.387   .     A
C476   C1004   1.390   .     S
C476   F1016   1.357   .     S
C477   C480    1.450   .     S
C477   O502    1.279   .     A
C477   O504    1.272   .     A
C478   O505    1.286   .     A
C478   O503    1.283   .     A
C479   C1008   1.413   1_554 S
C479   F1012   1.358   1_554 S
C481   F492    1.359   .     S
C482   F493    1.357   .     S
C482   C998    1.390   1_554 S
C482   C1005   1.420   1_554 S
C483   C484    1.421   .     A
C483   C1004   1.420   .     S
C483   C1007   1.421   .     S
C484   C488    1.417   .     A
C485   C1005   1.421   1_554 S
C485   C1008   1.424   1_554 S
C486   C487    1.406   .     A
C486   C1001   1.413   .     S
C486   C1007   1.424   .     S
C487   C488    1.413   .     A
C487   O509    1.382   .     S
C488   O510    1.384   .     S
F490   C1001   1.358   .     S
F494   C998    1.357   1_554 S
H496   O506    0.992   .     S
H497   O159    0.990   1_565 S
H499   O509    0.991   .     S
H500   O510    0.991   .     S
O501   Zn522   1.937   .     S
O501   Zn519   1.961   .     S
O501   Zn520   1.954   .     S
O501   Zn521   1.933   .     S
O502   Zn520   1.928   .     S
O503   Zn522   1.939   .     S
O504   Zn521   1.938   .     S
O505   Zn519   1.927   .     S
O506   C355    1.384   1_655 S
O508   H150    0.992   1_565 S
O508   C125    1.384   1_565 S
O511   Zn519   1.937   .     S
O512   Zn522   1.936   .     S
O513   Zn520   1.932   .     S
O514   Zn521   1.943   .     S
O515   Zn522   1.940   .     S
O516   Zn519   1.929   .     S
O517   Zn520   1.941   .     S
O518   Zn521   1.938   .     S
C523   O573    1.271   .     A
C523   O571    1.271   .     A
C523   C529    1.440   .     S
C524   F549    1.360   .     S
C524   C538    1.392   .     A
C524   C543    1.411   .     A
C525   C537    1.390   .     A
C525   F547    1.358   .     S
C525   C538    1.395   .     A
C526   O574    1.273   .     A
C526   C528    1.458   .     S
C526   O572    1.286   .     A
C527   C539    1.407   .     A
C527   C542    1.421   .     A
C527   C536    1.474   .     S
C528   C587    1.348   .     S
C528   F611    1.363   .     S
C529   C644    1.348   1_455 S
C529   O680    1.384   1_455 S
C530   C533    1.469   .     S
C530   C705    1.347   .     S
C530   O739    1.388   .     S
C531   C532    1.440   .     S
C531   C878    1.347   1_545 S
C531   O914    1.384   1_545 S
C532   O569    1.278   .     A
C532   O575    1.276   .     A
C533   O570    1.271   .     A
C533   O576    1.275   .     A
C534   C539    1.387   .     A
C534   C18     1.390   1_556 S
C534   F30     1.357   1_556 S
C535   C538    1.450   .     S
C535   O560    1.279   .     A
C535   O562    1.272   .     A
C536   O563    1.286   .     A
C536   O561    1.283   .     A
C539   F550    1.359   .     S
C540   F551    1.357   .     S
C541   C542    1.421   .     A
C541   C18     1.420   1_556 S
C541   C21     1.421   1_556 S
C542   C546    1.417   .     A
C544   C545    1.406   .     A
C544   C15     1.413   1_556 S
C544   C21     1.424   1_556 S
C545   C546    1.413   .     A
C545   O567    1.382   .     S
C546   O568    1.384   .     S
F548   C15     1.358   1_556 S
F553   C644    1.363   1_455 S
H554   O564    0.992   .     S
H555   O739    0.990   .     S
H556   O914    0.992   1_545 S
H557   O567    0.991   .     S
H558   O568    0.991   .     S
O559   Zn580   1.937   .     S
O559   Zn577   1.961   .     S
O559   Zn578   1.954   .     S
O559   Zn579   1.933   .     S
O560   Zn578   1.928   .     S
O561   Zn580   1.939   .     S
O562   Zn579   1.938   .     S
O563   Zn577   1.927   .     S
O564   C587    1.384   .     S
O565   H903    0.990   1_545 S
O565   C878    1.388   1_545 S
O566   H730    0.992   .     S
O566   C705    1.384   .     S
O569   Zn577   1.937   .     S
O570   Zn580   1.936   .     S
O571   Zn578   1.932   .     S
O572   Zn579   1.943   .     S
O573   Zn580   1.940   .     S
O574   Zn577   1.929   .     S
O575   Zn578   1.941   .     S
O576   Zn579   1.938   .     S
C581   O631    1.271   .     A
C581   O629    1.271   .     A
C581   C587    1.440   .     S
C582   F607    1.360   .     S
C582   C596    1.392   .     A
C582   C601    1.411   .     A
C583   C595    1.390   .     A
C583   F605    1.358   .     S
C583   C596    1.395   .     A
C584   O632    1.273   .     A
C584   C586    1.458   .     S
C584   O630    1.286   .     A
C585   C597    1.407   .     A
C585   C600    1.421   .     A
C585   C594    1.474   .     S
C586   C645    1.348   .     S
C586   F669    1.363   .     S
C588   C591    1.469   .     S
C588   C763    1.347   .     S
C588   O797    1.388   .     S
C589   C590    1.440   .     S
C589   C936    1.347   1_545 S
C589   O972    1.384   1_545 S
C590   O627    1.278   .     A
C590   O633    1.276   .     A
C591   O628    1.271   .     A
C591   O634    1.275   .     A
C592   C597    1.387   .     A
C592   C76     1.390   1_556 S
C592   F88     1.357   1_556 S
C593   C596    1.450   .     S
C593   O618    1.279   .     A
C593   O620    1.272   .     A
C594   O621    1.286   .     A
C594   O619    1.283   .     A
C597   F608    1.359   .     S
C598   F609    1.357   .     S
C599   C600    1.421   .     A
C599   C76     1.420   1_556 S
C599   C79     1.421   1_556 S
C600   C604    1.417   .     A
C602   C603    1.406   .     A
C602   C73     1.413   1_556 S
C602   C79     1.424   1_556 S
C603   C604    1.413   .     A
C603   O625    1.382   .     S
C604   O626    1.384   .     S
F606   C73     1.358   1_556 S
H612   O622    0.992   .     S
H613   O797    0.990   .     S
H614   O972    0.992   1_545 S
H615   O625    0.991   .     S
H616   O626    0.991   .     S
O617   Zn638   1.937   .     S
O617   Zn635   1.961   .     S
O617   Zn636   1.954   .     S
O617   Zn637   1.933   .     S
O618   Zn636   1.928   .     S
O619   Zn638   1.939   .     S
O620   Zn637   1.938   .     S
O621   Zn635   1.927   .     S
O622   C645    1.384   .     S
O623   H961    0.990   1_545 S
O623   C936    1.388   1_545 S
O624   H788    0.992   .     S
O624   C763    1.384   .     S
O627   Zn635   1.937   .     S
O628   Zn638   1.936   .     S
O629   Zn636   1.932   .     S
O630   Zn637   1.943   .     S
O631   Zn638   1.940   .     S
O632   Zn635   1.929   .     S
O633   Zn636   1.941   .     S
O634   Zn637   1.938   .     S
C639   O689    1.271   .     A
C639   O687    1.271   .     A
C639   C645    1.440   .     S
C640   F665    1.360   .     S
C640   C654    1.392   .     A
C640   C659    1.411   .     A
C641   C653    1.390   .     A
C641   F663    1.358   .     S
C641   C654    1.395   .     A
C642   O690    1.273   .     A
C642   C644    1.458   .     S
C642   O688    1.286   .     A
C643   C655    1.407   .     A
C643   C658    1.421   .     A
C643   C652    1.474   .     S
C644   C529    1.348   1_655 S
C644   F553    1.363   1_655 S
C646   C649    1.469   .     S
C646   C821    1.347   .     S
C646   O855    1.388   .     S
C647   C648    1.440   .     S
C647   C994    1.347   1_545 S
C647   O1030   1.384   1_545 S
C648   O685    1.278   .     A
C648   O691    1.276   .     A
C649   O686    1.271   .     A
C649   O692    1.275   .     A
C650   C655    1.387   .     A
C650   C134    1.390   1_556 S
C650   F146    1.357   1_556 S
C651   C654    1.450   .     S
C651   O676    1.279   .     A
C651   O678    1.272   .     A
C652   O679    1.286   .     A
C652   O677    1.283   .     A
C655   F666    1.359   .     S
C656   F667    1.357   .     S
C657   C658    1.421   .     A
C657   C134    1.420   1_556 S
C657   C137    1.421   1_556 S
C658   C662    1.417   .     A
C660   C661    1.406   .     A
C660   C131    1.413   1_556 S
C660   C137    1.424   1_556 S
C661   C662    1.413   .     A
C661   O683    1.382   .     S
C662   O684    1.384   .     S
F664   C131    1.358   1_556 S
H670   O680    0.992   .     S
H671   O855    0.990   .     S
H672   O1030   0.992   1_545 S
H673   O683    0.991   .     S
H674   O684    0.991   .     S
O675   Zn696   1.937   .     S
O675   Zn693   1.961   .     S
O675   Zn694   1.954   .     S
O675   Zn695   1.933   .     S
O676   Zn694   1.928   .     S
O677   Zn696   1.939   .     S
O678   Zn695   1.938   .     S
O679   Zn693   1.927   .     S
O680   C529    1.384   1_655 S
O681   H1019   0.990   1_545 S
O681   C994    1.388   1_545 S
O682   H846    0.992   .     S
O682   C821    1.384   .     S
O685   Zn693   1.937   .     S
O686   Zn696   1.936   .     S
O687   Zn694   1.932   .     S
O688   Zn695   1.943   .     S
O689   Zn696   1.940   .     S
O690   Zn693   1.929   .     S
O691   Zn694   1.941   .     S
O692   Zn695   1.938   .     S
C697   O747    1.271   .     A
C697   O745    1.271   .     A
C697   C703    1.440   .     S
C698   F723    1.360   .     S
C698   C712    1.392   .     A
C698   C717    1.411   .     A
C699   C711    1.390   .     A
C699   F721    1.358   .     S
C699   C712    1.395   .     A
C700   O748    1.273   .     A
C700   C702    1.458   .     S
C700   O746    1.286   .     A
C701   C713    1.407   .     A
C701   C716    1.421   .     A
C701   C710    1.474   .     S
C702   C761    1.348   .     S
C702   F785    1.363   .     S
C703   C818    1.348   1_455 S
C703   O854    1.384   1_455 S
C704   C707    1.469   .     S
C704   C879    1.347   .     S
C704   O913    1.388   .     S
C705   C706    1.440   .     S
C706   O743    1.278   .     A
C706   O749    1.276   .     A
C707   O744    1.271   .     A
C707   O750    1.275   .     A
C708   C713    1.387   .     A
C708   C192    1.390   1_556 S
C708   F204    1.357   1_556 S
C709   C712    1.450   .     S
C709   O734    1.279   .     A
C709   O736    1.272   .     A
C710   O737    1.286   .     A
C710   O735    1.283   .     A
C713   F724    1.359   .     S
C714   F725    1.357   .     S
C715   C716    1.421   .     A
C715   C192    1.420   1_556 S
C715   C195    1.421   1_556 S
C716   C720    1.417   .     A
C718   C719    1.406   .     A
C718   C189    1.413   1_556 S
C718   C195    1.424   1_556 S
C719   C720    1.413   .     A
C719   O741    1.382   .     S
C720   O742    1.384   .     S
F722   C189    1.358   1_556 S
F727   C818    1.363   1_455 S
H728   O738    0.992   .     S
H729   O913    0.990   .     S
H731   O741    0.991   .     S
H732   O742    0.991   .     S
O733   Zn754   1.937   .     S
O733   Zn751   1.961   .     S
O733   Zn752   1.954   .     S
O733   Zn753   1.933   .     S
O734   Zn752   1.928   .     S
O735   Zn754   1.939   .     S
O736   Zn753   1.938   .     S
O737   Zn751   1.927   .     S
O738   C761    1.384   .     S
O740   H904    0.992   .     S
O740   C879    1.384   .     S
O743   Zn751   1.937   .     S
O744   Zn754   1.936   .     S
O745   Zn752   1.932   .     S
O746   Zn753   1.943   .     S
O747   Zn754   1.940   .     S
O748   Zn751   1.929   .     S
O749   Zn752   1.941   .     S
O750   Zn753   1.938   .     S
C755   O805    1.271   .     A
C755   O803    1.271   .     A
C755   C761    1.440   .     S
C756   F781    1.360   .     S
C756   C770    1.392   .     A
C756   C775    1.411   .     A
C757   C769    1.390   .     A
C757   F779    1.358   .     S
C757   C770    1.395   .     A
C758   O806    1.273   .     A
C758   C760    1.458   .     S
C758   O804    1.286   .     A
C759   C771    1.407   .     A
C759   C774    1.421   .     A
C759   C768    1.474   .     S
C760   C819    1.348   .     S
C760   F843    1.363   .     S
C762   C765    1.469   .     S
C762   C937    1.347   .     S
C762   O971    1.388   .     S
C763   C764    1.440   .     S
C764   O801    1.278   .     A
C764   O807    1.276   .     A
C765   O802    1.271   .     A
C765   O808    1.275   .     A
C766   C771    1.387   .     A
C766   C250    1.390   1_556 S
C766   F262    1.357   1_556 S
C767   C770    1.450   .     S
C767   O792    1.279   .     A
C767   O794    1.272   .     A
C768   O795    1.286   .     A
C768   O793    1.283   .     A
C771   F782    1.359   .     S
C772   F783    1.357   .     S
C773   C774    1.421   .     A
C773   C250    1.420   1_556 S
C773   C253    1.421   1_556 S
C774   C778    1.417   .     A
C776   C777    1.406   .     A
C776   C247    1.413   1_556 S
C776   C253    1.424   1_556 S
C777   C778    1.413   .     A
C777   O799    1.382   .     S
C778   O800    1.384   .     S
F780   C247    1.358   1_556 S
H786   O796    0.992   .     S
H787   O971    0.990   .     S
H789   O799    0.991   .     S
H790   O800    0.991   .     S
O791   Zn812   1.937   .     S
O791   Zn809   1.961   .     S
O791   Zn810   1.954   .     S
O791   Zn811   1.933   .     S
O792   Zn810   1.928   .     S
O793   Zn812   1.939   .     S
O794   Zn811   1.938   .     S
O795   Zn809   1.927   .     S
O796   C819    1.384   .     S
O798   H962    0.992   .     S
O798   C937    1.384   .     S
O801   Zn809   1.937   .     S
O802   Zn812   1.936   .     S
O803   Zn810   1.932   .     S
O804   Zn811   1.943   .     S
O805   Zn812   1.940   .     S
O806   Zn809   1.929   .     S
O807   Zn810   1.941   .     S
O808   Zn811   1.938   .     S
C813   O863    1.271   .     A
C813   O861    1.271   .     A
C813   C819    1.440   .     S
C814   F839    1.360   .     S
C814   C828    1.392   .     A
C814   C833    1.411   .     A
C815   C827    1.390   .     A
C815   F837    1.358   .     S
C815   C828    1.395   .     A
C816   O864    1.273   .     A
C816   C818    1.458   .     S
C816   O862    1.286   .     A
C817   C829    1.407   .     A
C817   C832    1.421   .     A
C817   C826    1.474   .     S
C818   C703    1.348   1_655 S
C818   F727    1.363   1_655 S
C820   C823    1.469   .     S
C820   C995    1.347   .     S
C820   O1029   1.388   .     S
C821   C822    1.440   .     S
C822   O859    1.278   .     A
C822   O865    1.276   .     A
C823   O860    1.271   .     A
C823   O866    1.275   .     A
C824   C829    1.387   .     A
C824   C308    1.390   1_556 S
C824   F320    1.357   1_556 S
C825   C828    1.450   .     S
C825   O850    1.279   .     A
C825   O852    1.272   .     A
C826   O853    1.286   .     A
C826   O851    1.283   .     A
C829   F840    1.359   .     S
C830   F841    1.357   .     S
C831   C832    1.421   .     A
C831   C308    1.420   1_556 S
C831   C311    1.421   1_556 S
C832   C836    1.417   .     A
C834   C835    1.406   .     A
C834   C305    1.413   1_556 S
C834   C311    1.424   1_556 S
C835   C836    1.413   .     A
C835   O857    1.382   .     S
C836   O858    1.384   .     S
F838   C305    1.358   1_556 S
H844   O854    0.992   .     S
H845   O1029   0.990   .     S
H847   O857    0.991   .     S
H848   O858    0.991   .     S
O849   Zn870   1.937   .     S
O849   Zn867   1.961   .     S
O849   Zn868   1.954   .     S
O849   Zn869   1.933   .     S
O850   Zn868   1.928   .     S
O851   Zn870   1.939   .     S
O852   Zn869   1.938   .     S
O853   Zn867   1.927   .     S
O854   C703    1.384   1_655 S
O856   H1020   0.992   .     S
O856   C995    1.384   .     S
O859   Zn867   1.937   .     S
O860   Zn870   1.936   .     S
O861   Zn868   1.932   .     S
O862   Zn869   1.943   .     S
O863   Zn870   1.940   .     S
O864   Zn867   1.929   .     S
O865   Zn868   1.941   .     S
O866   Zn869   1.938   .     S
C871   O921    1.271   .     A
C871   O919    1.271   .     A
C871   C877    1.440   .     S
C872   F897    1.360   .     S
C872   C886    1.392   .     A
C872   C891    1.411   .     A
C873   C885    1.390   .     A
C873   F895    1.358   .     S
C873   C886    1.395   .     A
C874   O922    1.273   .     A
C874   C876    1.458   .     S
C874   O920    1.286   .     A
C875   C887    1.407   .     A
C875   C890    1.421   .     A
C875   C884    1.474   .     S
C876   C935    1.348   .     S
C876   F959    1.363   .     S
C877   C992    1.348   1_455 S
C877   O1028   1.384   1_455 S
C878   C881    1.469   .     S
C878   C531    1.347   1_565 S
C878   O565    1.388   1_565 S
C879   C880    1.440   .     S
C880   O917    1.278   .     A
C880   O923    1.276   .     A
C881   O918    1.271   .     A
C881   O924    1.275   .     A
C882   C887    1.387   .     A
C882   C366    1.390   1_556 S
C882   F378    1.357   1_556 S
C883   C886    1.450   .     S
C883   O908    1.279   .     A
C883   O910    1.272   .     A
C884   O911    1.286   .     A
C884   O909    1.283   .     A
C887   F898    1.359   .     S
C888   F899    1.357   .     S
C889   C890    1.421   .     A
C889   C366    1.420   1_556 S
C889   C369    1.421   1_556 S
C890   C894    1.417   .     A
C892   C893    1.406   .     A
C892   C363    1.413   1_556 S
C892   C369    1.424   1_556 S
C893   C894    1.413   .     A
C893   O915    1.382   .     S
C894   O916    1.384   .     S
F896   C363    1.358   1_556 S
F901   C992    1.363   1_455 S
H902   O912    0.992   .     S
H903   O565    0.990   1_565 S
H905   O915    0.991   .     S
H906   O916    0.991   .     S
O907   Zn928   1.937   .     S
O907   Zn925   1.961   .     S
O907   Zn926   1.954   .     S
O907   Zn927   1.933   .     S
O908   Zn926   1.928   .     S
O909   Zn928   1.939   .     S
O910   Zn927   1.938   .     S
O911   Zn925   1.927   .     S
O912   C935    1.384   .     S
O914   H556    0.992   1_565 S
O914   C531    1.384   1_565 S
O917   Zn925   1.937   .     S
O918   Zn928   1.936   .     S
O919   Zn926   1.932   .     S
O920   Zn927   1.943   .     S
O921   Zn928   1.940   .     S
O922   Zn925   1.929   .     S
O923   Zn926   1.941   .     S
O924   Zn927   1.938   .     S
C929   O979    1.271   .     A
C929   O977    1.271   .     A
C929   C935    1.440   .     S
C930   F955    1.360   .     S
C930   C944    1.392   .     A
C930   C949    1.411   .     A
C931   C943    1.390   .     A
C931   F953    1.358   .     S
C931   C944    1.395   .     A
C932   O980    1.273   .     A
C932   C934    1.458   .     S
C932   O978    1.286   .     A
C933   C945    1.407   .     A
C933   C948    1.421   .     A
C933   C942    1.474   .     S
C934   C993    1.348   .     S
C934   F1017   1.363   .     S
C936   C939    1.469   .     S
C936   C589    1.347   1_565 S
C936   O623    1.388   1_565 S
C937   C938    1.440   .     S
C938   O975    1.278   .     A
C938   O981    1.276   .     A
C939   O976    1.271   .     A
C939   O982    1.275   .     A
C940   C945    1.387   .     A
C940   C424    1.390   1_556 S
C940   F436    1.357   1_556 S
C941   C944    1.450   .     S
C941   O966    1.279   .     A
C941   O968    1.272   .     A
C942   O969    1.286   .     A
C942   O967    1.283   .     A
C945   F956    1.359   .     S
C946   F957    1.357   .     S
C947   C948    1.421   .     A
C947   C424    1.420   1_556 S
C947   C427    1.421   1_556 S
C948   C952    1.417   .     A
C950   C951    1.406   .     A
C950   C421    1.413   1_556 S
C950   C427    1.424   1_556 S
C951   C952    1.413   .     A
C951   O973    1.382   .     S
C952   O974    1.384   .     S
F954   C421    1.358   1_556 S
H960   O970    0.992   .     S
H961   O623    0.990   1_565 S
H963   O973    0.991   .     S
H964   O974    0.991   .     S
O965   Zn986   1.937   .     S
O965   Zn983   1.961   .     S
O965   Zn984   1.954   .     S
O965   Zn985   1.933   .     S
O966   Zn984   1.928   .     S
O967   Zn986   1.939   .     S
O968   Zn985   1.938   .     S
O969   Zn983   1.927   .     S
O970   C993    1.384   .     S
O972   H614    0.992   1_565 S
O972   C589    1.384   1_565 S
O975   Zn983   1.937   .     S
O976   Zn986   1.936   .     S
O977   Zn984   1.932   .     S
O978   Zn985   1.943   .     S
O979   Zn986   1.940   .     S
O980   Zn983   1.929   .     S
O981   Zn984   1.941   .     S
O982   Zn985   1.938   .     S
C987   O1037   1.271   .     A
C987   O1035   1.271   .     A
C987   C993    1.440   .     S
C988   F1013   1.360   .     S
C988   C1002   1.392   .     A
C988   C1007   1.411   .     A
C989   C1001   1.390   .     A
C989   F1011   1.358   .     S
C989   C1002   1.395   .     A
C990   O1038   1.273   .     A
C990   C992    1.458   .     S
C990   O1036   1.286   .     A
C991   C1003   1.407   .     A
C991   C1006   1.421   .     A
C991   C1000   1.474   .     S
C992   C877    1.348   1_655 S
C992   F901    1.363   1_655 S
C994   C997    1.469   .     S
C994   C647    1.347   1_565 S
C994   O681    1.388   1_565 S
C995   C996    1.440   .     S
C996   O1033   1.278   .     A
C996   O1039   1.276   .     A
C997   O1034   1.271   .     A
C997   O1040   1.275   .     A
C998   C1003   1.387   .     A
C998   C482    1.390   1_556 S
C998   F494    1.357   1_556 S
C999   C1002   1.450   .     S
C999   O1024   1.279   .     A
C999   O1026   1.272   .     A
C1000  O1027   1.286   .     A
C1000  O1025   1.283   .     A
C1003  F1014   1.359   .     S
C1004  F1015   1.357   .     S
C1005  C1006   1.421   .     A
C1005  C482    1.420   1_556 S
C1005  C485    1.421   1_556 S
C1006  C1010   1.417   .     A
C1008  C1009   1.406   .     A
C1008  C479    1.413   1_556 S
C1008  C485    1.424   1_556 S
C1009  C1010   1.413   .     A
C1009  O1031   1.382   .     S
C1010  O1032   1.384   .     S
F1012  C479    1.358   1_556 S
H1018  O1028   0.992   .     S
H1019  O681    0.990   1_565 S
H1021  O1031   0.991   .     S
H1022  O1032   0.991   .     S
O1023  Zn1044  1.937   .     S
O1023  Zn1041  1.961   .     S
O1023  Zn1042  1.954   .     S
O1023  Zn1043  1.933   .     S
O1024  Zn1042  1.928   .     S
O1025  Zn1044  1.939   .     S
O1026  Zn1043  1.938   .     S
O1027  Zn1041  1.927   .     S
O1028  C877    1.384   1_655 S
O1030  H672    0.992   1_565 S
O1030  C647    1.384   1_565 S
O1033  Zn1041  1.937   .     S
O1034  Zn1044  1.936   .     S
O1035  Zn1042  1.932   .     S
O1036  Zn1043  1.943   .     S
O1037  Zn1044  1.940   .     S
O1038  Zn1041  1.929   .     S
O1039  Zn1042  1.941   .     S
O1040  Zn1043  1.938   .     S
