data_str_m1_o10_o16_pcu_sym.19
_audit_creation_date              2020-01-03
_audit_creation_method            'Materials Studio'
_symmetry_space_group_name_H-M    'P1'
_symmetry_Int_Tables_number       1
_symmetry_cell_setting            triclinic
loop_
_symmetry_equiv_pos_as_xyz
  x,y,z
_cell_length_a                    32.5535
_cell_length_b                    32.5432
_cell_length_c                    31.0878
_cell_angle_alpha                 95.9602
_cell_angle_beta                  74.4365
_cell_angle_gamma                 98.6119
loop_
_atom_site_label
_atom_site_type_symbol
_atom_site_fract_x
_atom_site_fract_y
_atom_site_fract_z
_atom_site_U_iso_or_equiv
_atom_site_adp_type
_atom_site_occupancy
C1     C     0.05282   0.15978   0.25989   0.00000  Uiso   1.00
C2     C     0.16601   0.15319   0.05947   0.00000  Uiso   1.00
C3     C     0.23683   0.13666   0.05681   0.00000  Uiso   1.00
C4     C     0.28088   0.17387   0.23990   0.00000  Uiso   1.00
C5     C     0.13854   0.18945   0.42010   0.00000  Uiso   1.00
C6     C     0.32684   0.17659   0.23560   0.00000  Uiso   1.00
C7     C     0.00748   0.15744   0.26391   0.00000  Uiso   1.00
C8     C     0.18166   0.32305   0.23607   0.00000  Uiso   1.00
C9     C     0.15241   0.01173   0.26350   0.00000  Uiso   1.00
C10    C     0.15578   0.05597   0.26064   0.00000  Uiso   1.00
C11    C     0.17697   0.27808   0.24008   0.00000  Uiso   1.00
C12    C     0.08272   0.19485   0.48915   0.00000  Uiso   1.00
C13    C     0.18567   0.14840   0.12936   0.00000  Uiso   1.00
C14    C     0.14908   0.18502   0.37081   0.00000  Uiso   1.00
C15    C     0.24997   0.14193   0.01124   0.00000  Uiso   1.00
C16    C     0.19516   0.14290   0.08096   0.00000  Uiso   1.00
C17    C     0.09709   0.19798   0.44324   0.00000  Uiso   1.00
C18    C     0.10893   0.18217   0.01265   0.00000  Uiso   1.00
C19    C     0.15135   0.17403   0.49077   0.00000  Uiso   1.00
C20    C     0.16693   0.18012   0.44422   0.00000  Uiso   1.00
C21    C     0.17899   0.16036   0.01351   0.00000  Uiso   1.00
C22    C     0.22191   0.15478   0.48966   0.00000  Uiso   1.00
C23    C     0.23727   0.16392   0.44502   0.00000  Uiso   1.00
C24    C     0.21057   0.17727   0.42293   0.00000  Uiso   1.00
H25    H     0.25975   0.12950   0.07370   0.00000  Uiso   1.00
H26    H     0.01604   0.19417   0.20932   0.00000  Uiso   1.00
H27    H     0.31890   0.13999   0.29063   0.00000  Uiso   1.00
H28    H     0.23975   0.32324   0.18873   0.00000  Uiso   1.00
H29    H     0.20492   0.01804   0.17798   0.00000  Uiso   1.00
H30    H     0.12523   0.33055   0.28817   0.00000  Uiso   1.00
H31    H     0.27045   0.16143   0.42719   0.00000  Uiso   1.00
H32    H     0.28274   0.13782   0.49326   0.00000  Uiso   1.00
H33    H     0.13459   0.15801   0.08022   0.00000  Uiso   1.00
H34    H     0.07498   0.20546   0.42553   0.00000  Uiso   1.00
H35    H     0.09496   0.17941   0.04792   0.00000  Uiso   1.00
H36    H     0.05043   0.20101   0.00650   0.00000  Uiso   1.00
H37    H     0.22511   0.18624   0.38916   0.00000  Uiso   1.00
N38    N     0.21710   0.01017   0.20349   0.00000  Uiso   1.00
O39    O     0.16667   0.16667   0.25000   0.00000  Uiso   1.00
O40    O     0.15451   0.12637   0.15458   0.00000  Uiso   1.00
O41    O     0.12940   0.20391   0.34968   0.00000  Uiso   1.00
O42    O     0.20824   0.17759   0.14606   0.00000  Uiso   1.00
O43    O     0.17451   0.15880   0.34968   0.00000  Uiso   1.00
O44    O     0.17930   0.08019   0.28213   0.00000  Uiso   1.00
O45    O     0.14632   0.26085   0.27013   0.00000  Uiso   1.00
O46    O     0.07412   0.13291   0.23413   0.00000  Uiso   1.00
O47    O     0.26693   0.19272   0.21360   0.00000  Uiso   1.00
O48    O     0.07071   0.18878   0.28213   0.00000  Uiso   1.00
O49    O     0.25491   0.15226   0.27013   0.00000  Uiso   1.00
O50    O     0.13760   0.06944   0.23413   0.00000  Uiso   1.00
O51    O     0.20345   0.25620   0.21360   0.00000  Uiso   1.00
Zn52   Zn    0.19338   0.13994   0.28734   0.00000  Uiso   1.00
Zn53   Zn    0.13379   0.12458   0.21875   0.00000  Uiso   1.00
Zn54   Zn    0.21056   0.19775   0.20657   0.00000  Uiso   1.00
Zn55   Zn    0.12893   0.20439   0.28733   0.00000  Uiso   1.00
C56    C     0.38615   0.15978   0.25989   0.00000  Uiso   1.00
C57    C     0.49935   0.15319   0.05947   0.00000  Uiso   1.00
C58    C     0.57016   0.13666   0.05681   0.00000  Uiso   1.00
C59    C     0.61422   0.17387   0.23990   0.00000  Uiso   1.00
C60    C     0.47188   0.18945   0.42010   0.00000  Uiso   1.00
C61    C     0.66017   0.17659   0.23560   0.00000  Uiso   1.00
C62    C     0.34082   0.15744   0.26391   0.00000  Uiso   1.00
C63    C     0.51500   0.32305   0.23607   0.00000  Uiso   1.00
C64    C     0.48575   0.01173   0.26350   0.00000  Uiso   1.00
C65    C     0.48911   0.05597   0.26064   0.00000  Uiso   1.00
C66    C     0.51030   0.27808   0.24008   0.00000  Uiso   1.00
C67    C     0.41606   0.19485   0.48915   0.00000  Uiso   1.00
C68    C     0.51900   0.14840   0.12936   0.00000  Uiso   1.00
C69    C     0.48242   0.18502   0.37081   0.00000  Uiso   1.00
C70    C     0.58331   0.14193   0.01124   0.00000  Uiso   1.00
C71    C     0.52849   0.14290   0.08096   0.00000  Uiso   1.00
C72    C     0.43042   0.19798   0.44324   0.00000  Uiso   1.00
C73    C     0.44226   0.18217   0.01265   0.00000  Uiso   1.00
C74    C     0.48469   0.17403   0.49077   0.00000  Uiso   1.00
C75    C     0.50026   0.18012   0.44422   0.00000  Uiso   1.00
C76    C     0.51232   0.16036   0.01351   0.00000  Uiso   1.00
C77    C     0.55525   0.15478   0.48966   0.00000  Uiso   1.00
C78    C     0.57060   0.16392   0.44502   0.00000  Uiso   1.00
C79    C     0.54391   0.17727   0.42293   0.00000  Uiso   1.00
H80    H     0.59308   0.12950   0.07370   0.00000  Uiso   1.00
H81    H     0.34938   0.19417   0.20932   0.00000  Uiso   1.00
H82    H     0.65224   0.13999   0.29063   0.00000  Uiso   1.00
H83    H     0.57309   0.32324   0.18873   0.00000  Uiso   1.00
H84    H     0.53825   0.01804   0.17798   0.00000  Uiso   1.00
H85    H     0.45857   0.33055   0.28817   0.00000  Uiso   1.00
H86    H     0.60378   0.16143   0.42719   0.00000  Uiso   1.00
H87    H     0.61607   0.13782   0.49326   0.00000  Uiso   1.00
H88    H     0.46792   0.15801   0.08022   0.00000  Uiso   1.00
H89    H     0.40831   0.20546   0.42553   0.00000  Uiso   1.00
H90    H     0.42830   0.17941   0.04792   0.00000  Uiso   1.00
H91    H     0.38376   0.20101   0.00650   0.00000  Uiso   1.00
H92    H     0.55844   0.18624   0.38916   0.00000  Uiso   1.00
N93    N     0.55044   0.01017   0.20349   0.00000  Uiso   1.00
O94    O     0.50000   0.16667   0.25000   0.00000  Uiso   1.00
O95    O     0.48784   0.12637   0.15458   0.00000  Uiso   1.00
O96    O     0.46274   0.20391   0.34968   0.00000  Uiso   1.00
O97    O     0.54157   0.17759   0.14606   0.00000  Uiso   1.00
O98    O     0.50785   0.15880   0.34968   0.00000  Uiso   1.00
O99    O     0.51264   0.08019   0.28213   0.00000  Uiso   1.00
O100   O     0.47965   0.26085   0.27013   0.00000  Uiso   1.00
O101   O     0.40745   0.13291   0.23413   0.00000  Uiso   1.00
O102   O     0.60026   0.19272   0.21360   0.00000  Uiso   1.00
O103   O     0.40405   0.18878   0.28213   0.00000  Uiso   1.00
O104   O     0.58824   0.15226   0.27013   0.00000  Uiso   1.00
O105   O     0.47093   0.06944   0.23413   0.00000  Uiso   1.00
O106   O     0.53678   0.25620   0.21360   0.00000  Uiso   1.00
Zn107  Zn    0.52672   0.13994   0.28734   0.00000  Uiso   1.00
Zn108  Zn    0.46713   0.12458   0.21875   0.00000  Uiso   1.00
Zn109  Zn    0.54389   0.19775   0.20657   0.00000  Uiso   1.00
Zn110  Zn    0.46226   0.20439   0.28733   0.00000  Uiso   1.00
C111   C     0.71948   0.15978   0.25989   0.00000  Uiso   1.00
C112   C     0.83268   0.15319   0.05947   0.00000  Uiso   1.00
C113   C     0.90350   0.13666   0.05681   0.00000  Uiso   1.00
C114   C     0.94755   0.17387   0.23990   0.00000  Uiso   1.00
C115   C     0.80521   0.18945   0.42010   0.00000  Uiso   1.00
C116   C     0.99351   0.17659   0.23560   0.00000  Uiso   1.00
C117   C     0.67415   0.15744   0.26391   0.00000  Uiso   1.00
C118   C     0.84833   0.32305   0.23607   0.00000  Uiso   1.00
C119   C     0.81908   0.01173   0.26350   0.00000  Uiso   1.00
C120   C     0.82244   0.05597   0.26064   0.00000  Uiso   1.00
C121   C     0.84364   0.27808   0.24008   0.00000  Uiso   1.00
C122   C     0.74939   0.19485   0.48915   0.00000  Uiso   1.00
C123   C     0.85234   0.14840   0.12936   0.00000  Uiso   1.00
C124   C     0.81575   0.18502   0.37081   0.00000  Uiso   1.00
C125   C     0.91664   0.14193   0.01124   0.00000  Uiso   1.00
C126   C     0.86182   0.14290   0.08096   0.00000  Uiso   1.00
C127   C     0.76376   0.19798   0.44324   0.00000  Uiso   1.00
C128   C     0.77559   0.18217   0.01265   0.00000  Uiso   1.00
C129   C     0.81802   0.17403   0.49077   0.00000  Uiso   1.00
C130   C     0.83359   0.18012   0.44422   0.00000  Uiso   1.00
C131   C     0.84565   0.16036   0.01351   0.00000  Uiso   1.00
C132   C     0.88858   0.15478   0.48966   0.00000  Uiso   1.00
C133   C     0.90394   0.16392   0.44502   0.00000  Uiso   1.00
C134   C     0.87724   0.17727   0.42293   0.00000  Uiso   1.00
H135   H     0.92642   0.12950   0.07370   0.00000  Uiso   1.00
H136   H     0.68271   0.19417   0.20932   0.00000  Uiso   1.00
H137   H     0.98557   0.13999   0.29063   0.00000  Uiso   1.00
H138   H     0.90642   0.32324   0.18873   0.00000  Uiso   1.00
H139   H     0.87158   0.01804   0.17798   0.00000  Uiso   1.00
H140   H     0.79190   0.33055   0.28817   0.00000  Uiso   1.00
H141   H     0.93711   0.16143   0.42719   0.00000  Uiso   1.00
H142   H     0.94941   0.13782   0.49326   0.00000  Uiso   1.00
H143   H     0.80126   0.15801   0.08022   0.00000  Uiso   1.00
H144   H     0.74164   0.20546   0.42553   0.00000  Uiso   1.00
H145   H     0.76163   0.17941   0.04792   0.00000  Uiso   1.00
H146   H     0.71709   0.20101   0.00650   0.00000  Uiso   1.00
H147   H     0.89178   0.18624   0.38916   0.00000  Uiso   1.00
N148   N     0.88377   0.01017   0.20349   0.00000  Uiso   1.00
O149   O     0.83333   0.16667   0.25000   0.00000  Uiso   1.00
O150   O     0.82118   0.12637   0.15458   0.00000  Uiso   1.00
O151   O     0.79607   0.20391   0.34968   0.00000  Uiso   1.00
O152   O     0.87491   0.17759   0.14606   0.00000  Uiso   1.00
O153   O     0.84118   0.15880   0.34968   0.00000  Uiso   1.00
O154   O     0.84597   0.08019   0.28213   0.00000  Uiso   1.00
O155   O     0.81298   0.26085   0.27013   0.00000  Uiso   1.00
O156   O     0.74078   0.13291   0.23413   0.00000  Uiso   1.00
O157   O     0.93360   0.19272   0.21360   0.00000  Uiso   1.00
O158   O     0.73738   0.18878   0.28213   0.00000  Uiso   1.00
O159   O     0.92158   0.15226   0.27013   0.00000  Uiso   1.00
O160   O     0.80426   0.06944   0.23413   0.00000  Uiso   1.00
O161   O     0.87012   0.25620   0.21360   0.00000  Uiso   1.00
Zn162  Zn    0.86005   0.13994   0.28734   0.00000  Uiso   1.00
Zn163  Zn    0.80046   0.12458   0.21875   0.00000  Uiso   1.00
Zn164  Zn    0.87723   0.19775   0.20657   0.00000  Uiso   1.00
Zn165  Zn    0.79560   0.20439   0.28733   0.00000  Uiso   1.00
C166   C     0.05282   0.49312   0.25989   0.00000  Uiso   1.00
C167   C     0.16601   0.48652   0.05947   0.00000  Uiso   1.00
C168   C     0.23683   0.47000   0.05681   0.00000  Uiso   1.00
C169   C     0.28088   0.50721   0.23990   0.00000  Uiso   1.00
C170   C     0.13854   0.52278   0.42010   0.00000  Uiso   1.00
C171   C     0.32684   0.50992   0.23560   0.00000  Uiso   1.00
C172   C     0.00748   0.49077   0.26391   0.00000  Uiso   1.00
C173   C     0.18166   0.65638   0.23607   0.00000  Uiso   1.00
C174   C     0.15241   0.34506   0.26350   0.00000  Uiso   1.00
C175   C     0.15578   0.38931   0.26064   0.00000  Uiso   1.00
C176   C     0.17697   0.61142   0.24008   0.00000  Uiso   1.00
C177   C     0.08272   0.52819   0.48915   0.00000  Uiso   1.00
C178   C     0.18567   0.48174   0.12936   0.00000  Uiso   1.00
C179   C     0.14908   0.51836   0.37081   0.00000  Uiso   1.00
C180   C     0.24997   0.47526   0.01124   0.00000  Uiso   1.00
C181   C     0.19516   0.47623   0.08096   0.00000  Uiso   1.00
C182   C     0.09709   0.53131   0.44324   0.00000  Uiso   1.00
C183   C     0.10893   0.51550   0.01265   0.00000  Uiso   1.00
C184   C     0.15135   0.50736   0.49077   0.00000  Uiso   1.00
C185   C     0.16693   0.51346   0.44422   0.00000  Uiso   1.00
C186   C     0.17899   0.49370   0.01351   0.00000  Uiso   1.00
C187   C     0.22191   0.48811   0.48966   0.00000  Uiso   1.00
C188   C     0.23727   0.49725   0.44502   0.00000  Uiso   1.00
C189   C     0.21057   0.51060   0.42293   0.00000  Uiso   1.00
H190   H     0.25975   0.46284   0.07370   0.00000  Uiso   1.00
H191   H     0.01604   0.52750   0.20932   0.00000  Uiso   1.00
H192   H     0.31890   0.47333   0.29063   0.00000  Uiso   1.00
H193   H     0.23975   0.65657   0.18873   0.00000  Uiso   1.00
H194   H     0.20492   0.35138   0.17798   0.00000  Uiso   1.00
H195   H     0.12523   0.66388   0.28817   0.00000  Uiso   1.00
H196   H     0.27045   0.49476   0.42719   0.00000  Uiso   1.00
H197   H     0.28274   0.47116   0.49326   0.00000  Uiso   1.00
H198   H     0.13459   0.49134   0.08022   0.00000  Uiso   1.00
H199   H     0.07498   0.53879   0.42553   0.00000  Uiso   1.00
H200   H     0.09496   0.51275   0.04792   0.00000  Uiso   1.00
H201   H     0.05043   0.53434   0.00650   0.00000  Uiso   1.00
H202   H     0.22511   0.51957   0.38916   0.00000  Uiso   1.00
N203   N     0.21710   0.34351   0.20349   0.00000  Uiso   1.00
O204   O     0.16667   0.50000   0.25000   0.00000  Uiso   1.00
O205   O     0.15451   0.45970   0.15458   0.00000  Uiso   1.00
O206   O     0.12940   0.53724   0.34968   0.00000  Uiso   1.00
O207   O     0.20824   0.51092   0.14606   0.00000  Uiso   1.00
O208   O     0.17451   0.49213   0.34968   0.00000  Uiso   1.00
O209   O     0.17930   0.41352   0.28213   0.00000  Uiso   1.00
O210   O     0.14632   0.59418   0.27013   0.00000  Uiso   1.00
O211   O     0.07412   0.46625   0.23413   0.00000  Uiso   1.00
O212   O     0.26693   0.52605   0.21360   0.00000  Uiso   1.00
O213   O     0.07071   0.52211   0.28213   0.00000  Uiso   1.00
O214   O     0.25491   0.48559   0.27013   0.00000  Uiso   1.00
O215   O     0.13760   0.40277   0.23413   0.00000  Uiso   1.00
O216   O     0.20345   0.58953   0.21360   0.00000  Uiso   1.00
Zn217  Zn    0.19338   0.47327   0.28734   0.00000  Uiso   1.00
Zn218  Zn    0.13379   0.45791   0.21875   0.00000  Uiso   1.00
Zn219  Zn    0.21056   0.53109   0.20657   0.00000  Uiso   1.00
Zn220  Zn    0.12893   0.53773   0.28733   0.00000  Uiso   1.00
C221   C     0.38615   0.49312   0.25989   0.00000  Uiso   1.00
C222   C     0.49935   0.48652   0.05947   0.00000  Uiso   1.00
C223   C     0.57016   0.47000   0.05681   0.00000  Uiso   1.00
C224   C     0.61422   0.50721   0.23990   0.00000  Uiso   1.00
C225   C     0.47188   0.52278   0.42010   0.00000  Uiso   1.00
C226   C     0.66017   0.50992   0.23560   0.00000  Uiso   1.00
C227   C     0.34082   0.49077   0.26391   0.00000  Uiso   1.00
C228   C     0.51500   0.65638   0.23607   0.00000  Uiso   1.00
C229   C     0.48575   0.34506   0.26350   0.00000  Uiso   1.00
C230   C     0.48911   0.38931   0.26064   0.00000  Uiso   1.00
C231   C     0.51030   0.61142   0.24008   0.00000  Uiso   1.00
C232   C     0.41606   0.52819   0.48915   0.00000  Uiso   1.00
C233   C     0.51900   0.48174   0.12936   0.00000  Uiso   1.00
C234   C     0.48242   0.51836   0.37081   0.00000  Uiso   1.00
C235   C     0.58331   0.47526   0.01124   0.00000  Uiso   1.00
C236   C     0.52849   0.47623   0.08096   0.00000  Uiso   1.00
C237   C     0.43042   0.53131   0.44324   0.00000  Uiso   1.00
C238   C     0.44226   0.51550   0.01265   0.00000  Uiso   1.00
C239   C     0.48469   0.50736   0.49077   0.00000  Uiso   1.00
C240   C     0.50026   0.51346   0.44422   0.00000  Uiso   1.00
C241   C     0.51232   0.49370   0.01351   0.00000  Uiso   1.00
C242   C     0.55525   0.48811   0.48966   0.00000  Uiso   1.00
C243   C     0.57060   0.49725   0.44502   0.00000  Uiso   1.00
C244   C     0.54391   0.51060   0.42293   0.00000  Uiso   1.00
H245   H     0.59308   0.46284   0.07370   0.00000  Uiso   1.00
H246   H     0.34938   0.52750   0.20932   0.00000  Uiso   1.00
H247   H     0.65224   0.47333   0.29063   0.00000  Uiso   1.00
H248   H     0.57309   0.65657   0.18873   0.00000  Uiso   1.00
H249   H     0.53825   0.35138   0.17798   0.00000  Uiso   1.00
H250   H     0.45857   0.66388   0.28817   0.00000  Uiso   1.00
H251   H     0.60378   0.49476   0.42719   0.00000  Uiso   1.00
H252   H     0.61607   0.47116   0.49326   0.00000  Uiso   1.00
H253   H     0.46792   0.49134   0.08022   0.00000  Uiso   1.00
H254   H     0.40831   0.53879   0.42553   0.00000  Uiso   1.00
H255   H     0.42830   0.51275   0.04792   0.00000  Uiso   1.00
H256   H     0.38376   0.53434   0.00650   0.00000  Uiso   1.00
H257   H     0.55844   0.51957   0.38916   0.00000  Uiso   1.00
N258   N     0.55044   0.34351   0.20349   0.00000  Uiso   1.00
O259   O     0.50000   0.50000   0.25000   0.00000  Uiso   1.00
O260   O     0.48784   0.45970   0.15458   0.00000  Uiso   1.00
O261   O     0.46274   0.53724   0.34968   0.00000  Uiso   1.00
O262   O     0.54157   0.51092   0.14606   0.00000  Uiso   1.00
O263   O     0.50785   0.49213   0.34968   0.00000  Uiso   1.00
O264   O     0.51264   0.41352   0.28213   0.00000  Uiso   1.00
O265   O     0.47965   0.59418   0.27013   0.00000  Uiso   1.00
O266   O     0.40745   0.46625   0.23413   0.00000  Uiso   1.00
O267   O     0.60026   0.52605   0.21360   0.00000  Uiso   1.00
O268   O     0.40405   0.52211   0.28213   0.00000  Uiso   1.00
O269   O     0.58824   0.48559   0.27013   0.00000  Uiso   1.00
O270   O     0.47093   0.40277   0.23413   0.00000  Uiso   1.00
O271   O     0.53678   0.58953   0.21360   0.00000  Uiso   1.00
Zn272  Zn    0.52672   0.47327   0.28734   0.00000  Uiso   1.00
Zn273  Zn    0.46713   0.45791   0.21875   0.00000  Uiso   1.00
Zn274  Zn    0.54389   0.53109   0.20657   0.00000  Uiso   1.00
Zn275  Zn    0.46226   0.53773   0.28733   0.00000  Uiso   1.00
C276   C     0.71948   0.49312   0.25989   0.00000  Uiso   1.00
C277   C     0.83268   0.48652   0.05947   0.00000  Uiso   1.00
C278   C     0.90350   0.47000   0.05681   0.00000  Uiso   1.00
C279   C     0.94755   0.50721   0.23990   0.00000  Uiso   1.00
C280   C     0.80521   0.52278   0.42010   0.00000  Uiso   1.00
C281   C     0.99351   0.50992   0.23560   0.00000  Uiso   1.00
C282   C     0.67415   0.49077   0.26391   0.00000  Uiso   1.00
C283   C     0.84833   0.65638   0.23607   0.00000  Uiso   1.00
C284   C     0.81908   0.34506   0.26350   0.00000  Uiso   1.00
C285   C     0.82244   0.38931   0.26064   0.00000  Uiso   1.00
C286   C     0.84364   0.61142   0.24008   0.00000  Uiso   1.00
C287   C     0.74939   0.52819   0.48915   0.00000  Uiso   1.00
C288   C     0.85234   0.48174   0.12936   0.00000  Uiso   1.00
C289   C     0.81575   0.51836   0.37081   0.00000  Uiso   1.00
C290   C     0.91664   0.47526   0.01124   0.00000  Uiso   1.00
C291   C     0.86182   0.47623   0.08096   0.00000  Uiso   1.00
C292   C     0.76376   0.53131   0.44324   0.00000  Uiso   1.00
C293   C     0.77559   0.51550   0.01265   0.00000  Uiso   1.00
C294   C     0.81802   0.50736   0.49077   0.00000  Uiso   1.00
C295   C     0.83359   0.51346   0.44422   0.00000  Uiso   1.00
C296   C     0.84565   0.49370   0.01351   0.00000  Uiso   1.00
C297   C     0.88858   0.48811   0.48966   0.00000  Uiso   1.00
C298   C     0.90394   0.49725   0.44502   0.00000  Uiso   1.00
C299   C     0.87724   0.51060   0.42293   0.00000  Uiso   1.00
H300   H     0.92642   0.46284   0.07370   0.00000  Uiso   1.00
H301   H     0.68271   0.52750   0.20932   0.00000  Uiso   1.00
H302   H     0.98557   0.47333   0.29063   0.00000  Uiso   1.00
H303   H     0.90642   0.65657   0.18873   0.00000  Uiso   1.00
H304   H     0.87158   0.35138   0.17798   0.00000  Uiso   1.00
H305   H     0.79190   0.66388   0.28817   0.00000  Uiso   1.00
H306   H     0.93711   0.49476   0.42719   0.00000  Uiso   1.00
H307   H     0.94941   0.47116   0.49326   0.00000  Uiso   1.00
H308   H     0.80126   0.49134   0.08022   0.00000  Uiso   1.00
H309   H     0.74164   0.53879   0.42553   0.00000  Uiso   1.00
H310   H     0.76163   0.51275   0.04792   0.00000  Uiso   1.00
H311   H     0.71709   0.53434   0.00650   0.00000  Uiso   1.00
H312   H     0.89178   0.51957   0.38916   0.00000  Uiso   1.00
N313   N     0.88377   0.34351   0.20349   0.00000  Uiso   1.00
O314   O     0.83333   0.50000   0.25000   0.00000  Uiso   1.00
O315   O     0.82118   0.45970   0.15458   0.00000  Uiso   1.00
O316   O     0.79607   0.53724   0.34968   0.00000  Uiso   1.00
O317   O     0.87491   0.51092   0.14606   0.00000  Uiso   1.00
O318   O     0.84118   0.49213   0.34968   0.00000  Uiso   1.00
O319   O     0.84597   0.41352   0.28213   0.00000  Uiso   1.00
O320   O     0.81298   0.59418   0.27013   0.00000  Uiso   1.00
O321   O     0.74078   0.46625   0.23413   0.00000  Uiso   1.00
O322   O     0.93360   0.52605   0.21360   0.00000  Uiso   1.00
O323   O     0.73738   0.52211   0.28213   0.00000  Uiso   1.00
O324   O     0.92158   0.48559   0.27013   0.00000  Uiso   1.00
O325   O     0.80426   0.40277   0.23413   0.00000  Uiso   1.00
O326   O     0.87012   0.58953   0.21360   0.00000  Uiso   1.00
Zn327  Zn    0.86005   0.47327   0.28734   0.00000  Uiso   1.00
Zn328  Zn    0.80046   0.45791   0.21875   0.00000  Uiso   1.00
Zn329  Zn    0.87723   0.53109   0.20657   0.00000  Uiso   1.00
Zn330  Zn    0.79560   0.53773   0.28733   0.00000  Uiso   1.00
C331   C     0.05282   0.82645   0.25989   0.00000  Uiso   1.00
C332   C     0.16601   0.81986   0.05947   0.00000  Uiso   1.00
C333   C     0.23683   0.80333   0.05681   0.00000  Uiso   1.00
C334   C     0.28088   0.84054   0.23990   0.00000  Uiso   1.00
C335   C     0.13854   0.85612   0.42010   0.00000  Uiso   1.00
C336   C     0.32684   0.84326   0.23560   0.00000  Uiso   1.00
C337   C     0.00748   0.82411   0.26391   0.00000  Uiso   1.00
C338   C     0.18166   0.98971   0.23607   0.00000  Uiso   1.00
C339   C     0.15241   0.67840   0.26350   0.00000  Uiso   1.00
C340   C     0.15578   0.72264   0.26064   0.00000  Uiso   1.00
C341   C     0.17697   0.94475   0.24008   0.00000  Uiso   1.00
C342   C     0.08272   0.86152   0.48915   0.00000  Uiso   1.00
C343   C     0.18567   0.81507   0.12936   0.00000  Uiso   1.00
C344   C     0.14908   0.85169   0.37081   0.00000  Uiso   1.00
C345   C     0.24997   0.80860   0.01124   0.00000  Uiso   1.00
C346   C     0.19516   0.80957   0.08096   0.00000  Uiso   1.00
C347   C     0.09709   0.86465   0.44324   0.00000  Uiso   1.00
C348   C     0.10893   0.84883   0.01265   0.00000  Uiso   1.00
C349   C     0.15135   0.84069   0.49077   0.00000  Uiso   1.00
C350   C     0.16693   0.84679   0.44422   0.00000  Uiso   1.00
C351   C     0.17899   0.82703   0.01351   0.00000  Uiso   1.00
C352   C     0.22191   0.82144   0.48966   0.00000  Uiso   1.00
C353   C     0.23727   0.83058   0.44502   0.00000  Uiso   1.00
C354   C     0.21057   0.84394   0.42293   0.00000  Uiso   1.00
H355   H     0.25975   0.79617   0.07370   0.00000  Uiso   1.00
H356   H     0.01604   0.86083   0.20932   0.00000  Uiso   1.00
H357   H     0.31890   0.80666   0.29063   0.00000  Uiso   1.00
H358   H     0.23975   0.98990   0.18873   0.00000  Uiso   1.00
H359   H     0.20492   0.68471   0.17798   0.00000  Uiso   1.00
H360   H     0.12523   0.99721   0.28817   0.00000  Uiso   1.00
H361   H     0.27045   0.82809   0.42719   0.00000  Uiso   1.00
H362   H     0.28274   0.80449   0.49326   0.00000  Uiso   1.00
H363   H     0.13459   0.82467   0.08022   0.00000  Uiso   1.00
H364   H     0.07498   0.87213   0.42553   0.00000  Uiso   1.00
H365   H     0.09496   0.84608   0.04792   0.00000  Uiso   1.00
H366   H     0.05043   0.86768   0.00650   0.00000  Uiso   1.00
H367   H     0.22511   0.85290   0.38916   0.00000  Uiso   1.00
N368   N     0.21710   0.67684   0.20349   0.00000  Uiso   1.00
O369   O     0.16667   0.83333   0.25000   0.00000  Uiso   1.00
O370   O     0.15451   0.79304   0.15458   0.00000  Uiso   1.00
O371   O     0.12940   0.87058   0.34968   0.00000  Uiso   1.00
O372   O     0.20824   0.84425   0.14606   0.00000  Uiso   1.00
O373   O     0.17451   0.82546   0.34968   0.00000  Uiso   1.00
O374   O     0.17930   0.74686   0.28213   0.00000  Uiso   1.00
O375   O     0.14632   0.92751   0.27013   0.00000  Uiso   1.00
O376   O     0.07412   0.79958   0.23413   0.00000  Uiso   1.00
O377   O     0.26693   0.85939   0.21360   0.00000  Uiso   1.00
O378   O     0.07071   0.85544   0.28213   0.00000  Uiso   1.00
O379   O     0.25491   0.81892   0.27013   0.00000  Uiso   1.00
O380   O     0.13760   0.73610   0.23413   0.00000  Uiso   1.00
O381   O     0.20345   0.92286   0.21360   0.00000  Uiso   1.00
Zn382  Zn    0.19338   0.80661   0.28734   0.00000  Uiso   1.00
Zn383  Zn    0.13379   0.79124   0.21875   0.00000  Uiso   1.00
Zn384  Zn    0.21056   0.86442   0.20657   0.00000  Uiso   1.00
Zn385  Zn    0.12893   0.87106   0.28733   0.00000  Uiso   1.00
C386   C     0.38615   0.82645   0.25989   0.00000  Uiso   1.00
C387   C     0.49935   0.81986   0.05947   0.00000  Uiso   1.00
C388   C     0.57016   0.80333   0.05681   0.00000  Uiso   1.00
C389   C     0.61422   0.84054   0.23990   0.00000  Uiso   1.00
C390   C     0.47188   0.85612   0.42010   0.00000  Uiso   1.00
C391   C     0.66017   0.84326   0.23560   0.00000  Uiso   1.00
C392   C     0.34082   0.82411   0.26391   0.00000  Uiso   1.00
C393   C     0.51500   0.98971   0.23607   0.00000  Uiso   1.00
C394   C     0.48575   0.67840   0.26350   0.00000  Uiso   1.00
C395   C     0.48911   0.72264   0.26064   0.00000  Uiso   1.00
C396   C     0.51030   0.94475   0.24008   0.00000  Uiso   1.00
C397   C     0.41606   0.86152   0.48915   0.00000  Uiso   1.00
C398   C     0.51900   0.81507   0.12936   0.00000  Uiso   1.00
C399   C     0.48242   0.85169   0.37081   0.00000  Uiso   1.00
C400   C     0.58331   0.80860   0.01124   0.00000  Uiso   1.00
C401   C     0.52849   0.80957   0.08096   0.00000  Uiso   1.00
C402   C     0.43042   0.86465   0.44324   0.00000  Uiso   1.00
C403   C     0.44226   0.84883   0.01265   0.00000  Uiso   1.00
C404   C     0.48469   0.84069   0.49077   0.00000  Uiso   1.00
C405   C     0.50026   0.84679   0.44422   0.00000  Uiso   1.00
C406   C     0.51232   0.82703   0.01351   0.00000  Uiso   1.00
C407   C     0.55525   0.82144   0.48966   0.00000  Uiso   1.00
C408   C     0.57060   0.83058   0.44502   0.00000  Uiso   1.00
C409   C     0.54391   0.84394   0.42293   0.00000  Uiso   1.00
H410   H     0.59308   0.79617   0.07370   0.00000  Uiso   1.00
H411   H     0.34938   0.86083   0.20932   0.00000  Uiso   1.00
H412   H     0.65224   0.80666   0.29063   0.00000  Uiso   1.00
H413   H     0.57309   0.98990   0.18873   0.00000  Uiso   1.00
H414   H     0.53825   0.68471   0.17798   0.00000  Uiso   1.00
H415   H     0.45857   0.99721   0.28817   0.00000  Uiso   1.00
H416   H     0.60378   0.82809   0.42719   0.00000  Uiso   1.00
H417   H     0.61607   0.80449   0.49326   0.00000  Uiso   1.00
H418   H     0.46792   0.82467   0.08022   0.00000  Uiso   1.00
H419   H     0.40831   0.87213   0.42553   0.00000  Uiso   1.00
H420   H     0.42830   0.84608   0.04792   0.00000  Uiso   1.00
H421   H     0.38376   0.86768   0.00650   0.00000  Uiso   1.00
H422   H     0.55844   0.85290   0.38916   0.00000  Uiso   1.00
N423   N     0.55044   0.67684   0.20349   0.00000  Uiso   1.00
O424   O     0.50000   0.83333   0.25000   0.00000  Uiso   1.00
O425   O     0.48784   0.79304   0.15458   0.00000  Uiso   1.00
O426   O     0.46274   0.87058   0.34968   0.00000  Uiso   1.00
O427   O     0.54157   0.84425   0.14606   0.00000  Uiso   1.00
O428   O     0.50785   0.82546   0.34968   0.00000  Uiso   1.00
O429   O     0.51264   0.74686   0.28213   0.00000  Uiso   1.00
O430   O     0.47965   0.92751   0.27013   0.00000  Uiso   1.00
O431   O     0.40745   0.79958   0.23413   0.00000  Uiso   1.00
O432   O     0.60026   0.85939   0.21360   0.00000  Uiso   1.00
O433   O     0.40405   0.85544   0.28213   0.00000  Uiso   1.00
O434   O     0.58824   0.81892   0.27013   0.00000  Uiso   1.00
O435   O     0.47093   0.73610   0.23413   0.00000  Uiso   1.00
O436   O     0.53678   0.92286   0.21360   0.00000  Uiso   1.00
Zn437  Zn    0.52672   0.80661   0.28734   0.00000  Uiso   1.00
Zn438  Zn    0.46713   0.79124   0.21875   0.00000  Uiso   1.00
Zn439  Zn    0.54389   0.86442   0.20657   0.00000  Uiso   1.00
Zn440  Zn    0.46226   0.87106   0.28733   0.00000  Uiso   1.00
C441   C     0.71948   0.82645   0.25989   0.00000  Uiso   1.00
C442   C     0.83268   0.81986   0.05947   0.00000  Uiso   1.00
C443   C     0.90350   0.80333   0.05681   0.00000  Uiso   1.00
C444   C     0.94755   0.84054   0.23990   0.00000  Uiso   1.00
C445   C     0.80521   0.85612   0.42010   0.00000  Uiso   1.00
C446   C     0.99351   0.84326   0.23560   0.00000  Uiso   1.00
C447   C     0.67415   0.82411   0.26391   0.00000  Uiso   1.00
C448   C     0.84833   0.98971   0.23607   0.00000  Uiso   1.00
C449   C     0.81908   0.67840   0.26350   0.00000  Uiso   1.00
C450   C     0.82244   0.72264   0.26064   0.00000  Uiso   1.00
C451   C     0.84364   0.94475   0.24008   0.00000  Uiso   1.00
C452   C     0.74939   0.86152   0.48915   0.00000  Uiso   1.00
C453   C     0.85234   0.81507   0.12936   0.00000  Uiso   1.00
C454   C     0.81575   0.85169   0.37081   0.00000  Uiso   1.00
C455   C     0.91664   0.80860   0.01124   0.00000  Uiso   1.00
C456   C     0.86182   0.80957   0.08096   0.00000  Uiso   1.00
C457   C     0.76376   0.86465   0.44324   0.00000  Uiso   1.00
C458   C     0.77559   0.84883   0.01265   0.00000  Uiso   1.00
C459   C     0.81802   0.84069   0.49077   0.00000  Uiso   1.00
C460   C     0.83359   0.84679   0.44422   0.00000  Uiso   1.00
C461   C     0.84565   0.82703   0.01351   0.00000  Uiso   1.00
C462   C     0.88858   0.82144   0.48966   0.00000  Uiso   1.00
C463   C     0.90394   0.83058   0.44502   0.00000  Uiso   1.00
C464   C     0.87724   0.84394   0.42293   0.00000  Uiso   1.00
H465   H     0.92642   0.79617   0.07370   0.00000  Uiso   1.00
H466   H     0.68271   0.86083   0.20932   0.00000  Uiso   1.00
H467   H     0.98557   0.80666   0.29063   0.00000  Uiso   1.00
H468   H     0.90642   0.98990   0.18873   0.00000  Uiso   1.00
H469   H     0.87158   0.68471   0.17798   0.00000  Uiso   1.00
H470   H     0.79190   0.99721   0.28817   0.00000  Uiso   1.00
H471   H     0.93711   0.82809   0.42719   0.00000  Uiso   1.00
H472   H     0.94941   0.80449   0.49326   0.00000  Uiso   1.00
H473   H     0.80126   0.82467   0.08022   0.00000  Uiso   1.00
H474   H     0.74164   0.87213   0.42553   0.00000  Uiso   1.00
H475   H     0.76163   0.84608   0.04792   0.00000  Uiso   1.00
H476   H     0.71709   0.86768   0.00650   0.00000  Uiso   1.00
H477   H     0.89178   0.85290   0.38916   0.00000  Uiso   1.00
N478   N     0.88377   0.67684   0.20349   0.00000  Uiso   1.00
O479   O     0.83333   0.83333   0.25000   0.00000  Uiso   1.00
O480   O     0.82118   0.79304   0.15458   0.00000  Uiso   1.00
O481   O     0.79607   0.87058   0.34968   0.00000  Uiso   1.00
O482   O     0.87491   0.84425   0.14606   0.00000  Uiso   1.00
O483   O     0.84118   0.82546   0.34968   0.00000  Uiso   1.00
O484   O     0.84597   0.74686   0.28213   0.00000  Uiso   1.00
O485   O     0.81298   0.92751   0.27013   0.00000  Uiso   1.00
O486   O     0.74078   0.79958   0.23413   0.00000  Uiso   1.00
O487   O     0.93360   0.85939   0.21360   0.00000  Uiso   1.00
O488   O     0.73738   0.85544   0.28213   0.00000  Uiso   1.00
O489   O     0.92158   0.81892   0.27013   0.00000  Uiso   1.00
O490   O     0.80426   0.73610   0.23413   0.00000  Uiso   1.00
O491   O     0.87012   0.92286   0.21360   0.00000  Uiso   1.00
Zn492  Zn    0.86005   0.80661   0.28734   0.00000  Uiso   1.00
Zn493  Zn    0.80046   0.79124   0.21875   0.00000  Uiso   1.00
Zn494  Zn    0.87723   0.86442   0.20657   0.00000  Uiso   1.00
Zn495  Zn    0.79560   0.87106   0.28733   0.00000  Uiso   1.00
C496   C     0.05282   0.15978   0.75989   0.00000  Uiso   1.00
C497   C     0.16601   0.15319   0.55947   0.00000  Uiso   1.00
C498   C     0.23683   0.13666   0.55681   0.00000  Uiso   1.00
C499   C     0.28088   0.17387   0.73990   0.00000  Uiso   1.00
C500   C     0.13854   0.18945   0.92010   0.00000  Uiso   1.00
C501   C     0.32684   0.17659   0.73560   0.00000  Uiso   1.00
C502   C     0.00748   0.15744   0.76391   0.00000  Uiso   1.00
C503   C     0.18166   0.32305   0.73607   0.00000  Uiso   1.00
C504   C     0.15241   0.01173   0.76350   0.00000  Uiso   1.00
C505   C     0.15578   0.05597   0.76064   0.00000  Uiso   1.00
C506   C     0.17697   0.27808   0.74008   0.00000  Uiso   1.00
C507   C     0.08272   0.19485   0.98915   0.00000  Uiso   1.00
C508   C     0.18567   0.14840   0.62936   0.00000  Uiso   1.00
C509   C     0.14908   0.18502   0.87081   0.00000  Uiso   1.00
C510   C     0.24997   0.14193   0.51124   0.00000  Uiso   1.00
C511   C     0.19516   0.14290   0.58096   0.00000  Uiso   1.00
C512   C     0.09709   0.19798   0.94324   0.00000  Uiso   1.00
C513   C     0.10893   0.18217   0.51265   0.00000  Uiso   1.00
C514   C     0.15135   0.17403   0.99077   0.00000  Uiso   1.00
C515   C     0.16693   0.18012   0.94422   0.00000  Uiso   1.00
C516   C     0.17899   0.16036   0.51351   0.00000  Uiso   1.00
C517   C     0.22191   0.15478   0.98966   0.00000  Uiso   1.00
C518   C     0.23727   0.16392   0.94502   0.00000  Uiso   1.00
C519   C     0.21057   0.17727   0.92293   0.00000  Uiso   1.00
H520   H     0.25975   0.12950   0.57370   0.00000  Uiso   1.00
H521   H     0.01604   0.19417   0.70932   0.00000  Uiso   1.00
H522   H     0.31890   0.13999   0.79063   0.00000  Uiso   1.00
H523   H     0.23975   0.32324   0.68873   0.00000  Uiso   1.00
H524   H     0.20492   0.01804   0.67798   0.00000  Uiso   1.00
H525   H     0.12523   0.33055   0.78817   0.00000  Uiso   1.00
H526   H     0.27045   0.16143   0.92719   0.00000  Uiso   1.00
H527   H     0.28274   0.13782   0.99326   0.00000  Uiso   1.00
H528   H     0.13459   0.15801   0.58022   0.00000  Uiso   1.00
H529   H     0.07498   0.20546   0.92553   0.00000  Uiso   1.00
H530   H     0.09496   0.17941   0.54792   0.00000  Uiso   1.00
H531   H     0.05043   0.20101   0.50650   0.00000  Uiso   1.00
H532   H     0.22511   0.18624   0.88916   0.00000  Uiso   1.00
N533   N     0.21710   0.01017   0.70349   0.00000  Uiso   1.00
O534   O     0.16667   0.16667   0.75000   0.00000  Uiso   1.00
O535   O     0.15451   0.12637   0.65458   0.00000  Uiso   1.00
O536   O     0.12940   0.20391   0.84968   0.00000  Uiso   1.00
O537   O     0.20824   0.17759   0.64606   0.00000  Uiso   1.00
O538   O     0.17451   0.15880   0.84968   0.00000  Uiso   1.00
O539   O     0.17930   0.08019   0.78213   0.00000  Uiso   1.00
O540   O     0.14632   0.26085   0.77013   0.00000  Uiso   1.00
O541   O     0.07412   0.13291   0.73413   0.00000  Uiso   1.00
O542   O     0.26693   0.19272   0.71360   0.00000  Uiso   1.00
O543   O     0.07071   0.18878   0.78213   0.00000  Uiso   1.00
O544   O     0.25491   0.15226   0.77013   0.00000  Uiso   1.00
O545   O     0.13760   0.06944   0.73413   0.00000  Uiso   1.00
O546   O     0.20345   0.25620   0.71360   0.00000  Uiso   1.00
Zn547  Zn    0.19338   0.13994   0.78734   0.00000  Uiso   1.00
Zn548  Zn    0.13379   0.12458   0.71875   0.00000  Uiso   1.00
Zn549  Zn    0.21056   0.19775   0.70657   0.00000  Uiso   1.00
Zn550  Zn    0.12893   0.20439   0.78733   0.00000  Uiso   1.00
C551   C     0.38615   0.15978   0.75989   0.00000  Uiso   1.00
C552   C     0.49935   0.15319   0.55947   0.00000  Uiso   1.00
C553   C     0.57016   0.13666   0.55681   0.00000  Uiso   1.00
C554   C     0.61422   0.17387   0.73990   0.00000  Uiso   1.00
C555   C     0.47188   0.18945   0.92010   0.00000  Uiso   1.00
C556   C     0.66017   0.17659   0.73560   0.00000  Uiso   1.00
C557   C     0.34082   0.15744   0.76391   0.00000  Uiso   1.00
C558   C     0.51500   0.32305   0.73607   0.00000  Uiso   1.00
C559   C     0.48575   0.01173   0.76350   0.00000  Uiso   1.00
C560   C     0.48911   0.05597   0.76064   0.00000  Uiso   1.00
C561   C     0.51030   0.27808   0.74008   0.00000  Uiso   1.00
C562   C     0.41606   0.19485   0.98915   0.00000  Uiso   1.00
C563   C     0.51900   0.14840   0.62936   0.00000  Uiso   1.00
C564   C     0.48242   0.18502   0.87081   0.00000  Uiso   1.00
C565   C     0.58331   0.14193   0.51124   0.00000  Uiso   1.00
C566   C     0.52849   0.14290   0.58096   0.00000  Uiso   1.00
C567   C     0.43042   0.19798   0.94324   0.00000  Uiso   1.00
C568   C     0.44226   0.18217   0.51265   0.00000  Uiso   1.00
C569   C     0.48469   0.17403   0.99077   0.00000  Uiso   1.00
C570   C     0.50026   0.18012   0.94422   0.00000  Uiso   1.00
C571   C     0.51232   0.16036   0.51351   0.00000  Uiso   1.00
C572   C     0.55525   0.15478   0.98966   0.00000  Uiso   1.00
C573   C     0.57060   0.16392   0.94502   0.00000  Uiso   1.00
C574   C     0.54391   0.17727   0.92293   0.00000  Uiso   1.00
H575   H     0.59308   0.12950   0.57370   0.00000  Uiso   1.00
H576   H     0.34938   0.19417   0.70932   0.00000  Uiso   1.00
H577   H     0.65224   0.13999   0.79063   0.00000  Uiso   1.00
H578   H     0.57309   0.32324   0.68873   0.00000  Uiso   1.00
H579   H     0.53825   0.01804   0.67798   0.00000  Uiso   1.00
H580   H     0.45857   0.33055   0.78817   0.00000  Uiso   1.00
H581   H     0.60378   0.16143   0.92719   0.00000  Uiso   1.00
H582   H     0.61607   0.13782   0.99326   0.00000  Uiso   1.00
H583   H     0.46792   0.15801   0.58022   0.00000  Uiso   1.00
H584   H     0.40831   0.20546   0.92553   0.00000  Uiso   1.00
H585   H     0.42830   0.17941   0.54792   0.00000  Uiso   1.00
H586   H     0.38376   0.20101   0.50650   0.00000  Uiso   1.00
H587   H     0.55844   0.18624   0.88916   0.00000  Uiso   1.00
N588   N     0.55044   0.01017   0.70349   0.00000  Uiso   1.00
O589   O     0.50000   0.16667   0.75000   0.00000  Uiso   1.00
O590   O     0.48784   0.12637   0.65458   0.00000  Uiso   1.00
O591   O     0.46274   0.20391   0.84968   0.00000  Uiso   1.00
O592   O     0.54157   0.17759   0.64606   0.00000  Uiso   1.00
O593   O     0.50785   0.15880   0.84968   0.00000  Uiso   1.00
O594   O     0.51264   0.08019   0.78213   0.00000  Uiso   1.00
O595   O     0.47965   0.26085   0.77013   0.00000  Uiso   1.00
O596   O     0.40745   0.13291   0.73413   0.00000  Uiso   1.00
O597   O     0.60026   0.19272   0.71360   0.00000  Uiso   1.00
O598   O     0.40405   0.18878   0.78213   0.00000  Uiso   1.00
O599   O     0.58824   0.15226   0.77013   0.00000  Uiso   1.00
O600   O     0.47093   0.06944   0.73413   0.00000  Uiso   1.00
O601   O     0.53678   0.25620   0.71360   0.00000  Uiso   1.00
Zn602  Zn    0.52672   0.13994   0.78734   0.00000  Uiso   1.00
Zn603  Zn    0.46713   0.12458   0.71875   0.00000  Uiso   1.00
Zn604  Zn    0.54389   0.19775   0.70657   0.00000  Uiso   1.00
Zn605  Zn    0.46226   0.20439   0.78733   0.00000  Uiso   1.00
C606   C     0.71948   0.15978   0.75989   0.00000  Uiso   1.00
C607   C     0.83268   0.15319   0.55947   0.00000  Uiso   1.00
C608   C     0.90350   0.13666   0.55681   0.00000  Uiso   1.00
C609   C     0.94755   0.17387   0.73990   0.00000  Uiso   1.00
C610   C     0.80521   0.18945   0.92010   0.00000  Uiso   1.00
C611   C     0.99351   0.17659   0.73560   0.00000  Uiso   1.00
C612   C     0.67415   0.15744   0.76391   0.00000  Uiso   1.00
C613   C     0.84833   0.32305   0.73607   0.00000  Uiso   1.00
C614   C     0.81908   0.01173   0.76350   0.00000  Uiso   1.00
C615   C     0.82244   0.05597   0.76064   0.00000  Uiso   1.00
C616   C     0.84364   0.27808   0.74008   0.00000  Uiso   1.00
C617   C     0.74939   0.19485   0.98915   0.00000  Uiso   1.00
C618   C     0.85234   0.14840   0.62936   0.00000  Uiso   1.00
C619   C     0.81575   0.18502   0.87081   0.00000  Uiso   1.00
C620   C     0.91664   0.14193   0.51124   0.00000  Uiso   1.00
C621   C     0.86182   0.14290   0.58096   0.00000  Uiso   1.00
C622   C     0.76376   0.19798   0.94324   0.00000  Uiso   1.00
C623   C     0.77559   0.18217   0.51265   0.00000  Uiso   1.00
C624   C     0.81802   0.17403   0.99077   0.00000  Uiso   1.00
C625   C     0.83359   0.18012   0.94422   0.00000  Uiso   1.00
C626   C     0.84565   0.16036   0.51351   0.00000  Uiso   1.00
C627   C     0.88858   0.15478   0.98966   0.00000  Uiso   1.00
C628   C     0.90394   0.16392   0.94502   0.00000  Uiso   1.00
C629   C     0.87724   0.17727   0.92293   0.00000  Uiso   1.00
H630   H     0.92642   0.12950   0.57370   0.00000  Uiso   1.00
H631   H     0.68271   0.19417   0.70932   0.00000  Uiso   1.00
H632   H     0.98557   0.13999   0.79063   0.00000  Uiso   1.00
H633   H     0.90642   0.32324   0.68873   0.00000  Uiso   1.00
H634   H     0.87158   0.01804   0.67798   0.00000  Uiso   1.00
H635   H     0.79190   0.33055   0.78817   0.00000  Uiso   1.00
H636   H     0.93711   0.16143   0.92719   0.00000  Uiso   1.00
H637   H     0.94941   0.13782   0.99326   0.00000  Uiso   1.00
H638   H     0.80126   0.15801   0.58022   0.00000  Uiso   1.00
H639   H     0.74164   0.20546   0.92553   0.00000  Uiso   1.00
H640   H     0.76163   0.17941   0.54792   0.00000  Uiso   1.00
H641   H     0.71709   0.20101   0.50650   0.00000  Uiso   1.00
H642   H     0.89178   0.18624   0.88916   0.00000  Uiso   1.00
N643   N     0.88377   0.01017   0.70349   0.00000  Uiso   1.00
O644   O     0.83333   0.16667   0.75000   0.00000  Uiso   1.00
O645   O     0.82118   0.12637   0.65458   0.00000  Uiso   1.00
O646   O     0.79607   0.20391   0.84968   0.00000  Uiso   1.00
O647   O     0.87491   0.17759   0.64606   0.00000  Uiso   1.00
O648   O     0.84118   0.15880   0.84968   0.00000  Uiso   1.00
O649   O     0.84597   0.08019   0.78213   0.00000  Uiso   1.00
O650   O     0.81298   0.26085   0.77013   0.00000  Uiso   1.00
O651   O     0.74078   0.13291   0.73413   0.00000  Uiso   1.00
O652   O     0.93360   0.19272   0.71360   0.00000  Uiso   1.00
O653   O     0.73738   0.18878   0.78213   0.00000  Uiso   1.00
O654   O     0.92158   0.15226   0.77013   0.00000  Uiso   1.00
O655   O     0.80426   0.06944   0.73413   0.00000  Uiso   1.00
O656   O     0.87012   0.25620   0.71360   0.00000  Uiso   1.00
Zn657  Zn    0.86005   0.13994   0.78734   0.00000  Uiso   1.00
Zn658  Zn    0.80046   0.12458   0.71875   0.00000  Uiso   1.00
Zn659  Zn    0.87723   0.19775   0.70657   0.00000  Uiso   1.00
Zn660  Zn    0.79560   0.20439   0.78733   0.00000  Uiso   1.00
C661   C     0.05282   0.49312   0.75989   0.00000  Uiso   1.00
C662   C     0.16601   0.48652   0.55947   0.00000  Uiso   1.00
C663   C     0.23683   0.47000   0.55681   0.00000  Uiso   1.00
C664   C     0.28088   0.50721   0.73990   0.00000  Uiso   1.00
C665   C     0.13854   0.52278   0.92010   0.00000  Uiso   1.00
C666   C     0.32684   0.50992   0.73560   0.00000  Uiso   1.00
C667   C     0.00748   0.49077   0.76391   0.00000  Uiso   1.00
C668   C     0.18166   0.65638   0.73607   0.00000  Uiso   1.00
C669   C     0.15241   0.34506   0.76350   0.00000  Uiso   1.00
C670   C     0.15578   0.38931   0.76064   0.00000  Uiso   1.00
C671   C     0.17697   0.61142   0.74008   0.00000  Uiso   1.00
C672   C     0.08272   0.52819   0.98915   0.00000  Uiso   1.00
C673   C     0.18567   0.48174   0.62936   0.00000  Uiso   1.00
C674   C     0.14908   0.51836   0.87081   0.00000  Uiso   1.00
C675   C     0.24997   0.47526   0.51124   0.00000  Uiso   1.00
C676   C     0.19516   0.47623   0.58096   0.00000  Uiso   1.00
C677   C     0.09709   0.53131   0.94324   0.00000  Uiso   1.00
C678   C     0.10893   0.51550   0.51265   0.00000  Uiso   1.00
C679   C     0.15135   0.50736   0.99077   0.00000  Uiso   1.00
C680   C     0.16693   0.51346   0.94422   0.00000  Uiso   1.00
C681   C     0.17899   0.49370   0.51351   0.00000  Uiso   1.00
C682   C     0.22191   0.48811   0.98966   0.00000  Uiso   1.00
C683   C     0.23727   0.49725   0.94502   0.00000  Uiso   1.00
C684   C     0.21057   0.51060   0.92293   0.00000  Uiso   1.00
H685   H     0.25975   0.46284   0.57370   0.00000  Uiso   1.00
H686   H     0.01604   0.52750   0.70932   0.00000  Uiso   1.00
H687   H     0.31890   0.47333   0.79063   0.00000  Uiso   1.00
H688   H     0.23975   0.65657   0.68873   0.00000  Uiso   1.00
H689   H     0.20492   0.35138   0.67798   0.00000  Uiso   1.00
H690   H     0.12523   0.66388   0.78817   0.00000  Uiso   1.00
H691   H     0.27045   0.49476   0.92719   0.00000  Uiso   1.00
H692   H     0.28274   0.47116   0.99326   0.00000  Uiso   1.00
H693   H     0.13459   0.49134   0.58022   0.00000  Uiso   1.00
H694   H     0.07498   0.53879   0.92553   0.00000  Uiso   1.00
H695   H     0.09496   0.51275   0.54792   0.00000  Uiso   1.00
H696   H     0.05043   0.53434   0.50650   0.00000  Uiso   1.00
H697   H     0.22511   0.51957   0.88916   0.00000  Uiso   1.00
N698   N     0.21710   0.34351   0.70349   0.00000  Uiso   1.00
O699   O     0.16667   0.50000   0.75000   0.00000  Uiso   1.00
O700   O     0.15451   0.45970   0.65458   0.00000  Uiso   1.00
O701   O     0.12940   0.53724   0.84968   0.00000  Uiso   1.00
O702   O     0.20824   0.51092   0.64606   0.00000  Uiso   1.00
O703   O     0.17451   0.49213   0.84968   0.00000  Uiso   1.00
O704   O     0.17930   0.41352   0.78213   0.00000  Uiso   1.00
O705   O     0.14632   0.59418   0.77013   0.00000  Uiso   1.00
O706   O     0.07412   0.46625   0.73413   0.00000  Uiso   1.00
O707   O     0.26693   0.52605   0.71360   0.00000  Uiso   1.00
O708   O     0.07071   0.52211   0.78213   0.00000  Uiso   1.00
O709   O     0.25491   0.48559   0.77013   0.00000  Uiso   1.00
O710   O     0.13760   0.40277   0.73413   0.00000  Uiso   1.00
O711   O     0.20345   0.58953   0.71360   0.00000  Uiso   1.00
Zn712  Zn    0.19338   0.47327   0.78734   0.00000  Uiso   1.00
Zn713  Zn    0.13379   0.45791   0.71875   0.00000  Uiso   1.00
Zn714  Zn    0.21056   0.53109   0.70657   0.00000  Uiso   1.00
Zn715  Zn    0.12893   0.53773   0.78733   0.00000  Uiso   1.00
C716   C     0.38615   0.49312   0.75989   0.00000  Uiso   1.00
C717   C     0.49935   0.48652   0.55947   0.00000  Uiso   1.00
C718   C     0.57016   0.47000   0.55681   0.00000  Uiso   1.00
C719   C     0.61422   0.50721   0.73990   0.00000  Uiso   1.00
C720   C     0.47188   0.52278   0.92010   0.00000  Uiso   1.00
C721   C     0.66017   0.50992   0.73560   0.00000  Uiso   1.00
C722   C     0.34082   0.49077   0.76391   0.00000  Uiso   1.00
C723   C     0.51500   0.65638   0.73607   0.00000  Uiso   1.00
C724   C     0.48575   0.34506   0.76350   0.00000  Uiso   1.00
C725   C     0.48911   0.38931   0.76064   0.00000  Uiso   1.00
C726   C     0.51030   0.61142   0.74008   0.00000  Uiso   1.00
C727   C     0.41606   0.52819   0.98915   0.00000  Uiso   1.00
C728   C     0.51900   0.48174   0.62936   0.00000  Uiso   1.00
C729   C     0.48242   0.51836   0.87081   0.00000  Uiso   1.00
C730   C     0.58331   0.47526   0.51124   0.00000  Uiso   1.00
C731   C     0.52849   0.47623   0.58096   0.00000  Uiso   1.00
C732   C     0.43042   0.53131   0.94324   0.00000  Uiso   1.00
C733   C     0.44226   0.51550   0.51265   0.00000  Uiso   1.00
C734   C     0.48469   0.50736   0.99077   0.00000  Uiso   1.00
C735   C     0.50026   0.51346   0.94422   0.00000  Uiso   1.00
C736   C     0.51232   0.49370   0.51351   0.00000  Uiso   1.00
C737   C     0.55525   0.48811   0.98966   0.00000  Uiso   1.00
C738   C     0.57060   0.49725   0.94502   0.00000  Uiso   1.00
C739   C     0.54391   0.51060   0.92293   0.00000  Uiso   1.00
H740   H     0.59308   0.46284   0.57370   0.00000  Uiso   1.00
H741   H     0.34938   0.52750   0.70932   0.00000  Uiso   1.00
H742   H     0.65224   0.47333   0.79063   0.00000  Uiso   1.00
H743   H     0.57309   0.65657   0.68873   0.00000  Uiso   1.00
H744   H     0.53825   0.35138   0.67798   0.00000  Uiso   1.00
H745   H     0.45857   0.66388   0.78817   0.00000  Uiso   1.00
H746   H     0.60378   0.49476   0.92719   0.00000  Uiso   1.00
H747   H     0.61607   0.47116   0.99326   0.00000  Uiso   1.00
H748   H     0.46792   0.49134   0.58022   0.00000  Uiso   1.00
H749   H     0.40831   0.53879   0.92553   0.00000  Uiso   1.00
H750   H     0.42830   0.51275   0.54792   0.00000  Uiso   1.00
H751   H     0.38376   0.53434   0.50650   0.00000  Uiso   1.00
H752   H     0.55844   0.51957   0.88916   0.00000  Uiso   1.00
N753   N     0.55044   0.34351   0.70349   0.00000  Uiso   1.00
O754   O     0.50000   0.50000   0.75000   0.00000  Uiso   1.00
O755   O     0.48784   0.45970   0.65458   0.00000  Uiso   1.00
O756   O     0.46274   0.53724   0.84968   0.00000  Uiso   1.00
O757   O     0.54157   0.51092   0.64606   0.00000  Uiso   1.00
O758   O     0.50785   0.49213   0.84968   0.00000  Uiso   1.00
O759   O     0.51264   0.41352   0.78213   0.00000  Uiso   1.00
O760   O     0.47965   0.59418   0.77013   0.00000  Uiso   1.00
O761   O     0.40745   0.46625   0.73413   0.00000  Uiso   1.00
O762   O     0.60026   0.52605   0.71360   0.00000  Uiso   1.00
O763   O     0.40405   0.52211   0.78213   0.00000  Uiso   1.00
O764   O     0.58824   0.48559   0.77013   0.00000  Uiso   1.00
O765   O     0.47093   0.40277   0.73413   0.00000  Uiso   1.00
O766   O     0.53678   0.58953   0.71360   0.00000  Uiso   1.00
Zn767  Zn    0.52672   0.47327   0.78734   0.00000  Uiso   1.00
Zn768  Zn    0.46713   0.45791   0.71875   0.00000  Uiso   1.00
Zn769  Zn    0.54389   0.53109   0.70657   0.00000  Uiso   1.00
Zn770  Zn    0.46226   0.53773   0.78733   0.00000  Uiso   1.00
C771   C     0.71948   0.49312   0.75989   0.00000  Uiso   1.00
C772   C     0.83268   0.48652   0.55947   0.00000  Uiso   1.00
C773   C     0.90350   0.47000   0.55681   0.00000  Uiso   1.00
C774   C     0.94755   0.50721   0.73990   0.00000  Uiso   1.00
C775   C     0.80521   0.52278   0.92010   0.00000  Uiso   1.00
C776   C     0.99351   0.50992   0.73560   0.00000  Uiso   1.00
C777   C     0.67415   0.49077   0.76391   0.00000  Uiso   1.00
C778   C     0.84833   0.65638   0.73607   0.00000  Uiso   1.00
C779   C     0.81908   0.34506   0.76350   0.00000  Uiso   1.00
C780   C     0.82244   0.38931   0.76064   0.00000  Uiso   1.00
C781   C     0.84364   0.61142   0.74008   0.00000  Uiso   1.00
C782   C     0.74939   0.52819   0.98915   0.00000  Uiso   1.00
C783   C     0.85234   0.48174   0.62936   0.00000  Uiso   1.00
C784   C     0.81575   0.51836   0.87081   0.00000  Uiso   1.00
C785   C     0.91664   0.47526   0.51124   0.00000  Uiso   1.00
C786   C     0.86182   0.47623   0.58096   0.00000  Uiso   1.00
C787   C     0.76376   0.53131   0.94324   0.00000  Uiso   1.00
C788   C     0.77559   0.51550   0.51265   0.00000  Uiso   1.00
C789   C     0.81802   0.50736   0.99077   0.00000  Uiso   1.00
C790   C     0.83359   0.51346   0.94422   0.00000  Uiso   1.00
C791   C     0.84565   0.49370   0.51351   0.00000  Uiso   1.00
C792   C     0.88858   0.48811   0.98966   0.00000  Uiso   1.00
C793   C     0.90394   0.49725   0.94502   0.00000  Uiso   1.00
C794   C     0.87724   0.51060   0.92293   0.00000  Uiso   1.00
H795   H     0.92642   0.46284   0.57370   0.00000  Uiso   1.00
H796   H     0.68271   0.52750   0.70932   0.00000  Uiso   1.00
H797   H     0.98557   0.47333   0.79063   0.00000  Uiso   1.00
H798   H     0.90642   0.65657   0.68873   0.00000  Uiso   1.00
H799   H     0.87158   0.35138   0.67798   0.00000  Uiso   1.00
H800   H     0.79190   0.66388   0.78817   0.00000  Uiso   1.00
H801   H     0.93711   0.49476   0.92719   0.00000  Uiso   1.00
H802   H     0.94941   0.47116   0.99326   0.00000  Uiso   1.00
H803   H     0.80126   0.49134   0.58022   0.00000  Uiso   1.00
H804   H     0.74164   0.53879   0.92553   0.00000  Uiso   1.00
H805   H     0.76163   0.51275   0.54792   0.00000  Uiso   1.00
H806   H     0.71709   0.53434   0.50650   0.00000  Uiso   1.00
H807   H     0.89178   0.51957   0.88916   0.00000  Uiso   1.00
N808   N     0.88377   0.34351   0.70349   0.00000  Uiso   1.00
O809   O     0.83333   0.50000   0.75000   0.00000  Uiso   1.00
O810   O     0.82118   0.45970   0.65458   0.00000  Uiso   1.00
O811   O     0.79607   0.53724   0.84968   0.00000  Uiso   1.00
O812   O     0.87491   0.51092   0.64606   0.00000  Uiso   1.00
O813   O     0.84118   0.49213   0.84968   0.00000  Uiso   1.00
O814   O     0.84597   0.41352   0.78213   0.00000  Uiso   1.00
O815   O     0.81298   0.59418   0.77013   0.00000  Uiso   1.00
O816   O     0.74078   0.46625   0.73413   0.00000  Uiso   1.00
O817   O     0.93360   0.52605   0.71360   0.00000  Uiso   1.00
O818   O     0.73738   0.52211   0.78213   0.00000  Uiso   1.00
O819   O     0.92158   0.48559   0.77013   0.00000  Uiso   1.00
O820   O     0.80426   0.40277   0.73413   0.00000  Uiso   1.00
O821   O     0.87012   0.58953   0.71360   0.00000  Uiso   1.00
Zn822  Zn    0.86005   0.47327   0.78734   0.00000  Uiso   1.00
Zn823  Zn    0.80046   0.45791   0.71875   0.00000  Uiso   1.00
Zn824  Zn    0.87723   0.53109   0.70657   0.00000  Uiso   1.00
Zn825  Zn    0.79560   0.53773   0.78733   0.00000  Uiso   1.00
C826   C     0.05282   0.82645   0.75989   0.00000  Uiso   1.00
C827   C     0.16601   0.81986   0.55947   0.00000  Uiso   1.00
C828   C     0.23683   0.80333   0.55681   0.00000  Uiso   1.00
C829   C     0.28088   0.84054   0.73990   0.00000  Uiso   1.00
C830   C     0.13854   0.85612   0.92010   0.00000  Uiso   1.00
C831   C     0.32684   0.84326   0.73560   0.00000  Uiso   1.00
C832   C     0.00748   0.82411   0.76391   0.00000  Uiso   1.00
C833   C     0.18166   0.98971   0.73607   0.00000  Uiso   1.00
C834   C     0.15241   0.67840   0.76350   0.00000  Uiso   1.00
C835   C     0.15578   0.72264   0.76064   0.00000  Uiso   1.00
C836   C     0.17697   0.94475   0.74008   0.00000  Uiso   1.00
C837   C     0.08272   0.86152   0.98915   0.00000  Uiso   1.00
C838   C     0.18567   0.81507   0.62936   0.00000  Uiso   1.00
C839   C     0.14908   0.85169   0.87081   0.00000  Uiso   1.00
C840   C     0.24997   0.80860   0.51124   0.00000  Uiso   1.00
C841   C     0.19516   0.80957   0.58096   0.00000  Uiso   1.00
C842   C     0.09709   0.86465   0.94324   0.00000  Uiso   1.00
C843   C     0.10893   0.84883   0.51265   0.00000  Uiso   1.00
C844   C     0.15135   0.84069   0.99077   0.00000  Uiso   1.00
C845   C     0.16693   0.84679   0.94422   0.00000  Uiso   1.00
C846   C     0.17899   0.82703   0.51351   0.00000  Uiso   1.00
C847   C     0.22191   0.82144   0.98966   0.00000  Uiso   1.00
C848   C     0.23727   0.83058   0.94502   0.00000  Uiso   1.00
C849   C     0.21057   0.84394   0.92293   0.00000  Uiso   1.00
H850   H     0.25975   0.79617   0.57370   0.00000  Uiso   1.00
H851   H     0.01604   0.86083   0.70932   0.00000  Uiso   1.00
H852   H     0.31890   0.80666   0.79063   0.00000  Uiso   1.00
H853   H     0.23975   0.98990   0.68873   0.00000  Uiso   1.00
H854   H     0.20492   0.68471   0.67798   0.00000  Uiso   1.00
H855   H     0.12523   0.99721   0.78817   0.00000  Uiso   1.00
H856   H     0.27045   0.82809   0.92719   0.00000  Uiso   1.00
H857   H     0.28274   0.80449   0.99326   0.00000  Uiso   1.00
H858   H     0.13459   0.82467   0.58022   0.00000  Uiso   1.00
H859   H     0.07498   0.87213   0.92553   0.00000  Uiso   1.00
H860   H     0.09496   0.84608   0.54792   0.00000  Uiso   1.00
H861   H     0.05043   0.86768   0.50650   0.00000  Uiso   1.00
H862   H     0.22511   0.85290   0.88916   0.00000  Uiso   1.00
N863   N     0.21710   0.67684   0.70349   0.00000  Uiso   1.00
O864   O     0.16667   0.83333   0.75000   0.00000  Uiso   1.00
O865   O     0.15451   0.79304   0.65458   0.00000  Uiso   1.00
O866   O     0.12940   0.87058   0.84968   0.00000  Uiso   1.00
O867   O     0.20824   0.84425   0.64606   0.00000  Uiso   1.00
O868   O     0.17451   0.82546   0.84968   0.00000  Uiso   1.00
O869   O     0.17930   0.74686   0.78213   0.00000  Uiso   1.00
O870   O     0.14632   0.92751   0.77013   0.00000  Uiso   1.00
O871   O     0.07412   0.79958   0.73413   0.00000  Uiso   1.00
O872   O     0.26693   0.85939   0.71360   0.00000  Uiso   1.00
O873   O     0.07071   0.85544   0.78213   0.00000  Uiso   1.00
O874   O     0.25491   0.81892   0.77013   0.00000  Uiso   1.00
O875   O     0.13760   0.73610   0.73413   0.00000  Uiso   1.00
O876   O     0.20345   0.92286   0.71360   0.00000  Uiso   1.00
Zn877  Zn    0.19338   0.80661   0.78734   0.00000  Uiso   1.00
Zn878  Zn    0.13379   0.79124   0.71875   0.00000  Uiso   1.00
Zn879  Zn    0.21056   0.86442   0.70657   0.00000  Uiso   1.00
Zn880  Zn    0.12893   0.87106   0.78733   0.00000  Uiso   1.00
C881   C     0.38615   0.82645   0.75989   0.00000  Uiso   1.00
C882   C     0.49935   0.81986   0.55947   0.00000  Uiso   1.00
C883   C     0.57016   0.80333   0.55681   0.00000  Uiso   1.00
C884   C     0.61422   0.84054   0.73990   0.00000  Uiso   1.00
C885   C     0.47188   0.85612   0.92010   0.00000  Uiso   1.00
C886   C     0.66017   0.84326   0.73560   0.00000  Uiso   1.00
C887   C     0.34082   0.82411   0.76391   0.00000  Uiso   1.00
C888   C     0.51500   0.98971   0.73607   0.00000  Uiso   1.00
C889   C     0.48575   0.67840   0.76350   0.00000  Uiso   1.00
C890   C     0.48911   0.72264   0.76064   0.00000  Uiso   1.00
C891   C     0.51030   0.94475   0.74008   0.00000  Uiso   1.00
C892   C     0.41606   0.86152   0.98915   0.00000  Uiso   1.00
C893   C     0.51900   0.81507   0.62936   0.00000  Uiso   1.00
C894   C     0.48242   0.85169   0.87081   0.00000  Uiso   1.00
C895   C     0.58331   0.80860   0.51124   0.00000  Uiso   1.00
C896   C     0.52849   0.80957   0.58096   0.00000  Uiso   1.00
C897   C     0.43042   0.86465   0.94324   0.00000  Uiso   1.00
C898   C     0.44226   0.84883   0.51265   0.00000  Uiso   1.00
C899   C     0.48469   0.84069   0.99077   0.00000  Uiso   1.00
C900   C     0.50026   0.84679   0.94422   0.00000  Uiso   1.00
C901   C     0.51232   0.82703   0.51351   0.00000  Uiso   1.00
C902   C     0.55525   0.82144   0.98966   0.00000  Uiso   1.00
C903   C     0.57060   0.83058   0.94502   0.00000  Uiso   1.00
C904   C     0.54391   0.84394   0.92293   0.00000  Uiso   1.00
H905   H     0.59308   0.79617   0.57370   0.00000  Uiso   1.00
H906   H     0.34938   0.86083   0.70932   0.00000  Uiso   1.00
H907   H     0.65224   0.80666   0.79063   0.00000  Uiso   1.00
H908   H     0.57309   0.98990   0.68873   0.00000  Uiso   1.00
H909   H     0.53825   0.68471   0.67798   0.00000  Uiso   1.00
H910   H     0.45857   0.99721   0.78817   0.00000  Uiso   1.00
H911   H     0.60378   0.82809   0.92719   0.00000  Uiso   1.00
H912   H     0.61607   0.80449   0.99326   0.00000  Uiso   1.00
H913   H     0.46792   0.82467   0.58022   0.00000  Uiso   1.00
H914   H     0.40831   0.87213   0.92553   0.00000  Uiso   1.00
H915   H     0.42830   0.84608   0.54792   0.00000  Uiso   1.00
H916   H     0.38376   0.86768   0.50650   0.00000  Uiso   1.00
H917   H     0.55844   0.85290   0.88916   0.00000  Uiso   1.00
N918   N     0.55044   0.67684   0.70349   0.00000  Uiso   1.00
O919   O     0.50000   0.83333   0.75000   0.00000  Uiso   1.00
O920   O     0.48784   0.79304   0.65458   0.00000  Uiso   1.00
O921   O     0.46274   0.87058   0.84968   0.00000  Uiso   1.00
O922   O     0.54157   0.84425   0.64606   0.00000  Uiso   1.00
O923   O     0.50785   0.82546   0.84968   0.00000  Uiso   1.00
O924   O     0.51264   0.74686   0.78213   0.00000  Uiso   1.00
O925   O     0.47965   0.92751   0.77013   0.00000  Uiso   1.00
O926   O     0.40745   0.79958   0.73413   0.00000  Uiso   1.00
O927   O     0.60026   0.85939   0.71360   0.00000  Uiso   1.00
O928   O     0.40405   0.85544   0.78213   0.00000  Uiso   1.00
O929   O     0.58824   0.81892   0.77013   0.00000  Uiso   1.00
O930   O     0.47093   0.73610   0.73413   0.00000  Uiso   1.00
O931   O     0.53678   0.92286   0.71360   0.00000  Uiso   1.00
Zn932  Zn    0.52672   0.80661   0.78734   0.00000  Uiso   1.00
Zn933  Zn    0.46713   0.79124   0.71875   0.00000  Uiso   1.00
Zn934  Zn    0.54389   0.86442   0.70657   0.00000  Uiso   1.00
Zn935  Zn    0.46226   0.87106   0.78733   0.00000  Uiso   1.00
C936   C     0.71948   0.82645   0.75989   0.00000  Uiso   1.00
C937   C     0.83268   0.81986   0.55947   0.00000  Uiso   1.00
C938   C     0.90350   0.80333   0.55681   0.00000  Uiso   1.00
C939   C     0.94755   0.84054   0.73990   0.00000  Uiso   1.00
C940   C     0.80521   0.85612   0.92010   0.00000  Uiso   1.00
C941   C     0.99351   0.84326   0.73560   0.00000  Uiso   1.00
C942   C     0.67415   0.82411   0.76391   0.00000  Uiso   1.00
C943   C     0.84833   0.98971   0.73607   0.00000  Uiso   1.00
C944   C     0.81908   0.67840   0.76350   0.00000  Uiso   1.00
C945   C     0.82244   0.72264   0.76064   0.00000  Uiso   1.00
C946   C     0.84364   0.94475   0.74008   0.00000  Uiso   1.00
C947   C     0.74939   0.86152   0.98915   0.00000  Uiso   1.00
C948   C     0.85234   0.81507   0.62936   0.00000  Uiso   1.00
C949   C     0.81575   0.85169   0.87081   0.00000  Uiso   1.00
C950   C     0.91664   0.80860   0.51124   0.00000  Uiso   1.00
C951   C     0.86182   0.80957   0.58096   0.00000  Uiso   1.00
C952   C     0.76376   0.86465   0.94324   0.00000  Uiso   1.00
C953   C     0.77559   0.84883   0.51265   0.00000  Uiso   1.00
C954   C     0.81802   0.84069   0.99077   0.00000  Uiso   1.00
C955   C     0.83359   0.84679   0.94422   0.00000  Uiso   1.00
C956   C     0.84565   0.82703   0.51351   0.00000  Uiso   1.00
C957   C     0.88858   0.82144   0.98966   0.00000  Uiso   1.00
C958   C     0.90394   0.83058   0.94502   0.00000  Uiso   1.00
C959   C     0.87724   0.84394   0.92293   0.00000  Uiso   1.00
H960   H     0.92642   0.79617   0.57370   0.00000  Uiso   1.00
H961   H     0.68271   0.86083   0.70932   0.00000  Uiso   1.00
H962   H     0.98557   0.80666   0.79063   0.00000  Uiso   1.00
H963   H     0.90642   0.98990   0.68873   0.00000  Uiso   1.00
H964   H     0.87158   0.68471   0.67798   0.00000  Uiso   1.00
H965   H     0.79190   0.99721   0.78817   0.00000  Uiso   1.00
H966   H     0.93711   0.82809   0.92719   0.00000  Uiso   1.00
H967   H     0.94941   0.80449   0.99326   0.00000  Uiso   1.00
H968   H     0.80126   0.82467   0.58022   0.00000  Uiso   1.00
H969   H     0.74164   0.87213   0.92553   0.00000  Uiso   1.00
H970   H     0.76163   0.84608   0.54792   0.00000  Uiso   1.00
H971   H     0.71709   0.86768   0.50650   0.00000  Uiso   1.00
H972   H     0.89178   0.85290   0.88916   0.00000  Uiso   1.00
N973   N     0.88377   0.67684   0.70349   0.00000  Uiso   1.00
O974   O     0.83333   0.83333   0.75000   0.00000  Uiso   1.00
O975   O     0.82118   0.79304   0.65458   0.00000  Uiso   1.00
O976   O     0.79607   0.87058   0.84968   0.00000  Uiso   1.00
O977   O     0.87491   0.84425   0.64606   0.00000  Uiso   1.00
O978   O     0.84118   0.82546   0.84968   0.00000  Uiso   1.00
O979   O     0.84597   0.74686   0.78213   0.00000  Uiso   1.00
O980   O     0.81298   0.92751   0.77013   0.00000  Uiso   1.00
O981   O     0.74078   0.79958   0.73413   0.00000  Uiso   1.00
O982   O     0.93360   0.85939   0.71360   0.00000  Uiso   1.00
O983   O     0.73738   0.85544   0.78213   0.00000  Uiso   1.00
O984   O     0.92158   0.81892   0.77013   0.00000  Uiso   1.00
O985   O     0.80426   0.73610   0.73413   0.00000  Uiso   1.00
O986   O     0.87012   0.92286   0.71360   0.00000  Uiso   1.00
Zn987  Zn    0.86005   0.80661   0.78734   0.00000  Uiso   1.00
Zn988  Zn    0.80046   0.79124   0.71875   0.00000  Uiso   1.00
Zn989  Zn    0.87723   0.86442   0.70657   0.00000  Uiso   1.00
Zn990  Zn    0.79560   0.87106   0.78733   0.00000  Uiso   1.00
loop_
_geom_bond_atom_site_label_1
_geom_bond_atom_site_label_2
_geom_bond_distance
_geom_bond_site_symmetry_2
_ccdc_geom_bond_type
C1     O48     1.274   .     A
C1     O46     1.275   .     A
C1     C7      1.438   .     S
C2     C16     1.393   .     A
C2     C21     1.411   .     A
C2     H33     1.077   .     S
C3     C15     1.387   .     A
C3     H25     1.084   .     S
C3     C16     1.396   .     A
C4     O49     1.275   .     A
C4     C6      1.456   .     S
C4     O47     1.280   .     A
C5     C20     1.418   .     A
C5     C14     1.474   .     S
C5     C17     1.402   .     A
C6     C62     1.335   .     S
C6     H81     1.087   .     S
C7     C116    1.335   1_455 S
C7     H137    1.086   1_455 S
C8     C11     1.463   .     S
C8     C174    1.338   .     S
C8     N203    1.443   .     S
C9     C10     1.438   .     S
C9     C338    1.338   1_545 S
C9     H360    1.086   1_545 S
C10    O44     1.280   .     A
C10    O50     1.279   .     A
C11    O51     1.269   .     A
C11    O45     1.274   .     A
C12    C17     1.387   .     A
C12    C513    1.391   .     S
C12    H531    1.083   .     S
C13    O42     1.267   .     A
C13    C16     1.450   .     S
C13    O40     1.277   .     A
C14    O41     1.283   .     A
C14    O43     1.284   .     A
C15    C517    1.400   1_554 S
C15    H527    1.084   1_554 S
C17    H34     1.083   .     S
C18    H35     1.076   .     S
C18    C507    1.391   1_554 S
C18    C514    1.417   1_554 S
C19    C20     1.423   .     A
C19    C513    1.417   .     S
C19    C516    1.426   .     S
C20    C24     1.410   .     A
C21    C514    1.426   1_554 S
C21    C517    1.424   1_554 S
C22    C23     1.390   .     A
C22    C510    1.400   .     S
C22    C516    1.424   .     S
C23    C24     1.382   .     A
C23    H31     1.084   .     S
C24    H37     1.080   .     S
H26    C116    1.087   1_455 S
H27    C62     1.086   .     S
H28    N203    1.044   .     S
H29    N38     1.046   .     S
H30    C174    1.086   .     S
H32    C510    1.084   .     S
H36    C507    1.083   1_554 S
N38    H358    1.044   1_545 S
N38    C338    1.443   1_545 S
O39    Zn52    1.959   .     S
O39    Zn53    1.951   .     S
O39    Zn54    1.924   .     S
O39    Zn55    1.938   .     S
O40    Zn53    1.931   .     S
O41    Zn55    1.944   .     S
O42    Zn54    1.944   .     S
O43    Zn52    1.933   .     S
O44    Zn52    1.930   .     S
O45    Zn55    1.927   .     S
O46    Zn53    1.926   .     S
O47    Zn54    1.938   .     S
O48    Zn55    1.933   .     S
O49    Zn52    1.920   .     S
O50    Zn53    1.934   .     S
O51    Zn54    1.933   .     S
C56    O103    1.274   .     A
C56    O101    1.275   .     A
C56    C62     1.438   .     S
C57    C71     1.393   .     A
C57    C76     1.411   .     A
C57    H88     1.077   .     S
C58    C70     1.387   .     A
C58    H80     1.084   .     S
C58    C71     1.396   .     A
C59    O104    1.275   .     A
C59    C61     1.456   .     S
C59    O102    1.280   .     A
C60    C75     1.418   .     A
C60    C69     1.474   .     S
C60    C72     1.402   .     A
C61    C117    1.335   .     S
C61    H136    1.087   .     S
C63    C66     1.463   .     S
C63    C229    1.338   .     S
C63    N258    1.443   .     S
C64    C65     1.438   .     S
C64    C393    1.338   1_545 S
C64    H415    1.086   1_545 S
C65    O99     1.280   .     A
C65    O105    1.279   .     A
C66    O106    1.269   .     A
C66    O100    1.274   .     A
C67    C72     1.387   .     A
C67    C568    1.391   .     S
C67    H586    1.083   .     S
C68    O97     1.267   .     A
C68    C71     1.450   .     S
C68    O95     1.277   .     A
C69    O96     1.283   .     A
C69    O98     1.284   .     A
C70    C572    1.400   1_554 S
C70    H582    1.084   1_554 S
C72    H89     1.083   .     S
C73    H90     1.076   .     S
C73    C562    1.391   1_554 S
C73    C569    1.417   1_554 S
C74    C75     1.423   .     A
C74    C568    1.417   .     S
C74    C571    1.426   .     S
C75    C79     1.410   .     A
C76    C569    1.426   1_554 S
C76    C572    1.424   1_554 S
C77    C78     1.390   .     A
C77    C565    1.400   .     S
C77    C571    1.424   .     S
C78    C79     1.382   .     A
C78    H86     1.084   .     S
C79    H92     1.080   .     S
H82    C117    1.086   .     S
H83    N258    1.044   .     S
H84    N93     1.046   .     S
H85    C229    1.086   .     S
H87    C565    1.084   .     S
H91    C562    1.083   1_554 S
N93    H413    1.044   1_545 S
N93    C393    1.443   1_545 S
O94    Zn107   1.959   .     S
O94    Zn108   1.951   .     S
O94    Zn109   1.924   .     S
O94    Zn110   1.938   .     S
O95    Zn108   1.931   .     S
O96    Zn110   1.944   .     S
O97    Zn109   1.944   .     S
O98    Zn107   1.933   .     S
O99    Zn107   1.930   .     S
O100   Zn110   1.927   .     S
O101   Zn108   1.926   .     S
O102   Zn109   1.938   .     S
O103   Zn110   1.933   .     S
O104   Zn107   1.920   .     S
O105   Zn108   1.934   .     S
O106   Zn109   1.933   .     S
C111   O158    1.274   .     A
C111   O156    1.275   .     A
C111   C117    1.438   .     S
C112   C126    1.393   .     A
C112   C131    1.411   .     A
C112   H143    1.077   .     S
C113   C125    1.387   .     A
C113   H135    1.084   .     S
C113   C126    1.396   .     A
C114   O159    1.275   .     A
C114   C116    1.456   .     S
C114   O157    1.280   .     A
C115   C130    1.418   .     A
C115   C124    1.474   .     S
C115   C127    1.402   .     A
C116   C7      1.335   1_655 S
C116   H26     1.087   1_655 S
C118   C121    1.463   .     S
C118   C284    1.338   .     S
C118   N313    1.443   .     S
C119   C120    1.438   .     S
C119   C448    1.338   1_545 S
C119   H470    1.086   1_545 S
C120   O154    1.280   .     A
C120   O160    1.279   .     A
C121   O161    1.269   .     A
C121   O155    1.274   .     A
C122   C127    1.387   .     A
C122   C623    1.391   .     S
C122   H641    1.083   .     S
C123   O152    1.267   .     A
C123   C126    1.450   .     S
C123   O150    1.277   .     A
C124   O151    1.283   .     A
C124   O153    1.284   .     A
C125   C627    1.400   1_554 S
C125   H637    1.084   1_554 S
C127   H144    1.083   .     S
C128   H145    1.076   .     S
C128   C617    1.391   1_554 S
C128   C624    1.417   1_554 S
C129   C130    1.423   .     A
C129   C623    1.417   .     S
C129   C626    1.426   .     S
C130   C134    1.410   .     A
C131   C624    1.426   1_554 S
C131   C627    1.424   1_554 S
C132   C133    1.390   .     A
C132   C620    1.400   .     S
C132   C626    1.424   .     S
C133   C134    1.382   .     A
C133   H141    1.084   .     S
C134   H147    1.080   .     S
H137   C7      1.086   1_655 S
H138   N313    1.044   .     S
H139   N148    1.046   .     S
H140   C284    1.086   .     S
H142   C620    1.084   .     S
H146   C617    1.083   1_554 S
N148   H468    1.044   1_545 S
N148   C448    1.443   1_545 S
O149   Zn162   1.959   .     S
O149   Zn163   1.951   .     S
O149   Zn164   1.924   .     S
O149   Zn165   1.938   .     S
O150   Zn163   1.931   .     S
O151   Zn165   1.944   .     S
O152   Zn164   1.944   .     S
O153   Zn162   1.933   .     S
O154   Zn162   1.930   .     S
O155   Zn165   1.927   .     S
O156   Zn163   1.926   .     S
O157   Zn164   1.938   .     S
O158   Zn165   1.933   .     S
O159   Zn162   1.920   .     S
O160   Zn163   1.934   .     S
O161   Zn164   1.933   .     S
C166   O213    1.274   .     A
C166   O211    1.275   .     A
C166   C172    1.438   .     S
C167   C181    1.393   .     A
C167   C186    1.411   .     A
C167   H198    1.077   .     S
C168   C180    1.387   .     A
C168   H190    1.084   .     S
C168   C181    1.396   .     A
C169   O214    1.275   .     A
C169   C171    1.456   .     S
C169   O212    1.280   .     A
C170   C185    1.418   .     A
C170   C179    1.474   .     S
C170   C182    1.402   .     A
C171   C227    1.335   .     S
C171   H246    1.087   .     S
C172   C281    1.335   1_455 S
C172   H302    1.086   1_455 S
C173   C176    1.463   .     S
C173   C339    1.338   .     S
C173   N368    1.443   .     S
C174   C175    1.438   .     S
C175   O209    1.280   .     A
C175   O215    1.279   .     A
C176   O216    1.269   .     A
C176   O210    1.274   .     A
C177   C182    1.387   .     A
C177   C678    1.391   .     S
C177   H696    1.083   .     S
C178   O207    1.267   .     A
C178   C181    1.450   .     S
C178   O205    1.277   .     A
C179   O206    1.283   .     A
C179   O208    1.284   .     A
C180   C682    1.400   1_554 S
C180   H692    1.084   1_554 S
C182   H199    1.083   .     S
C183   H200    1.076   .     S
C183   C672    1.391   1_554 S
C183   C679    1.417   1_554 S
C184   C185    1.423   .     A
C184   C678    1.417   .     S
C184   C681    1.426   .     S
C185   C189    1.410   .     A
C186   C679    1.426   1_554 S
C186   C682    1.424   1_554 S
C187   C188    1.390   .     A
C187   C675    1.400   .     S
C187   C681    1.424   .     S
C188   C189    1.382   .     A
C188   H196    1.084   .     S
C189   H202    1.080   .     S
H191   C281    1.087   1_455 S
H192   C227    1.086   .     S
H193   N368    1.044   .     S
H194   N203    1.046   .     S
H195   C339    1.086   .     S
H197   C675    1.084   .     S
H201   C672    1.083   1_554 S
O204   Zn217   1.959   .     S
O204   Zn218   1.951   .     S
O204   Zn219   1.924   .     S
O204   Zn220   1.938   .     S
O205   Zn218   1.931   .     S
O206   Zn220   1.944   .     S
O207   Zn219   1.944   .     S
O208   Zn217   1.933   .     S
O209   Zn217   1.930   .     S
O210   Zn220   1.927   .     S
O211   Zn218   1.926   .     S
O212   Zn219   1.938   .     S
O213   Zn220   1.933   .     S
O214   Zn217   1.920   .     S
O215   Zn218   1.934   .     S
O216   Zn219   1.933   .     S
C221   O268    1.274   .     A
C221   O266    1.275   .     A
C221   C227    1.438   .     S
C222   C236    1.393   .     A
C222   C241    1.411   .     A
C222   H253    1.077   .     S
C223   C235    1.387   .     A
C223   H245    1.084   .     S
C223   C236    1.396   .     A
C224   O269    1.275   .     A
C224   C226    1.456   .     S
C224   O267    1.280   .     A
C225   C240    1.418   .     A
C225   C234    1.474   .     S
C225   C237    1.402   .     A
C226   C282    1.335   .     S
C226   H301    1.087   .     S
C228   C231    1.463   .     S
C228   C394    1.338   .     S
C228   N423    1.443   .     S
C229   C230    1.438   .     S
C230   O264    1.280   .     A
C230   O270    1.279   .     A
C231   O271    1.269   .     A
C231   O265    1.274   .     A
C232   C237    1.387   .     A
C232   C733    1.391   .     S
C232   H751    1.083   .     S
C233   O262    1.267   .     A
C233   C236    1.450   .     S
C233   O260    1.277   .     A
C234   O261    1.283   .     A
C234   O263    1.284   .     A
C235   C737    1.400   1_554 S
C235   H747    1.084   1_554 S
C237   H254    1.083   .     S
C238   H255    1.076   .     S
C238   C727    1.391   1_554 S
C238   C734    1.417   1_554 S
C239   C240    1.423   .     A
C239   C733    1.417   .     S
C239   C736    1.426   .     S
C240   C244    1.410   .     A
C241   C734    1.426   1_554 S
C241   C737    1.424   1_554 S
C242   C243    1.390   .     A
C242   C730    1.400   .     S
C242   C736    1.424   .     S
C243   C244    1.382   .     A
C243   H251    1.084   .     S
C244   H257    1.080   .     S
H247   C282    1.086   .     S
H248   N423    1.044   .     S
H249   N258    1.046   .     S
H250   C394    1.086   .     S
H252   C730    1.084   .     S
H256   C727    1.083   1_554 S
O259   Zn272   1.959   .     S
O259   Zn273   1.951   .     S
O259   Zn274   1.924   .     S
O259   Zn275   1.938   .     S
O260   Zn273   1.931   .     S
O261   Zn275   1.944   .     S
O262   Zn274   1.944   .     S
O263   Zn272   1.933   .     S
O264   Zn272   1.930   .     S
O265   Zn275   1.927   .     S
O266   Zn273   1.926   .     S
O267   Zn274   1.938   .     S
O268   Zn275   1.933   .     S
O269   Zn272   1.920   .     S
O270   Zn273   1.934   .     S
O271   Zn274   1.933   .     S
C276   O323    1.274   .     A
C276   O321    1.275   .     A
C276   C282    1.438   .     S
C277   C291    1.393   .     A
C277   C296    1.411   .     A
C277   H308    1.077   .     S
C278   C290    1.387   .     A
C278   H300    1.084   .     S
C278   C291    1.396   .     A
C279   O324    1.275   .     A
C279   C281    1.456   .     S
C279   O322    1.280   .     A
C280   C295    1.418   .     A
C280   C289    1.474   .     S
C280   C292    1.402   .     A
C281   C172    1.335   1_655 S
C281   H191    1.087   1_655 S
C283   C286    1.463   .     S
C283   C449    1.338   .     S
C283   N478    1.443   .     S
C284   C285    1.438   .     S
C285   O319    1.280   .     A
C285   O325    1.279   .     A
C286   O326    1.269   .     A
C286   O320    1.274   .     A
C287   C292    1.387   .     A
C287   C788    1.391   .     S
C287   H806    1.083   .     S
C288   O317    1.267   .     A
C288   C291    1.450   .     S
C288   O315    1.277   .     A
C289   O316    1.283   .     A
C289   O318    1.284   .     A
C290   C792    1.400   1_554 S
C290   H802    1.084   1_554 S
C292   H309    1.083   .     S
C293   H310    1.076   .     S
C293   C782    1.391   1_554 S
C293   C789    1.417   1_554 S
C294   C295    1.423   .     A
C294   C788    1.417   .     S
C294   C791    1.426   .     S
C295   C299    1.410   .     A
C296   C789    1.426   1_554 S
C296   C792    1.424   1_554 S
C297   C298    1.390   .     A
C297   C785    1.400   .     S
C297   C791    1.424   .     S
C298   C299    1.382   .     A
C298   H306    1.084   .     S
C299   H312    1.080   .     S
H302   C172    1.086   1_655 S
H303   N478    1.044   .     S
H304   N313    1.046   .     S
H305   C449    1.086   .     S
H307   C785    1.084   .     S
H311   C782    1.083   1_554 S
O314   Zn327   1.959   .     S
O314   Zn328   1.951   .     S
O314   Zn329   1.924   .     S
O314   Zn330   1.938   .     S
O315   Zn328   1.931   .     S
O316   Zn330   1.944   .     S
O317   Zn329   1.944   .     S
O318   Zn327   1.933   .     S
O319   Zn327   1.930   .     S
O320   Zn330   1.927   .     S
O321   Zn328   1.926   .     S
O322   Zn329   1.938   .     S
O323   Zn330   1.933   .     S
O324   Zn327   1.920   .     S
O325   Zn328   1.934   .     S
O326   Zn329   1.933   .     S
C331   O378    1.274   .     A
C331   O376    1.275   .     A
C331   C337    1.438   .     S
C332   C346    1.393   .     A
C332   C351    1.411   .     A
C332   H363    1.077   .     S
C333   C345    1.387   .     A
C333   H355    1.084   .     S
C333   C346    1.396   .     A
C334   O379    1.275   .     A
C334   C336    1.456   .     S
C334   O377    1.280   .     A
C335   C350    1.418   .     A
C335   C344    1.474   .     S
C335   C347    1.402   .     A
C336   C392    1.335   .     S
C336   H411    1.087   .     S
C337   C446    1.335   1_455 S
C337   H467    1.086   1_455 S
C338   C341    1.463   .     S
C338   C9      1.338   1_565 S
C338   N38     1.443   1_565 S
C339   C340    1.438   .     S
C340   O374    1.280   .     A
C340   O380    1.279   .     A
C341   O381    1.269   .     A
C341   O375    1.274   .     A
C342   C347    1.387   .     A
C342   C843    1.391   .     S
C342   H861    1.083   .     S
C343   O372    1.267   .     A
C343   C346    1.450   .     S
C343   O370    1.277   .     A
C344   O371    1.283   .     A
C344   O373    1.284   .     A
C345   C847    1.400   1_554 S
C345   H857    1.084   1_554 S
C347   H364    1.083   .     S
C348   H365    1.076   .     S
C348   C837    1.391   1_554 S
C348   C844    1.417   1_554 S
C349   C350    1.423   .     A
C349   C843    1.417   .     S
C349   C846    1.426   .     S
C350   C354    1.410   .     A
C351   C844    1.426   1_554 S
C351   C847    1.424   1_554 S
C352   C353    1.390   .     A
C352   C840    1.400   .     S
C352   C846    1.424   .     S
C353   C354    1.382   .     A
C353   H361    1.084   .     S
C354   H367    1.080   .     S
H356   C446    1.087   1_455 S
H357   C392    1.086   .     S
H358   N38     1.044   1_565 S
H359   N368    1.046   .     S
H360   C9      1.086   1_565 S
H362   C840    1.084   .     S
H366   C837    1.083   1_554 S
O369   Zn382   1.959   .     S
O369   Zn383   1.951   .     S
O369   Zn384   1.924   .     S
O369   Zn385   1.938   .     S
O370   Zn383   1.931   .     S
O371   Zn385   1.944   .     S
O372   Zn384   1.944   .     S
O373   Zn382   1.933   .     S
O374   Zn382   1.930   .     S
O375   Zn385   1.927   .     S
O376   Zn383   1.926   .     S
O377   Zn384   1.938   .     S
O378   Zn385   1.933   .     S
O379   Zn382   1.920   .     S
O380   Zn383   1.934   .     S
O381   Zn384   1.933   .     S
C386   O433    1.274   .     A
C386   O431    1.275   .     A
C386   C392    1.438   .     S
C387   C401    1.393   .     A
C387   C406    1.411   .     A
C387   H418    1.077   .     S
C388   C400    1.387   .     A
C388   H410    1.084   .     S
C388   C401    1.396   .     A
C389   O434    1.275   .     A
C389   C391    1.456   .     S
C389   O432    1.280   .     A
C390   C405    1.418   .     A
C390   C399    1.474   .     S
C390   C402    1.402   .     A
C391   C447    1.335   .     S
C391   H466    1.087   .     S
C393   C396    1.463   .     S
C393   C64     1.338   1_565 S
C393   N93     1.443   1_565 S
C394   C395    1.438   .     S
C395   O429    1.280   .     A
C395   O435    1.279   .     A
C396   O436    1.269   .     A
C396   O430    1.274   .     A
C397   C402    1.387   .     A
C397   C898    1.391   .     S
C397   H916    1.083   .     S
C398   O427    1.267   .     A
C398   C401    1.450   .     S
C398   O425    1.277   .     A
C399   O426    1.283   .     A
C399   O428    1.284   .     A
C400   C902    1.400   1_554 S
C400   H912    1.084   1_554 S
C402   H419    1.083   .     S
C403   H420    1.076   .     S
C403   C892    1.391   1_554 S
C403   C899    1.417   1_554 S
C404   C405    1.423   .     A
C404   C898    1.417   .     S
C404   C901    1.426   .     S
C405   C409    1.410   .     A
C406   C899    1.426   1_554 S
C406   C902    1.424   1_554 S
C407   C408    1.390   .     A
C407   C895    1.400   .     S
C407   C901    1.424   .     S
C408   C409    1.382   .     A
C408   H416    1.084   .     S
C409   H422    1.080   .     S
H412   C447    1.086   .     S
H413   N93     1.044   1_565 S
H414   N423    1.046   .     S
H415   C64     1.086   1_565 S
H417   C895    1.084   .     S
H421   C892    1.083   1_554 S
O424   Zn437   1.959   .     S
O424   Zn438   1.951   .     S
O424   Zn439   1.924   .     S
O424   Zn440   1.938   .     S
O425   Zn438   1.931   .     S
O426   Zn440   1.944   .     S
O427   Zn439   1.944   .     S
O428   Zn437   1.933   .     S
O429   Zn437   1.930   .     S
O430   Zn440   1.927   .     S
O431   Zn438   1.926   .     S
O432   Zn439   1.938   .     S
O433   Zn440   1.933   .     S
O434   Zn437   1.920   .     S
O435   Zn438   1.934   .     S
O436   Zn439   1.933   .     S
C441   O488    1.274   .     A
C441   O486    1.275   .     A
C441   C447    1.438   .     S
C442   C456    1.393   .     A
C442   C461    1.411   .     A
C442   H473    1.077   .     S
C443   C455    1.387   .     A
C443   H465    1.084   .     S
C443   C456    1.396   .     A
C444   O489    1.275   .     A
C444   C446    1.456   .     S
C444   O487    1.280   .     A
C445   C460    1.418   .     A
C445   C454    1.474   .     S
C445   C457    1.402   .     A
C446   C337    1.335   1_655 S
C446   H356    1.087   1_655 S
C448   C451    1.463   .     S
C448   C119    1.338   1_565 S
C448   N148    1.443   1_565 S
C449   C450    1.438   .     S
C450   O484    1.280   .     A
C450   O490    1.279   .     A
C451   O491    1.269   .     A
C451   O485    1.274   .     A
C452   C457    1.387   .     A
C452   C953    1.391   .     S
C452   H971    1.083   .     S
C453   O482    1.267   .     A
C453   C456    1.450   .     S
C453   O480    1.277   .     A
C454   O481    1.283   .     A
C454   O483    1.284   .     A
C455   C957    1.400   1_554 S
C455   H967    1.084   1_554 S
C457   H474    1.083   .     S
C458   H475    1.076   .     S
C458   C947    1.391   1_554 S
C458   C954    1.417   1_554 S
C459   C460    1.423   .     A
C459   C953    1.417   .     S
C459   C956    1.426   .     S
C460   C464    1.410   .     A
C461   C954    1.426   1_554 S
C461   C957    1.424   1_554 S
C462   C463    1.390   .     A
C462   C950    1.400   .     S
C462   C956    1.424   .     S
C463   C464    1.382   .     A
C463   H471    1.084   .     S
C464   H477    1.080   .     S
H467   C337    1.086   1_655 S
H468   N148    1.044   1_565 S
H469   N478    1.046   .     S
H470   C119    1.086   1_565 S
H472   C950    1.084   .     S
H476   C947    1.083   1_554 S
O479   Zn492   1.959   .     S
O479   Zn493   1.951   .     S
O479   Zn494   1.924   .     S
O479   Zn495   1.938   .     S
O480   Zn493   1.931   .     S
O481   Zn495   1.944   .     S
O482   Zn494   1.944   .     S
O483   Zn492   1.933   .     S
O484   Zn492   1.930   .     S
O485   Zn495   1.927   .     S
O486   Zn493   1.926   .     S
O487   Zn494   1.938   .     S
O488   Zn495   1.933   .     S
O489   Zn492   1.920   .     S
O490   Zn493   1.934   .     S
O491   Zn494   1.933   .     S
C496   O543    1.274   .     A
C496   O541    1.275   .     A
C496   C502    1.438   .     S
C497   C511    1.393   .     A
C497   C516    1.411   .     A
C497   H528    1.077   .     S
C498   C510    1.387   .     A
C498   H520    1.084   .     S
C498   C511    1.396   .     A
C499   O544    1.275   .     A
C499   C501    1.456   .     S
C499   O542    1.280   .     A
C500   C515    1.418   .     A
C500   C509    1.474   .     S
C500   C512    1.402   .     A
C501   C557    1.335   .     S
C501   H576    1.087   .     S
C502   C611    1.335   1_455 S
C502   H632    1.086   1_455 S
C503   C506    1.463   .     S
C503   C669    1.338   .     S
C503   N698    1.443   .     S
C504   C505    1.438   .     S
C504   C833    1.338   1_545 S
C504   H855    1.086   1_545 S
C505   O539    1.280   .     A
C505   O545    1.279   .     A
C506   O546    1.269   .     A
C506   O540    1.274   .     A
C507   C512    1.387   .     A
C507   C18     1.391   1_556 S
C507   H36     1.083   1_556 S
C508   O537    1.267   .     A
C508   C511    1.450   .     S
C508   O535    1.277   .     A
C509   O536    1.283   .     A
C509   O538    1.284   .     A
C512   H529    1.083   .     S
C513   H530    1.076   .     S
C514   C515    1.423   .     A
C514   C18     1.417   1_556 S
C514   C21     1.426   1_556 S
C515   C519    1.410   .     A
C517   C518    1.390   .     A
C517   C15     1.400   1_556 S
C517   C21     1.424   1_556 S
C518   C519    1.382   .     A
C518   H526    1.084   .     S
C519   H532    1.080   .     S
H521   C611    1.087   1_455 S
H522   C557    1.086   .     S
H523   N698    1.044   .     S
H524   N533    1.046   .     S
H525   C669    1.086   .     S
H527   C15     1.084   1_556 S
N533   H853    1.044   1_545 S
N533   C833    1.443   1_545 S
O534   Zn547   1.959   .     S
O534   Zn548   1.951   .     S
O534   Zn549   1.924   .     S
O534   Zn550   1.938   .     S
O535   Zn548   1.931   .     S
O536   Zn550   1.944   .     S
O537   Zn549   1.944   .     S
O538   Zn547   1.933   .     S
O539   Zn547   1.930   .     S
O540   Zn550   1.927   .     S
O541   Zn548   1.926   .     S
O542   Zn549   1.938   .     S
O543   Zn550   1.933   .     S
O544   Zn547   1.920   .     S
O545   Zn548   1.934   .     S
O546   Zn549   1.933   .     S
C551   O598    1.274   .     A
C551   O596    1.275   .     A
C551   C557    1.438   .     S
C552   C566    1.393   .     A
C552   C571    1.411   .     A
C552   H583    1.077   .     S
C553   C565    1.387   .     A
C553   H575    1.084   .     S
C553   C566    1.396   .     A
C554   O599    1.275   .     A
C554   C556    1.456   .     S
C554   O597    1.280   .     A
C555   C570    1.418   .     A
C555   C564    1.474   .     S
C555   C567    1.402   .     A
C556   C612    1.335   .     S
C556   H631    1.087   .     S
C558   C561    1.463   .     S
C558   C724    1.338   .     S
C558   N753    1.443   .     S
C559   C560    1.438   .     S
C559   C888    1.338   1_545 S
C559   H910    1.086   1_545 S
C560   O594    1.280   .     A
C560   O600    1.279   .     A
C561   O601    1.269   .     A
C561   O595    1.274   .     A
C562   C567    1.387   .     A
C562   C73     1.391   1_556 S
C562   H91     1.083   1_556 S
C563   O592    1.267   .     A
C563   C566    1.450   .     S
C563   O590    1.277   .     A
C564   O591    1.283   .     A
C564   O593    1.284   .     A
C567   H584    1.083   .     S
C568   H585    1.076   .     S
C569   C570    1.423   .     A
C569   C73     1.417   1_556 S
C569   C76     1.426   1_556 S
C570   C574    1.410   .     A
C572   C573    1.390   .     A
C572   C70     1.400   1_556 S
C572   C76     1.424   1_556 S
C573   C574    1.382   .     A
C573   H581    1.084   .     S
C574   H587    1.080   .     S
H577   C612    1.086   .     S
H578   N753    1.044   .     S
H579   N588    1.046   .     S
H580   C724    1.086   .     S
H582   C70     1.084   1_556 S
N588   H908    1.044   1_545 S
N588   C888    1.443   1_545 S
O589   Zn602   1.959   .     S
O589   Zn603   1.951   .     S
O589   Zn604   1.924   .     S
O589   Zn605   1.938   .     S
O590   Zn603   1.931   .     S
O591   Zn605   1.944   .     S
O592   Zn604   1.944   .     S
O593   Zn602   1.933   .     S
O594   Zn602   1.930   .     S
O595   Zn605   1.927   .     S
O596   Zn603   1.926   .     S
O597   Zn604   1.938   .     S
O598   Zn605   1.933   .     S
O599   Zn602   1.920   .     S
O600   Zn603   1.934   .     S
O601   Zn604   1.933   .     S
C606   O653    1.274   .     A
C606   O651    1.275   .     A
C606   C612    1.438   .     S
C607   C621    1.393   .     A
C607   C626    1.411   .     A
C607   H638    1.077   .     S
C608   C620    1.387   .     A
C608   H630    1.084   .     S
C608   C621    1.396   .     A
C609   O654    1.275   .     A
C609   C611    1.456   .     S
C609   O652    1.280   .     A
C610   C625    1.418   .     A
C610   C619    1.474   .     S
C610   C622    1.402   .     A
C611   C502    1.335   1_655 S
C611   H521    1.087   1_655 S
C613   C616    1.463   .     S
C613   C779    1.338   .     S
C613   N808    1.443   .     S
C614   C615    1.438   .     S
C614   C943    1.338   1_545 S
C614   H965    1.086   1_545 S
C615   O649    1.280   .     A
C615   O655    1.279   .     A
C616   O656    1.269   .     A
C616   O650    1.274   .     A
C617   C622    1.387   .     A
C617   C128    1.391   1_556 S
C617   H146    1.083   1_556 S
C618   O647    1.267   .     A
C618   C621    1.450   .     S
C618   O645    1.277   .     A
C619   O646    1.283   .     A
C619   O648    1.284   .     A
C622   H639    1.083   .     S
C623   H640    1.076   .     S
C624   C625    1.423   .     A
C624   C128    1.417   1_556 S
C624   C131    1.426   1_556 S
C625   C629    1.410   .     A
C627   C628    1.390   .     A
C627   C125    1.400   1_556 S
C627   C131    1.424   1_556 S
C628   C629    1.382   .     A
C628   H636    1.084   .     S
C629   H642    1.080   .     S
H632   C502    1.086   1_655 S
H633   N808    1.044   .     S
H634   N643    1.046   .     S
H635   C779    1.086   .     S
H637   C125    1.084   1_556 S
N643   H963    1.044   1_545 S
N643   C943    1.443   1_545 S
O644   Zn657   1.959   .     S
O644   Zn658   1.951   .     S
O644   Zn659   1.924   .     S
O644   Zn660   1.938   .     S
O645   Zn658   1.931   .     S
O646   Zn660   1.944   .     S
O647   Zn659   1.944   .     S
O648   Zn657   1.933   .     S
O649   Zn657   1.930   .     S
O650   Zn660   1.927   .     S
O651   Zn658   1.926   .     S
O652   Zn659   1.938   .     S
O653   Zn660   1.933   .     S
O654   Zn657   1.920   .     S
O655   Zn658   1.934   .     S
O656   Zn659   1.933   .     S
C661   O708    1.274   .     A
C661   O706    1.275   .     A
C661   C667    1.438   .     S
C662   C676    1.393   .     A
C662   C681    1.411   .     A
C662   H693    1.077   .     S
C663   C675    1.387   .     A
C663   H685    1.084   .     S
C663   C676    1.396   .     A
C664   O709    1.275   .     A
C664   C666    1.456   .     S
C664   O707    1.280   .     A
C665   C680    1.418   .     A
C665   C674    1.474   .     S
C665   C677    1.402   .     A
C666   C722    1.335   .     S
C666   H741    1.087   .     S
C667   C776    1.335   1_455 S
C667   H797    1.086   1_455 S
C668   C671    1.463   .     S
C668   C834    1.338   .     S
C668   N863    1.443   .     S
C669   C670    1.438   .     S
C670   O704    1.280   .     A
C670   O710    1.279   .     A
C671   O711    1.269   .     A
C671   O705    1.274   .     A
C672   C677    1.387   .     A
C672   C183    1.391   1_556 S
C672   H201    1.083   1_556 S
C673   O702    1.267   .     A
C673   C676    1.450   .     S
C673   O700    1.277   .     A
C674   O701    1.283   .     A
C674   O703    1.284   .     A
C677   H694    1.083   .     S
C678   H695    1.076   .     S
C679   C680    1.423   .     A
C679   C183    1.417   1_556 S
C679   C186    1.426   1_556 S
C680   C684    1.410   .     A
C682   C683    1.390   .     A
C682   C180    1.400   1_556 S
C682   C186    1.424   1_556 S
C683   C684    1.382   .     A
C683   H691    1.084   .     S
C684   H697    1.080   .     S
H686   C776    1.087   1_455 S
H687   C722    1.086   .     S
H688   N863    1.044   .     S
H689   N698    1.046   .     S
H690   C834    1.086   .     S
H692   C180    1.084   1_556 S
O699   Zn712   1.959   .     S
O699   Zn713   1.951   .     S
O699   Zn714   1.924   .     S
O699   Zn715   1.938   .     S
O700   Zn713   1.931   .     S
O701   Zn715   1.944   .     S
O702   Zn714   1.944   .     S
O703   Zn712   1.933   .     S
O704   Zn712   1.930   .     S
O705   Zn715   1.927   .     S
O706   Zn713   1.926   .     S
O707   Zn714   1.938   .     S
O708   Zn715   1.933   .     S
O709   Zn712   1.920   .     S
O710   Zn713   1.934   .     S
O711   Zn714   1.933   .     S
C716   O763    1.274   .     A
C716   O761    1.275   .     A
C716   C722    1.438   .     S
C717   C731    1.393   .     A
C717   C736    1.411   .     A
C717   H748    1.077   .     S
C718   C730    1.387   .     A
C718   H740    1.084   .     S
C718   C731    1.396   .     A
C719   O764    1.275   .     A
C719   C721    1.456   .     S
C719   O762    1.280   .     A
C720   C735    1.418   .     A
C720   C729    1.474   .     S
C720   C732    1.402   .     A
C721   C777    1.335   .     S
C721   H796    1.087   .     S
C723   C726    1.463   .     S
C723   C889    1.338   .     S
C723   N918    1.443   .     S
C724   C725    1.438   .     S
C725   O759    1.280   .     A
C725   O765    1.279   .     A
C726   O766    1.269   .     A
C726   O760    1.274   .     A
C727   C732    1.387   .     A
C727   C238    1.391   1_556 S
C727   H256    1.083   1_556 S
C728   O757    1.267   .     A
C728   C731    1.450   .     S
C728   O755    1.277   .     A
C729   O756    1.283   .     A
C729   O758    1.284   .     A
C732   H749    1.083   .     S
C733   H750    1.076   .     S
C734   C735    1.423   .     A
C734   C238    1.417   1_556 S
C734   C241    1.426   1_556 S
C735   C739    1.410   .     A
C737   C738    1.390   .     A
C737   C235    1.400   1_556 S
C737   C241    1.424   1_556 S
C738   C739    1.382   .     A
C738   H746    1.084   .     S
C739   H752    1.080   .     S
H742   C777    1.086   .     S
H743   N918    1.044   .     S
H744   N753    1.046   .     S
H745   C889    1.086   .     S
H747   C235    1.084   1_556 S
O754   Zn767   1.959   .     S
O754   Zn768   1.951   .     S
O754   Zn769   1.924   .     S
O754   Zn770   1.938   .     S
O755   Zn768   1.931   .     S
O756   Zn770   1.944   .     S
O757   Zn769   1.944   .     S
O758   Zn767   1.933   .     S
O759   Zn767   1.930   .     S
O760   Zn770   1.927   .     S
O761   Zn768   1.926   .     S
O762   Zn769   1.938   .     S
O763   Zn770   1.933   .     S
O764   Zn767   1.920   .     S
O765   Zn768   1.934   .     S
O766   Zn769   1.933   .     S
C771   O818    1.274   .     A
C771   O816    1.275   .     A
C771   C777    1.438   .     S
C772   C786    1.393   .     A
C772   C791    1.411   .     A
C772   H803    1.077   .     S
C773   C785    1.387   .     A
C773   H795    1.084   .     S
C773   C786    1.396   .     A
C774   O819    1.275   .     A
C774   C776    1.456   .     S
C774   O817    1.280   .     A
C775   C790    1.418   .     A
C775   C784    1.474   .     S
C775   C787    1.402   .     A
C776   C667    1.335   1_655 S
C776   H686    1.087   1_655 S
C778   C781    1.463   .     S
C778   C944    1.338   .     S
C778   N973    1.443   .     S
C779   C780    1.438   .     S
C780   O814    1.280   .     A
C780   O820    1.279   .     A
C781   O821    1.269   .     A
C781   O815    1.274   .     A
C782   C787    1.387   .     A
C782   C293    1.391   1_556 S
C782   H311    1.083   1_556 S
C783   O812    1.267   .     A
C783   C786    1.450   .     S
C783   O810    1.277   .     A
C784   O811    1.283   .     A
C784   O813    1.284   .     A
C787   H804    1.083   .     S
C788   H805    1.076   .     S
C789   C790    1.423   .     A
C789   C293    1.417   1_556 S
C789   C296    1.426   1_556 S
C790   C794    1.410   .     A
C792   C793    1.390   .     A
C792   C290    1.400   1_556 S
C792   C296    1.424   1_556 S
C793   C794    1.382   .     A
C793   H801    1.084   .     S
C794   H807    1.080   .     S
H797   C667    1.086   1_655 S
H798   N973    1.044   .     S
H799   N808    1.046   .     S
H800   C944    1.086   .     S
H802   C290    1.084   1_556 S
O809   Zn822   1.959   .     S
O809   Zn823   1.951   .     S
O809   Zn824   1.924   .     S
O809   Zn825   1.938   .     S
O810   Zn823   1.931   .     S
O811   Zn825   1.944   .     S
O812   Zn824   1.944   .     S
O813   Zn822   1.933   .     S
O814   Zn822   1.930   .     S
O815   Zn825   1.927   .     S
O816   Zn823   1.926   .     S
O817   Zn824   1.938   .     S
O818   Zn825   1.933   .     S
O819   Zn822   1.920   .     S
O820   Zn823   1.934   .     S
O821   Zn824   1.933   .     S
C826   O873    1.274   .     A
C826   O871    1.275   .     A
C826   C832    1.438   .     S
C827   C841    1.393   .     A
C827   C846    1.411   .     A
C827   H858    1.077   .     S
C828   C840    1.387   .     A
C828   H850    1.084   .     S
C828   C841    1.396   .     A
C829   O874    1.275   .     A
C829   C831    1.456   .     S
C829   O872    1.280   .     A
C830   C845    1.418   .     A
C830   C839    1.474   .     S
C830   C842    1.402   .     A
C831   C887    1.335   .     S
C831   H906    1.087   .     S
C832   C941    1.335   1_455 S
C832   H962    1.086   1_455 S
C833   C836    1.463   .     S
C833   C504    1.338   1_565 S
C833   N533    1.443   1_565 S
C834   C835    1.438   .     S
C835   O869    1.280   .     A
C835   O875    1.279   .     A
C836   O876    1.269   .     A
C836   O870    1.274   .     A
C837   C842    1.387   .     A
C837   C348    1.391   1_556 S
C837   H366    1.083   1_556 S
C838   O867    1.267   .     A
C838   C841    1.450   .     S
C838   O865    1.277   .     A
C839   O866    1.283   .     A
C839   O868    1.284   .     A
C842   H859    1.083   .     S
C843   H860    1.076   .     S
C844   C845    1.423   .     A
C844   C348    1.417   1_556 S
C844   C351    1.426   1_556 S
C845   C849    1.410   .     A
C847   C848    1.390   .     A
C847   C345    1.400   1_556 S
C847   C351    1.424   1_556 S
C848   C849    1.382   .     A
C848   H856    1.084   .     S
C849   H862    1.080   .     S
H851   C941    1.087   1_455 S
H852   C887    1.086   .     S
H853   N533    1.044   1_565 S
H854   N863    1.046   .     S
H855   C504    1.086   1_565 S
H857   C345    1.084   1_556 S
O864   Zn877   1.959   .     S
O864   Zn878   1.951   .     S
O864   Zn879   1.924   .     S
O864   Zn880   1.938   .     S
O865   Zn878   1.931   .     S
O866   Zn880   1.944   .     S
O867   Zn879   1.944   .     S
O868   Zn877   1.933   .     S
O869   Zn877   1.930   .     S
O870   Zn880   1.927   .     S
O871   Zn878   1.926   .     S
O872   Zn879   1.938   .     S
O873   Zn880   1.933   .     S
O874   Zn877   1.920   .     S
O875   Zn878   1.934   .     S
O876   Zn879   1.933   .     S
C881   O928    1.274   .     A
C881   O926    1.275   .     A
C881   C887    1.438   .     S
C882   C896    1.393   .     A
C882   C901    1.411   .     A
C882   H913    1.077   .     S
C883   C895    1.387   .     A
C883   H905    1.084   .     S
C883   C896    1.396   .     A
C884   O929    1.275   .     A
C884   C886    1.456   .     S
C884   O927    1.280   .     A
C885   C900    1.418   .     A
C885   C894    1.474   .     S
C885   C897    1.402   .     A
C886   C942    1.335   .     S
C886   H961    1.087   .     S
C888   C891    1.463   .     S
C888   C559    1.338   1_565 S
C888   N588    1.443   1_565 S
C889   C890    1.438   .     S
C890   O924    1.280   .     A
C890   O930    1.279   .     A
C891   O931    1.269   .     A
C891   O925    1.274   .     A
C892   C897    1.387   .     A
C892   C403    1.391   1_556 S
C892   H421    1.083   1_556 S
C893   O922    1.267   .     A
C893   C896    1.450   .     S
C893   O920    1.277   .     A
C894   O921    1.283   .     A
C894   O923    1.284   .     A
C897   H914    1.083   .     S
C898   H915    1.076   .     S
C899   C900    1.423   .     A
C899   C403    1.417   1_556 S
C899   C406    1.426   1_556 S
C900   C904    1.410   .     A
C902   C903    1.390   .     A
C902   C400    1.400   1_556 S
C902   C406    1.424   1_556 S
C903   C904    1.382   .     A
C903   H911    1.084   .     S
C904   H917    1.080   .     S
H907   C942    1.086   .     S
H908   N588    1.044   1_565 S
H909   N918    1.046   .     S
H910   C559    1.086   1_565 S
H912   C400    1.084   1_556 S
O919   Zn932   1.959   .     S
O919   Zn933   1.951   .     S
O919   Zn934   1.924   .     S
O919   Zn935   1.938   .     S
O920   Zn933   1.931   .     S
O921   Zn935   1.944   .     S
O922   Zn934   1.944   .     S
O923   Zn932   1.933   .     S
O924   Zn932   1.930   .     S
O925   Zn935   1.927   .     S
O926   Zn933   1.926   .     S
O927   Zn934   1.938   .     S
O928   Zn935   1.933   .     S
O929   Zn932   1.920   .     S
O930   Zn933   1.934   .     S
O931   Zn934   1.933   .     S
C936   O983    1.274   .     A
C936   O981    1.275   .     A
C936   C942    1.438   .     S
C937   C951    1.393   .     A
C937   C956    1.411   .     A
C937   H968    1.077   .     S
C938   C950    1.387   .     A
C938   H960    1.084   .     S
C938   C951    1.396   .     A
C939   O984    1.275   .     A
C939   C941    1.456   .     S
C939   O982    1.280   .     A
C940   C955    1.418   .     A
C940   C949    1.474   .     S
C940   C952    1.402   .     A
C941   C832    1.335   1_655 S
C941   H851    1.087   1_655 S
C943   C946    1.463   .     S
C943   C614    1.338   1_565 S
C943   N643    1.443   1_565 S
C944   C945    1.438   .     S
C945   O979    1.280   .     A
C945   O985    1.279   .     A
C946   O986    1.269   .     A
C946   O980    1.274   .     A
C947   C952    1.387   .     A
C947   C458    1.391   1_556 S
C947   H476    1.083   1_556 S
C948   O977    1.267   .     A
C948   C951    1.450   .     S
C948   O975    1.277   .     A
C949   O976    1.283   .     A
C949   O978    1.284   .     A
C952   H969    1.083   .     S
C953   H970    1.076   .     S
C954   C955    1.423   .     A
C954   C458    1.417   1_556 S
C954   C461    1.426   1_556 S
C955   C959    1.410   .     A
C957   C958    1.390   .     A
C957   C455    1.400   1_556 S
C957   C461    1.424   1_556 S
C958   C959    1.382   .     A
C958   H966    1.084   .     S
C959   H972    1.080   .     S
H962   C832    1.086   1_655 S
H963   N643    1.044   1_565 S
H964   N973    1.046   .     S
H965   C614    1.086   1_565 S
H967   C455    1.084   1_556 S
O974   Zn987   1.959   .     S
O974   Zn988   1.951   .     S
O974   Zn989   1.924   .     S
O974   Zn990   1.938   .     S
O975   Zn988   1.931   .     S
O976   Zn990   1.944   .     S
O977   Zn989   1.944   .     S
O978   Zn987   1.933   .     S
O979   Zn987   1.930   .     S
O980   Zn990   1.927   .     S
O981   Zn988   1.926   .     S
O982   Zn989   1.938   .     S
O983   Zn990   1.933   .     S
O984   Zn987   1.920   .     S
O985   Zn988   1.934   .     S
O986   Zn989   1.933   .     S
