data_str_m3_o10_o18_pcu_sym.147
_audit_creation_date              2020-01-03
_audit_creation_method            'Materials Studio'
_symmetry_space_group_name_H-M    'P1'
_symmetry_Int_Tables_number       1
_symmetry_cell_setting            triclinic
loop_
_symmetry_equiv_pos_as_xyz
  x,y,z
_cell_length_a                    23.5053
_cell_length_b                    25.6944
_cell_length_c                    27.2711
_cell_angle_alpha                 93.4573
_cell_angle_beta                  92.3818
_cell_angle_gamma                 94.3259
loop_
_atom_site_label
_atom_site_type_symbol
_atom_site_fract_x
_atom_site_fract_y
_atom_site_fract_z
_atom_site_U_iso_or_equiv
_atom_site_adp_type
_atom_site_occupancy
O1     O     0.29719   0.24631   0.25309   0.00000  Uiso   1.00
O2     O     0.03614   0.08702   0.24690   0.00000  Uiso   1.00
O3     O     0.05822   0.23702   0.24501   0.00000  Uiso   1.00
O4     O     0.27512   0.09632   0.25498   0.00000  Uiso   1.00
C5     C     0.01509   0.26492   0.24872   0.00000  Uiso   1.00
C6     C     0.31822   0.06840   0.25115   0.00000  Uiso   1.00
O7     O     0.30328   0.17397   0.32247   0.00000  Uiso   1.00
O8     O     0.03005   0.15937   0.17753   0.00000  Uiso   1.00
O9     O     0.06431   0.16467   0.31439   0.00000  Uiso   1.00
O10    O     0.26902   0.16866   0.18561   0.00000  Uiso   1.00
C11    C     0.02059   0.17085   0.34151   0.00000  Uiso   1.00
C12    C     0.31250   0.16113   0.15865   0.00000  Uiso   1.00
Zn13   Zn    0.27033   0.17287   0.25539   0.00000  Uiso   1.00
Zn14   Zn    0.06300   0.16046   0.24460   0.00000  Uiso   1.00
C15    C     0.02934   0.17448   0.39510   0.00000  Uiso   1.00
C16    C     0.30202   0.14985   0.10587   0.00000  Uiso   1.00
C17    C     0.01470   0.21397   0.47607   0.00000  Uiso   1.00
C18    C     0.30403   0.09171   0.03283   0.00000  Uiso   1.00
C19    C     0.32892   0.20331   0.42704   0.00000  Uiso   1.00
C20    C     0.32775   0.10961   0.07917   0.00000  Uiso   1.00
C21    C     0.07743   0.15266   0.41379   0.00000  Uiso   1.00
C22    C     0.25571   0.17246   0.08510   0.00000  Uiso   1.00
C23    C     0.09665   0.16258   0.46278   0.00000  Uiso   1.00
C24    C     0.22726   0.15012   0.04211   0.00000  Uiso   1.00
C25    C     0.06595   0.19576   0.49343   0.00000  Uiso   1.00
C26    C     0.25332   0.11046   0.01487   0.00000  Uiso   1.00
C27    C     0.14812   0.14373   0.48069   0.00000  Uiso   1.00
C28    C     0.17275   0.16483   0.02660   0.00000  Uiso   1.00
C29    C     0.14081   0.19783   0.05650   0.00000  Uiso   1.00
C30    C     0.17542   0.10424   0.45433   0.00000  Uiso   1.00
C31    C     0.08763   0.21175   0.04054   0.00000  Uiso   1.00
C32    C     0.22720   0.08812   0.47119   0.00000  Uiso   1.00
H33    H     0.06419   0.23656   0.06469   0.00000  Uiso   1.00
H34    H     0.24635   0.05726   0.45033   0.00000  Uiso   1.00
H35    H     0.24060   0.20566   0.10528   0.00000  Uiso   1.00
H36    H     0.10206   0.13131   0.38816   0.00000  Uiso   1.00
H37    H     0.32364   0.23785   0.00026   0.00000  Uiso   1.00
H38    H     0.32349   0.06095   0.01207   0.00000  Uiso   1.00
H39    H     0.15439   0.21182   0.09346   0.00000  Uiso   1.00
H40    H     0.15662   0.08332   0.42143   0.00000  Uiso   1.00
C41    C     0.02291   0.31950   0.24788   0.00000  Uiso   1.00
C42    C     0.31037   0.01381   0.25178   0.00000  Uiso   1.00
H43    H     0.06609   0.00341   0.24411   0.00000  Uiso   1.00
H44    H     0.26719   0.32990   0.25553   0.00000  Uiso   1.00
N45    N     0.14695   0.15216   0.23739   0.00000  Uiso   1.00
N46    N     0.18638   0.18117   0.26260   0.00000  Uiso   1.00
H47    H     0.16242   0.12454   0.21362   0.00000  Uiso   1.00
H48    H     0.17091   0.20879   0.28639   0.00000  Uiso   1.00
N49    N     0.04100   0.08357   0.09962   0.00000  Uiso   1.00
O50    O     0.08903   0.10997   0.11315   0.00000  Uiso   1.00
O51    O     0.03952   0.03275   0.09544   0.00000  Uiso   1.00
N52    N     0.27756   0.22470   0.41012   0.00000  Uiso   1.00
O53    O     0.26994   0.27353   0.42141   0.00000  Uiso   1.00
O54    O     0.23392   0.19344   0.39371   0.00000  Uiso   1.00
O55    O     0.63052   0.24631   0.25309   0.00000  Uiso   1.00
O56    O     0.36948   0.08702   0.24690   0.00000  Uiso   1.00
O57    O     0.39155   0.23702   0.24501   0.00000  Uiso   1.00
O58    O     0.60845   0.09632   0.25498   0.00000  Uiso   1.00
C59    C     0.34842   0.26492   0.24872   0.00000  Uiso   1.00
C60    C     0.65156   0.06840   0.25115   0.00000  Uiso   1.00
O61    O     0.63662   0.17397   0.32247   0.00000  Uiso   1.00
O62    O     0.36338   0.15937   0.17753   0.00000  Uiso   1.00
O63    O     0.39764   0.16467   0.31439   0.00000  Uiso   1.00
O64    O     0.60236   0.16866   0.18561   0.00000  Uiso   1.00
C65    C     0.35392   0.17085   0.34151   0.00000  Uiso   1.00
C66    C     0.64584   0.16113   0.15865   0.00000  Uiso   1.00
Zn67   Zn    0.60366   0.17287   0.25539   0.00000  Uiso   1.00
Zn68   Zn    0.39634   0.16046   0.24460   0.00000  Uiso   1.00
C69    C     0.36268   0.17448   0.39510   0.00000  Uiso   1.00
C70    C     0.63535   0.14985   0.10587   0.00000  Uiso   1.00
C71    C     0.34804   0.21397   0.47607   0.00000  Uiso   1.00
C72    C     0.63737   0.09171   0.03283   0.00000  Uiso   1.00
C73    C     0.66226   0.20331   0.42704   0.00000  Uiso   1.00
C74    C     0.66108   0.10961   0.07917   0.00000  Uiso   1.00
C75    C     0.41077   0.15266   0.41379   0.00000  Uiso   1.00
C76    C     0.58905   0.17246   0.08510   0.00000  Uiso   1.00
C77    C     0.42998   0.16258   0.46278   0.00000  Uiso   1.00
C78    C     0.56059   0.15012   0.04211   0.00000  Uiso   1.00
C79    C     0.39929   0.19576   0.49343   0.00000  Uiso   1.00
C80    C     0.58666   0.11046   0.01487   0.00000  Uiso   1.00
C81    C     0.48145   0.14373   0.48069   0.00000  Uiso   1.00
C82    C     0.50609   0.16483   0.02660   0.00000  Uiso   1.00
C83    C     0.47414   0.19783   0.05650   0.00000  Uiso   1.00
C84    C     0.50876   0.10424   0.45433   0.00000  Uiso   1.00
C85    C     0.42096   0.21175   0.04054   0.00000  Uiso   1.00
C86    C     0.56053   0.08812   0.47119   0.00000  Uiso   1.00
H87    H     0.39753   0.23656   0.06469   0.00000  Uiso   1.00
H88    H     0.57969   0.05726   0.45033   0.00000  Uiso   1.00
H89    H     0.57393   0.20566   0.10528   0.00000  Uiso   1.00
H90    H     0.43540   0.13131   0.38816   0.00000  Uiso   1.00
H91    H     0.65697   0.23785   0.00026   0.00000  Uiso   1.00
H92    H     0.65682   0.06095   0.01207   0.00000  Uiso   1.00
H93    H     0.48773   0.21182   0.09346   0.00000  Uiso   1.00
H94    H     0.48996   0.08332   0.42143   0.00000  Uiso   1.00
C95    C     0.35625   0.31950   0.24788   0.00000  Uiso   1.00
C96    C     0.64370   0.01381   0.25178   0.00000  Uiso   1.00
H97    H     0.39942   0.00341   0.24411   0.00000  Uiso   1.00
H98    H     0.60052   0.32990   0.25553   0.00000  Uiso   1.00
N99    N     0.48029   0.15216   0.23739   0.00000  Uiso   1.00
N100   N     0.51971   0.18117   0.26260   0.00000  Uiso   1.00
H101   H     0.49576   0.12454   0.21362   0.00000  Uiso   1.00
H102   H     0.50425   0.20879   0.28639   0.00000  Uiso   1.00
N103   N     0.37433   0.08357   0.09962   0.00000  Uiso   1.00
O104   O     0.42236   0.10997   0.11315   0.00000  Uiso   1.00
O105   O     0.37286   0.03275   0.09544   0.00000  Uiso   1.00
N106   N     0.61089   0.22470   0.41012   0.00000  Uiso   1.00
O107   O     0.60327   0.27353   0.42141   0.00000  Uiso   1.00
O108   O     0.56725   0.19344   0.39371   0.00000  Uiso   1.00
O109   O     0.96386   0.24631   0.25309   0.00000  Uiso   1.00
O110   O     0.70281   0.08702   0.24690   0.00000  Uiso   1.00
O111   O     0.72488   0.23702   0.24501   0.00000  Uiso   1.00
O112   O     0.94178   0.09632   0.25498   0.00000  Uiso   1.00
C113   C     0.68176   0.26492   0.24872   0.00000  Uiso   1.00
C114   C     0.98489   0.06840   0.25115   0.00000  Uiso   1.00
O115   O     0.96995   0.17397   0.32247   0.00000  Uiso   1.00
O116   O     0.69672   0.15937   0.17753   0.00000  Uiso   1.00
O117   O     0.73098   0.16467   0.31439   0.00000  Uiso   1.00
O118   O     0.93569   0.16866   0.18561   0.00000  Uiso   1.00
C119   C     0.68726   0.17085   0.34151   0.00000  Uiso   1.00
C120   C     0.97917   0.16113   0.15865   0.00000  Uiso   1.00
Zn121  Zn    0.93700   0.17287   0.25539   0.00000  Uiso   1.00
Zn122  Zn    0.72967   0.16046   0.24460   0.00000  Uiso   1.00
C123   C     0.69601   0.17448   0.39510   0.00000  Uiso   1.00
C124   C     0.96868   0.14985   0.10587   0.00000  Uiso   1.00
C125   C     0.68137   0.21397   0.47607   0.00000  Uiso   1.00
C126   C     0.97070   0.09171   0.03283   0.00000  Uiso   1.00
C127   C     0.99559   0.20331   0.42704   0.00000  Uiso   1.00
C128   C     0.99442   0.10961   0.07917   0.00000  Uiso   1.00
C129   C     0.74410   0.15266   0.41379   0.00000  Uiso   1.00
C130   C     0.92238   0.17246   0.08510   0.00000  Uiso   1.00
C131   C     0.76331   0.16258   0.46278   0.00000  Uiso   1.00
C132   C     0.89392   0.15012   0.04211   0.00000  Uiso   1.00
C133   C     0.73262   0.19576   0.49343   0.00000  Uiso   1.00
C134   C     0.91999   0.11046   0.01487   0.00000  Uiso   1.00
C135   C     0.81479   0.14373   0.48069   0.00000  Uiso   1.00
C136   C     0.83942   0.16483   0.02660   0.00000  Uiso   1.00
C137   C     0.80747   0.19783   0.05650   0.00000  Uiso   1.00
C138   C     0.84209   0.10424   0.45433   0.00000  Uiso   1.00
C139   C     0.75430   0.21175   0.04054   0.00000  Uiso   1.00
C140   C     0.89387   0.08812   0.47119   0.00000  Uiso   1.00
H141   H     0.73086   0.23656   0.06469   0.00000  Uiso   1.00
H142   H     0.91302   0.05726   0.45033   0.00000  Uiso   1.00
H143   H     0.90727   0.20566   0.10528   0.00000  Uiso   1.00
H144   H     0.76873   0.13131   0.38816   0.00000  Uiso   1.00
H145   H     0.99031   0.23785   0.00026   0.00000  Uiso   1.00
H146   H     0.99016   0.06095   0.01207   0.00000  Uiso   1.00
H147   H     0.82106   0.21182   0.09346   0.00000  Uiso   1.00
H148   H     0.82329   0.08332   0.42143   0.00000  Uiso   1.00
C149   C     0.68958   0.31950   0.24788   0.00000  Uiso   1.00
C150   C     0.97704   0.01381   0.25178   0.00000  Uiso   1.00
H151   H     0.73276   0.00341   0.24411   0.00000  Uiso   1.00
H152   H     0.93386   0.32990   0.25553   0.00000  Uiso   1.00
N153   N     0.81362   0.15216   0.23739   0.00000  Uiso   1.00
N154   N     0.85305   0.18117   0.26260   0.00000  Uiso   1.00
H155   H     0.82909   0.12454   0.21362   0.00000  Uiso   1.00
H156   H     0.83758   0.20879   0.28639   0.00000  Uiso   1.00
N157   N     0.70766   0.08357   0.09962   0.00000  Uiso   1.00
O158   O     0.75569   0.10997   0.11315   0.00000  Uiso   1.00
O159   O     0.70619   0.03275   0.09544   0.00000  Uiso   1.00
N160   N     0.94423   0.22470   0.41012   0.00000  Uiso   1.00
O161   O     0.93660   0.27353   0.42141   0.00000  Uiso   1.00
O162   O     0.90058   0.19344   0.39371   0.00000  Uiso   1.00
O163   O     0.29719   0.57964   0.25309   0.00000  Uiso   1.00
O164   O     0.03614   0.42036   0.24690   0.00000  Uiso   1.00
O165   O     0.05822   0.57035   0.24501   0.00000  Uiso   1.00
O166   O     0.27512   0.42965   0.25498   0.00000  Uiso   1.00
C167   C     0.01509   0.59825   0.24872   0.00000  Uiso   1.00
C168   C     0.31822   0.40174   0.25115   0.00000  Uiso   1.00
O169   O     0.30328   0.50730   0.32247   0.00000  Uiso   1.00
O170   O     0.03005   0.49270   0.17753   0.00000  Uiso   1.00
O171   O     0.06431   0.49801   0.31439   0.00000  Uiso   1.00
O172   O     0.26902   0.50199   0.18561   0.00000  Uiso   1.00
C173   C     0.02059   0.50418   0.34151   0.00000  Uiso   1.00
C174   C     0.31250   0.49447   0.15865   0.00000  Uiso   1.00
Zn175  Zn    0.27033   0.50621   0.25539   0.00000  Uiso   1.00
Zn176  Zn    0.06300   0.49379   0.24460   0.00000  Uiso   1.00
C177   C     0.02934   0.50782   0.39510   0.00000  Uiso   1.00
C178   C     0.30202   0.48319   0.10587   0.00000  Uiso   1.00
C179   C     0.01470   0.54730   0.47607   0.00000  Uiso   1.00
C180   C     0.30403   0.42504   0.03283   0.00000  Uiso   1.00
C181   C     0.32892   0.53665   0.42704   0.00000  Uiso   1.00
C182   C     0.32775   0.44294   0.07917   0.00000  Uiso   1.00
C183   C     0.07743   0.48599   0.41379   0.00000  Uiso   1.00
C184   C     0.25571   0.50579   0.08510   0.00000  Uiso   1.00
C185   C     0.09665   0.49591   0.46278   0.00000  Uiso   1.00
C186   C     0.22726   0.48346   0.04211   0.00000  Uiso   1.00
C187   C     0.06595   0.52909   0.49343   0.00000  Uiso   1.00
C188   C     0.25332   0.44379   0.01487   0.00000  Uiso   1.00
C189   C     0.14812   0.47706   0.48069   0.00000  Uiso   1.00
C190   C     0.17275   0.49816   0.02660   0.00000  Uiso   1.00
C191   C     0.14081   0.53116   0.05650   0.00000  Uiso   1.00
C192   C     0.17542   0.43758   0.45433   0.00000  Uiso   1.00
C193   C     0.08763   0.54509   0.04054   0.00000  Uiso   1.00
C194   C     0.22720   0.42145   0.47119   0.00000  Uiso   1.00
H195   H     0.06419   0.56989   0.06469   0.00000  Uiso   1.00
H196   H     0.24635   0.39059   0.45033   0.00000  Uiso   1.00
H197   H     0.24060   0.53900   0.10528   0.00000  Uiso   1.00
H198   H     0.10206   0.46464   0.38816   0.00000  Uiso   1.00
H199   H     0.32364   0.57119   0.00026   0.00000  Uiso   1.00
H200   H     0.32349   0.39428   0.01207   0.00000  Uiso   1.00
H201   H     0.15439   0.54516   0.09346   0.00000  Uiso   1.00
H202   H     0.15662   0.41665   0.42143   0.00000  Uiso   1.00
C203   C     0.02291   0.65284   0.24788   0.00000  Uiso   1.00
C204   C     0.31037   0.34714   0.25178   0.00000  Uiso   1.00
H205   H     0.06609   0.33675   0.24411   0.00000  Uiso   1.00
H206   H     0.26719   0.66323   0.25553   0.00000  Uiso   1.00
N207   N     0.14695   0.48550   0.23739   0.00000  Uiso   1.00
N208   N     0.18638   0.51450   0.26260   0.00000  Uiso   1.00
H209   H     0.16242   0.45787   0.21362   0.00000  Uiso   1.00
H210   H     0.17091   0.54212   0.28639   0.00000  Uiso   1.00
N211   N     0.04100   0.41691   0.09962   0.00000  Uiso   1.00
O212   O     0.08903   0.44331   0.11315   0.00000  Uiso   1.00
O213   O     0.03952   0.36608   0.09544   0.00000  Uiso   1.00
N214   N     0.27756   0.55803   0.41012   0.00000  Uiso   1.00
O215   O     0.26994   0.60686   0.42141   0.00000  Uiso   1.00
O216   O     0.23392   0.52677   0.39371   0.00000  Uiso   1.00
O217   O     0.63052   0.57964   0.25309   0.00000  Uiso   1.00
O218   O     0.36948   0.42036   0.24690   0.00000  Uiso   1.00
O219   O     0.39155   0.57035   0.24501   0.00000  Uiso   1.00
O220   O     0.60845   0.42965   0.25498   0.00000  Uiso   1.00
C221   C     0.34842   0.59825   0.24872   0.00000  Uiso   1.00
C222   C     0.65156   0.40174   0.25115   0.00000  Uiso   1.00
O223   O     0.63662   0.50730   0.32247   0.00000  Uiso   1.00
O224   O     0.36338   0.49270   0.17753   0.00000  Uiso   1.00
O225   O     0.39764   0.49801   0.31439   0.00000  Uiso   1.00
O226   O     0.60236   0.50199   0.18561   0.00000  Uiso   1.00
C227   C     0.35392   0.50418   0.34151   0.00000  Uiso   1.00
C228   C     0.64584   0.49447   0.15865   0.00000  Uiso   1.00
Zn229  Zn    0.60366   0.50621   0.25539   0.00000  Uiso   1.00
Zn230  Zn    0.39634   0.49379   0.24460   0.00000  Uiso   1.00
C231   C     0.36268   0.50782   0.39510   0.00000  Uiso   1.00
C232   C     0.63535   0.48319   0.10587   0.00000  Uiso   1.00
C233   C     0.34804   0.54730   0.47607   0.00000  Uiso   1.00
C234   C     0.63737   0.42504   0.03283   0.00000  Uiso   1.00
C235   C     0.66226   0.53665   0.42704   0.00000  Uiso   1.00
C236   C     0.66108   0.44294   0.07917   0.00000  Uiso   1.00
C237   C     0.41077   0.48599   0.41379   0.00000  Uiso   1.00
C238   C     0.58905   0.50579   0.08510   0.00000  Uiso   1.00
C239   C     0.42998   0.49591   0.46278   0.00000  Uiso   1.00
C240   C     0.56059   0.48346   0.04211   0.00000  Uiso   1.00
C241   C     0.39929   0.52909   0.49343   0.00000  Uiso   1.00
C242   C     0.58666   0.44379   0.01487   0.00000  Uiso   1.00
C243   C     0.48145   0.47706   0.48069   0.00000  Uiso   1.00
C244   C     0.50609   0.49816   0.02660   0.00000  Uiso   1.00
C245   C     0.47414   0.53116   0.05650   0.00000  Uiso   1.00
C246   C     0.50876   0.43758   0.45433   0.00000  Uiso   1.00
C247   C     0.42096   0.54509   0.04054   0.00000  Uiso   1.00
C248   C     0.56053   0.42145   0.47119   0.00000  Uiso   1.00
H249   H     0.39753   0.56989   0.06469   0.00000  Uiso   1.00
H250   H     0.57969   0.39059   0.45033   0.00000  Uiso   1.00
H251   H     0.57393   0.53900   0.10528   0.00000  Uiso   1.00
H252   H     0.43540   0.46464   0.38816   0.00000  Uiso   1.00
H253   H     0.65697   0.57119   0.00026   0.00000  Uiso   1.00
H254   H     0.65682   0.39428   0.01207   0.00000  Uiso   1.00
H255   H     0.48773   0.54516   0.09346   0.00000  Uiso   1.00
H256   H     0.48996   0.41665   0.42143   0.00000  Uiso   1.00
C257   C     0.35625   0.65284   0.24788   0.00000  Uiso   1.00
C258   C     0.64370   0.34714   0.25178   0.00000  Uiso   1.00
H259   H     0.39942   0.33675   0.24411   0.00000  Uiso   1.00
H260   H     0.60052   0.66323   0.25553   0.00000  Uiso   1.00
N261   N     0.48029   0.48550   0.23739   0.00000  Uiso   1.00
N262   N     0.51971   0.51450   0.26260   0.00000  Uiso   1.00
H263   H     0.49576   0.45787   0.21362   0.00000  Uiso   1.00
H264   H     0.50425   0.54212   0.28639   0.00000  Uiso   1.00
N265   N     0.37433   0.41691   0.09962   0.00000  Uiso   1.00
O266   O     0.42236   0.44331   0.11315   0.00000  Uiso   1.00
O267   O     0.37286   0.36608   0.09544   0.00000  Uiso   1.00
N268   N     0.61089   0.55803   0.41012   0.00000  Uiso   1.00
O269   O     0.60327   0.60686   0.42141   0.00000  Uiso   1.00
O270   O     0.56725   0.52677   0.39371   0.00000  Uiso   1.00
O271   O     0.96386   0.57964   0.25309   0.00000  Uiso   1.00
O272   O     0.70281   0.42036   0.24690   0.00000  Uiso   1.00
O273   O     0.72488   0.57035   0.24501   0.00000  Uiso   1.00
O274   O     0.94178   0.42965   0.25498   0.00000  Uiso   1.00
C275   C     0.68176   0.59825   0.24872   0.00000  Uiso   1.00
C276   C     0.98489   0.40174   0.25115   0.00000  Uiso   1.00
O277   O     0.96995   0.50730   0.32247   0.00000  Uiso   1.00
O278   O     0.69672   0.49270   0.17753   0.00000  Uiso   1.00
O279   O     0.73098   0.49801   0.31439   0.00000  Uiso   1.00
O280   O     0.93569   0.50199   0.18561   0.00000  Uiso   1.00
C281   C     0.68726   0.50418   0.34151   0.00000  Uiso   1.00
C282   C     0.97917   0.49447   0.15865   0.00000  Uiso   1.00
Zn283  Zn    0.93700   0.50621   0.25539   0.00000  Uiso   1.00
Zn284  Zn    0.72967   0.49379   0.24460   0.00000  Uiso   1.00
C285   C     0.69601   0.50782   0.39510   0.00000  Uiso   1.00
C286   C     0.96868   0.48319   0.10587   0.00000  Uiso   1.00
C287   C     0.68137   0.54730   0.47607   0.00000  Uiso   1.00
C288   C     0.97070   0.42504   0.03283   0.00000  Uiso   1.00
C289   C     0.99559   0.53665   0.42704   0.00000  Uiso   1.00
C290   C     0.99442   0.44294   0.07917   0.00000  Uiso   1.00
C291   C     0.74410   0.48599   0.41379   0.00000  Uiso   1.00
C292   C     0.92238   0.50579   0.08510   0.00000  Uiso   1.00
C293   C     0.76331   0.49591   0.46278   0.00000  Uiso   1.00
C294   C     0.89392   0.48346   0.04211   0.00000  Uiso   1.00
C295   C     0.73262   0.52909   0.49343   0.00000  Uiso   1.00
C296   C     0.91999   0.44379   0.01487   0.00000  Uiso   1.00
C297   C     0.81479   0.47706   0.48069   0.00000  Uiso   1.00
C298   C     0.83942   0.49816   0.02660   0.00000  Uiso   1.00
C299   C     0.80747   0.53116   0.05650   0.00000  Uiso   1.00
C300   C     0.84209   0.43758   0.45433   0.00000  Uiso   1.00
C301   C     0.75430   0.54509   0.04054   0.00000  Uiso   1.00
C302   C     0.89387   0.42145   0.47119   0.00000  Uiso   1.00
H303   H     0.73086   0.56989   0.06469   0.00000  Uiso   1.00
H304   H     0.91302   0.39059   0.45033   0.00000  Uiso   1.00
H305   H     0.90727   0.53900   0.10528   0.00000  Uiso   1.00
H306   H     0.76873   0.46464   0.38816   0.00000  Uiso   1.00
H307   H     0.99031   0.57119   0.00026   0.00000  Uiso   1.00
H308   H     0.99016   0.39428   0.01207   0.00000  Uiso   1.00
H309   H     0.82106   0.54516   0.09346   0.00000  Uiso   1.00
H310   H     0.82329   0.41665   0.42143   0.00000  Uiso   1.00
C311   C     0.68958   0.65284   0.24788   0.00000  Uiso   1.00
C312   C     0.97704   0.34714   0.25178   0.00000  Uiso   1.00
H313   H     0.73276   0.33675   0.24411   0.00000  Uiso   1.00
H314   H     0.93386   0.66323   0.25553   0.00000  Uiso   1.00
N315   N     0.81362   0.48550   0.23739   0.00000  Uiso   1.00
N316   N     0.85305   0.51450   0.26260   0.00000  Uiso   1.00
H317   H     0.82909   0.45787   0.21362   0.00000  Uiso   1.00
H318   H     0.83758   0.54212   0.28639   0.00000  Uiso   1.00
N319   N     0.70766   0.41691   0.09962   0.00000  Uiso   1.00
O320   O     0.75569   0.44331   0.11315   0.00000  Uiso   1.00
O321   O     0.70619   0.36608   0.09544   0.00000  Uiso   1.00
N322   N     0.94423   0.55803   0.41012   0.00000  Uiso   1.00
O323   O     0.93660   0.60686   0.42141   0.00000  Uiso   1.00
O324   O     0.90058   0.52677   0.39371   0.00000  Uiso   1.00
O325   O     0.29719   0.91298   0.25309   0.00000  Uiso   1.00
O326   O     0.03614   0.75369   0.24690   0.00000  Uiso   1.00
O327   O     0.05822   0.90368   0.24501   0.00000  Uiso   1.00
O328   O     0.27512   0.76298   0.25498   0.00000  Uiso   1.00
C329   C     0.01509   0.93159   0.24872   0.00000  Uiso   1.00
C330   C     0.31822   0.73507   0.25115   0.00000  Uiso   1.00
O331   O     0.30328   0.84063   0.32247   0.00000  Uiso   1.00
O332   O     0.03005   0.82603   0.17753   0.00000  Uiso   1.00
O333   O     0.06431   0.83134   0.31439   0.00000  Uiso   1.00
O334   O     0.26902   0.83533   0.18561   0.00000  Uiso   1.00
C335   C     0.02059   0.83752   0.34151   0.00000  Uiso   1.00
C336   C     0.31250   0.82780   0.15865   0.00000  Uiso   1.00
Zn337  Zn    0.27033   0.83954   0.25539   0.00000  Uiso   1.00
Zn338  Zn    0.06300   0.82713   0.24460   0.00000  Uiso   1.00
C339   C     0.02934   0.84115   0.39510   0.00000  Uiso   1.00
C340   C     0.30202   0.81652   0.10587   0.00000  Uiso   1.00
C341   C     0.01470   0.88063   0.47607   0.00000  Uiso   1.00
C342   C     0.30403   0.75838   0.03283   0.00000  Uiso   1.00
C343   C     0.32892   0.86998   0.42704   0.00000  Uiso   1.00
C344   C     0.32775   0.77628   0.07917   0.00000  Uiso   1.00
C345   C     0.07743   0.81933   0.41379   0.00000  Uiso   1.00
C346   C     0.25571   0.83912   0.08510   0.00000  Uiso   1.00
C347   C     0.09665   0.82925   0.46278   0.00000  Uiso   1.00
C348   C     0.22726   0.81679   0.04211   0.00000  Uiso   1.00
C349   C     0.06595   0.86242   0.49343   0.00000  Uiso   1.00
C350   C     0.25332   0.77712   0.01487   0.00000  Uiso   1.00
C351   C     0.14812   0.81039   0.48069   0.00000  Uiso   1.00
C352   C     0.17275   0.83150   0.02660   0.00000  Uiso   1.00
C353   C     0.14081   0.86450   0.05650   0.00000  Uiso   1.00
C354   C     0.17542   0.77091   0.45433   0.00000  Uiso   1.00
C355   C     0.08763   0.87842   0.04054   0.00000  Uiso   1.00
C356   C     0.22720   0.75479   0.47119   0.00000  Uiso   1.00
H357   H     0.06419   0.90322   0.06469   0.00000  Uiso   1.00
H358   H     0.24635   0.72392   0.45033   0.00000  Uiso   1.00
H359   H     0.24060   0.87233   0.10528   0.00000  Uiso   1.00
H360   H     0.10206   0.79797   0.38816   0.00000  Uiso   1.00
H361   H     0.32364   0.90452   0.00026   0.00000  Uiso   1.00
H362   H     0.32349   0.72762   0.01207   0.00000  Uiso   1.00
H363   H     0.15439   0.87849   0.09346   0.00000  Uiso   1.00
H364   H     0.15662   0.74999   0.42143   0.00000  Uiso   1.00
C365   C     0.02291   0.98617   0.24788   0.00000  Uiso   1.00
C366   C     0.31037   0.68047   0.25178   0.00000  Uiso   1.00
H367   H     0.06609   0.67008   0.24411   0.00000  Uiso   1.00
H368   H     0.26719   0.99657   0.25553   0.00000  Uiso   1.00
N369   N     0.14695   0.81883   0.23739   0.00000  Uiso   1.00
N370   N     0.18638   0.84784   0.26260   0.00000  Uiso   1.00
H371   H     0.16242   0.79121   0.21362   0.00000  Uiso   1.00
H372   H     0.17091   0.87546   0.28639   0.00000  Uiso   1.00
N373   N     0.04100   0.75024   0.09962   0.00000  Uiso   1.00
O374   O     0.08903   0.77664   0.11315   0.00000  Uiso   1.00
O375   O     0.03952   0.69942   0.09544   0.00000  Uiso   1.00
N376   N     0.27756   0.89136   0.41012   0.00000  Uiso   1.00
O377   O     0.26994   0.94019   0.42141   0.00000  Uiso   1.00
O378   O     0.23392   0.86010   0.39371   0.00000  Uiso   1.00
O379   O     0.63052   0.91298   0.25309   0.00000  Uiso   1.00
O380   O     0.36948   0.75369   0.24690   0.00000  Uiso   1.00
O381   O     0.39155   0.90368   0.24501   0.00000  Uiso   1.00
O382   O     0.60845   0.76298   0.25498   0.00000  Uiso   1.00
C383   C     0.34842   0.93159   0.24872   0.00000  Uiso   1.00
C384   C     0.65156   0.73507   0.25115   0.00000  Uiso   1.00
O385   O     0.63662   0.84063   0.32247   0.00000  Uiso   1.00
O386   O     0.36338   0.82603   0.17753   0.00000  Uiso   1.00
O387   O     0.39764   0.83134   0.31439   0.00000  Uiso   1.00
O388   O     0.60236   0.83533   0.18561   0.00000  Uiso   1.00
C389   C     0.35392   0.83752   0.34151   0.00000  Uiso   1.00
C390   C     0.64584   0.82780   0.15865   0.00000  Uiso   1.00
Zn391  Zn    0.60366   0.83954   0.25539   0.00000  Uiso   1.00
Zn392  Zn    0.39634   0.82713   0.24460   0.00000  Uiso   1.00
C393   C     0.36268   0.84115   0.39510   0.00000  Uiso   1.00
C394   C     0.63535   0.81652   0.10587   0.00000  Uiso   1.00
C395   C     0.34804   0.88063   0.47607   0.00000  Uiso   1.00
C396   C     0.63737   0.75838   0.03283   0.00000  Uiso   1.00
C397   C     0.66226   0.86998   0.42704   0.00000  Uiso   1.00
C398   C     0.66108   0.77628   0.07917   0.00000  Uiso   1.00
C399   C     0.41077   0.81933   0.41379   0.00000  Uiso   1.00
C400   C     0.58905   0.83912   0.08510   0.00000  Uiso   1.00
C401   C     0.42998   0.82925   0.46278   0.00000  Uiso   1.00
C402   C     0.56059   0.81679   0.04211   0.00000  Uiso   1.00
C403   C     0.39929   0.86242   0.49343   0.00000  Uiso   1.00
C404   C     0.58666   0.77712   0.01487   0.00000  Uiso   1.00
C405   C     0.48145   0.81039   0.48069   0.00000  Uiso   1.00
C406   C     0.50609   0.83150   0.02660   0.00000  Uiso   1.00
C407   C     0.47414   0.86450   0.05650   0.00000  Uiso   1.00
C408   C     0.50876   0.77091   0.45433   0.00000  Uiso   1.00
C409   C     0.42096   0.87842   0.04054   0.00000  Uiso   1.00
C410   C     0.56053   0.75479   0.47119   0.00000  Uiso   1.00
H411   H     0.39753   0.90322   0.06469   0.00000  Uiso   1.00
H412   H     0.57969   0.72392   0.45033   0.00000  Uiso   1.00
H413   H     0.57393   0.87233   0.10528   0.00000  Uiso   1.00
H414   H     0.43540   0.79797   0.38816   0.00000  Uiso   1.00
H415   H     0.65697   0.90452   0.00026   0.00000  Uiso   1.00
H416   H     0.65682   0.72762   0.01207   0.00000  Uiso   1.00
H417   H     0.48773   0.87849   0.09346   0.00000  Uiso   1.00
H418   H     0.48996   0.74999   0.42143   0.00000  Uiso   1.00
C419   C     0.35625   0.98617   0.24788   0.00000  Uiso   1.00
C420   C     0.64370   0.68047   0.25178   0.00000  Uiso   1.00
H421   H     0.39942   0.67008   0.24411   0.00000  Uiso   1.00
H422   H     0.60052   0.99657   0.25553   0.00000  Uiso   1.00
N423   N     0.48029   0.81883   0.23739   0.00000  Uiso   1.00
N424   N     0.51971   0.84784   0.26260   0.00000  Uiso   1.00
H425   H     0.49576   0.79121   0.21362   0.00000  Uiso   1.00
H426   H     0.50425   0.87546   0.28639   0.00000  Uiso   1.00
N427   N     0.37433   0.75024   0.09962   0.00000  Uiso   1.00
O428   O     0.42236   0.77664   0.11315   0.00000  Uiso   1.00
O429   O     0.37286   0.69942   0.09544   0.00000  Uiso   1.00
N430   N     0.61089   0.89136   0.41012   0.00000  Uiso   1.00
O431   O     0.60327   0.94019   0.42141   0.00000  Uiso   1.00
O432   O     0.56725   0.86010   0.39371   0.00000  Uiso   1.00
O433   O     0.96386   0.91298   0.25309   0.00000  Uiso   1.00
O434   O     0.70281   0.75369   0.24690   0.00000  Uiso   1.00
O435   O     0.72488   0.90368   0.24501   0.00000  Uiso   1.00
O436   O     0.94178   0.76298   0.25498   0.00000  Uiso   1.00
C437   C     0.68176   0.93159   0.24872   0.00000  Uiso   1.00
C438   C     0.98489   0.73507   0.25115   0.00000  Uiso   1.00
O439   O     0.96995   0.84063   0.32247   0.00000  Uiso   1.00
O440   O     0.69672   0.82603   0.17753   0.00000  Uiso   1.00
O441   O     0.73098   0.83134   0.31439   0.00000  Uiso   1.00
O442   O     0.93569   0.83533   0.18561   0.00000  Uiso   1.00
C443   C     0.68726   0.83752   0.34151   0.00000  Uiso   1.00
C444   C     0.97917   0.82780   0.15865   0.00000  Uiso   1.00
Zn445  Zn    0.93700   0.83954   0.25539   0.00000  Uiso   1.00
Zn446  Zn    0.72967   0.82713   0.24460   0.00000  Uiso   1.00
C447   C     0.69601   0.84115   0.39510   0.00000  Uiso   1.00
C448   C     0.96868   0.81652   0.10587   0.00000  Uiso   1.00
C449   C     0.68137   0.88063   0.47607   0.00000  Uiso   1.00
C450   C     0.97070   0.75838   0.03283   0.00000  Uiso   1.00
C451   C     0.99559   0.86998   0.42704   0.00000  Uiso   1.00
C452   C     0.99442   0.77628   0.07917   0.00000  Uiso   1.00
C453   C     0.74410   0.81933   0.41379   0.00000  Uiso   1.00
C454   C     0.92238   0.83912   0.08510   0.00000  Uiso   1.00
C455   C     0.76331   0.82925   0.46278   0.00000  Uiso   1.00
C456   C     0.89392   0.81679   0.04211   0.00000  Uiso   1.00
C457   C     0.73262   0.86242   0.49343   0.00000  Uiso   1.00
C458   C     0.91999   0.77712   0.01487   0.00000  Uiso   1.00
C459   C     0.81479   0.81039   0.48069   0.00000  Uiso   1.00
C460   C     0.83942   0.83150   0.02660   0.00000  Uiso   1.00
C461   C     0.80747   0.86450   0.05650   0.00000  Uiso   1.00
C462   C     0.84209   0.77091   0.45433   0.00000  Uiso   1.00
C463   C     0.75430   0.87842   0.04054   0.00000  Uiso   1.00
C464   C     0.89387   0.75479   0.47119   0.00000  Uiso   1.00
H465   H     0.73086   0.90322   0.06469   0.00000  Uiso   1.00
H466   H     0.91302   0.72392   0.45033   0.00000  Uiso   1.00
H467   H     0.90727   0.87233   0.10528   0.00000  Uiso   1.00
H468   H     0.76873   0.79797   0.38816   0.00000  Uiso   1.00
H469   H     0.99031   0.90452   0.00026   0.00000  Uiso   1.00
H470   H     0.99016   0.72762   0.01207   0.00000  Uiso   1.00
H471   H     0.82106   0.87849   0.09346   0.00000  Uiso   1.00
H472   H     0.82329   0.74999   0.42143   0.00000  Uiso   1.00
C473   C     0.68958   0.98617   0.24788   0.00000  Uiso   1.00
C474   C     0.97704   0.68047   0.25178   0.00000  Uiso   1.00
H475   H     0.73276   0.67008   0.24411   0.00000  Uiso   1.00
H476   H     0.93386   0.99657   0.25553   0.00000  Uiso   1.00
N477   N     0.81362   0.81883   0.23739   0.00000  Uiso   1.00
N478   N     0.85305   0.84784   0.26260   0.00000  Uiso   1.00
H479   H     0.82909   0.79121   0.21362   0.00000  Uiso   1.00
H480   H     0.83758   0.87546   0.28639   0.00000  Uiso   1.00
N481   N     0.70766   0.75024   0.09962   0.00000  Uiso   1.00
O482   O     0.75569   0.77664   0.11315   0.00000  Uiso   1.00
O483   O     0.70619   0.69942   0.09544   0.00000  Uiso   1.00
N484   N     0.94423   0.89136   0.41012   0.00000  Uiso   1.00
O485   O     0.93660   0.94019   0.42141   0.00000  Uiso   1.00
O486   O     0.90058   0.86010   0.39371   0.00000  Uiso   1.00
O487   O     0.29719   0.24631   0.75309   0.00000  Uiso   1.00
O488   O     0.03614   0.08702   0.74690   0.00000  Uiso   1.00
O489   O     0.05822   0.23702   0.74501   0.00000  Uiso   1.00
O490   O     0.27512   0.09632   0.75498   0.00000  Uiso   1.00
C491   C     0.01509   0.26492   0.74872   0.00000  Uiso   1.00
C492   C     0.31822   0.06840   0.75115   0.00000  Uiso   1.00
O493   O     0.30328   0.17397   0.82247   0.00000  Uiso   1.00
O494   O     0.03005   0.15937   0.67753   0.00000  Uiso   1.00
O495   O     0.06431   0.16467   0.81439   0.00000  Uiso   1.00
O496   O     0.26902   0.16866   0.68561   0.00000  Uiso   1.00
C497   C     0.02059   0.17085   0.84151   0.00000  Uiso   1.00
C498   C     0.31250   0.16113   0.65865   0.00000  Uiso   1.00
Zn499  Zn    0.27033   0.17287   0.75539   0.00000  Uiso   1.00
Zn500  Zn    0.06300   0.16046   0.74460   0.00000  Uiso   1.00
C501   C     0.02934   0.17448   0.89510   0.00000  Uiso   1.00
C502   C     0.30202   0.14985   0.60587   0.00000  Uiso   1.00
C503   C     0.01470   0.21397   0.97607   0.00000  Uiso   1.00
C504   C     0.30403   0.09171   0.53283   0.00000  Uiso   1.00
C505   C     0.32892   0.20331   0.92704   0.00000  Uiso   1.00
C506   C     0.32775   0.10961   0.57917   0.00000  Uiso   1.00
C507   C     0.07743   0.15266   0.91379   0.00000  Uiso   1.00
C508   C     0.25571   0.17246   0.58510   0.00000  Uiso   1.00
C509   C     0.09665   0.16258   0.96278   0.00000  Uiso   1.00
C510   C     0.22726   0.15012   0.54211   0.00000  Uiso   1.00
C511   C     0.06595   0.19576   0.99343   0.00000  Uiso   1.00
C512   C     0.25332   0.11046   0.51487   0.00000  Uiso   1.00
C513   C     0.14812   0.14373   0.98069   0.00000  Uiso   1.00
C514   C     0.17275   0.16483   0.52660   0.00000  Uiso   1.00
C515   C     0.14081   0.19783   0.55650   0.00000  Uiso   1.00
C516   C     0.17542   0.10424   0.95433   0.00000  Uiso   1.00
C517   C     0.08763   0.21175   0.54054   0.00000  Uiso   1.00
C518   C     0.22720   0.08812   0.97119   0.00000  Uiso   1.00
H519   H     0.06419   0.23656   0.56469   0.00000  Uiso   1.00
H520   H     0.24635   0.05726   0.95033   0.00000  Uiso   1.00
H521   H     0.24060   0.20566   0.60528   0.00000  Uiso   1.00
H522   H     0.10206   0.13131   0.88816   0.00000  Uiso   1.00
H523   H     0.32364   0.23785   0.50026   0.00000  Uiso   1.00
H524   H     0.32349   0.06095   0.51207   0.00000  Uiso   1.00
H525   H     0.15439   0.21182   0.59346   0.00000  Uiso   1.00
H526   H     0.15662   0.08332   0.92143   0.00000  Uiso   1.00
C527   C     0.02291   0.31950   0.74788   0.00000  Uiso   1.00
C528   C     0.31037   0.01381   0.75178   0.00000  Uiso   1.00
H529   H     0.06609   0.00341   0.74411   0.00000  Uiso   1.00
H530   H     0.26719   0.32990   0.75553   0.00000  Uiso   1.00
N531   N     0.14695   0.15216   0.73739   0.00000  Uiso   1.00
N532   N     0.18638   0.18117   0.76260   0.00000  Uiso   1.00
H533   H     0.16242   0.12454   0.71362   0.00000  Uiso   1.00
H534   H     0.17091   0.20879   0.78639   0.00000  Uiso   1.00
N535   N     0.04100   0.08357   0.59962   0.00000  Uiso   1.00
O536   O     0.08903   0.10997   0.61315   0.00000  Uiso   1.00
O537   O     0.03952   0.03275   0.59544   0.00000  Uiso   1.00
N538   N     0.27756   0.22470   0.91012   0.00000  Uiso   1.00
O539   O     0.26994   0.27353   0.92141   0.00000  Uiso   1.00
O540   O     0.23392   0.19344   0.89371   0.00000  Uiso   1.00
O541   O     0.63052   0.24631   0.75309   0.00000  Uiso   1.00
O542   O     0.36948   0.08702   0.74690   0.00000  Uiso   1.00
O543   O     0.39155   0.23702   0.74501   0.00000  Uiso   1.00
O544   O     0.60845   0.09632   0.75498   0.00000  Uiso   1.00
C545   C     0.34842   0.26492   0.74872   0.00000  Uiso   1.00
C546   C     0.65156   0.06840   0.75115   0.00000  Uiso   1.00
O547   O     0.63662   0.17397   0.82247   0.00000  Uiso   1.00
O548   O     0.36338   0.15937   0.67753   0.00000  Uiso   1.00
O549   O     0.39764   0.16467   0.81439   0.00000  Uiso   1.00
O550   O     0.60236   0.16866   0.68561   0.00000  Uiso   1.00
C551   C     0.35392   0.17085   0.84151   0.00000  Uiso   1.00
C552   C     0.64584   0.16113   0.65865   0.00000  Uiso   1.00
Zn553  Zn    0.60366   0.17287   0.75539   0.00000  Uiso   1.00
Zn554  Zn    0.39634   0.16046   0.74460   0.00000  Uiso   1.00
C555   C     0.36268   0.17448   0.89510   0.00000  Uiso   1.00
C556   C     0.63535   0.14985   0.60587   0.00000  Uiso   1.00
C557   C     0.34804   0.21397   0.97607   0.00000  Uiso   1.00
C558   C     0.63737   0.09171   0.53283   0.00000  Uiso   1.00
C559   C     0.66226   0.20331   0.92704   0.00000  Uiso   1.00
C560   C     0.66108   0.10961   0.57917   0.00000  Uiso   1.00
C561   C     0.41077   0.15266   0.91379   0.00000  Uiso   1.00
C562   C     0.58905   0.17246   0.58510   0.00000  Uiso   1.00
C563   C     0.42998   0.16258   0.96278   0.00000  Uiso   1.00
C564   C     0.56059   0.15012   0.54211   0.00000  Uiso   1.00
C565   C     0.39929   0.19576   0.99343   0.00000  Uiso   1.00
C566   C     0.58666   0.11046   0.51487   0.00000  Uiso   1.00
C567   C     0.48145   0.14373   0.98069   0.00000  Uiso   1.00
C568   C     0.50609   0.16483   0.52660   0.00000  Uiso   1.00
C569   C     0.47414   0.19783   0.55650   0.00000  Uiso   1.00
C570   C     0.50876   0.10424   0.95433   0.00000  Uiso   1.00
C571   C     0.42096   0.21175   0.54054   0.00000  Uiso   1.00
C572   C     0.56053   0.08812   0.97119   0.00000  Uiso   1.00
H573   H     0.39753   0.23656   0.56469   0.00000  Uiso   1.00
H574   H     0.57969   0.05726   0.95033   0.00000  Uiso   1.00
H575   H     0.57393   0.20566   0.60528   0.00000  Uiso   1.00
H576   H     0.43540   0.13131   0.88816   0.00000  Uiso   1.00
H577   H     0.65697   0.23785   0.50026   0.00000  Uiso   1.00
H578   H     0.65682   0.06095   0.51207   0.00000  Uiso   1.00
H579   H     0.48773   0.21182   0.59346   0.00000  Uiso   1.00
H580   H     0.48996   0.08332   0.92143   0.00000  Uiso   1.00
C581   C     0.35625   0.31950   0.74788   0.00000  Uiso   1.00
C582   C     0.64370   0.01381   0.75178   0.00000  Uiso   1.00
H583   H     0.39942   0.00341   0.74411   0.00000  Uiso   1.00
H584   H     0.60052   0.32990   0.75553   0.00000  Uiso   1.00
N585   N     0.48029   0.15216   0.73739   0.00000  Uiso   1.00
N586   N     0.51971   0.18117   0.76260   0.00000  Uiso   1.00
H587   H     0.49576   0.12454   0.71362   0.00000  Uiso   1.00
H588   H     0.50425   0.20879   0.78639   0.00000  Uiso   1.00
N589   N     0.37433   0.08357   0.59962   0.00000  Uiso   1.00
O590   O     0.42236   0.10997   0.61315   0.00000  Uiso   1.00
O591   O     0.37286   0.03275   0.59544   0.00000  Uiso   1.00
N592   N     0.61089   0.22470   0.91012   0.00000  Uiso   1.00
O593   O     0.60327   0.27353   0.92141   0.00000  Uiso   1.00
O594   O     0.56725   0.19344   0.89371   0.00000  Uiso   1.00
O595   O     0.96386   0.24631   0.75309   0.00000  Uiso   1.00
O596   O     0.70281   0.08702   0.74690   0.00000  Uiso   1.00
O597   O     0.72488   0.23702   0.74501   0.00000  Uiso   1.00
O598   O     0.94178   0.09632   0.75498   0.00000  Uiso   1.00
C599   C     0.68176   0.26492   0.74872   0.00000  Uiso   1.00
C600   C     0.98489   0.06840   0.75115   0.00000  Uiso   1.00
O601   O     0.96995   0.17397   0.82247   0.00000  Uiso   1.00
O602   O     0.69672   0.15937   0.67753   0.00000  Uiso   1.00
O603   O     0.73098   0.16467   0.81439   0.00000  Uiso   1.00
O604   O     0.93569   0.16866   0.68561   0.00000  Uiso   1.00
C605   C     0.68726   0.17085   0.84151   0.00000  Uiso   1.00
C606   C     0.97917   0.16113   0.65865   0.00000  Uiso   1.00
Zn607  Zn    0.93700   0.17287   0.75539   0.00000  Uiso   1.00
Zn608  Zn    0.72967   0.16046   0.74460   0.00000  Uiso   1.00
C609   C     0.69601   0.17448   0.89510   0.00000  Uiso   1.00
C610   C     0.96868   0.14985   0.60587   0.00000  Uiso   1.00
C611   C     0.68137   0.21397   0.97607   0.00000  Uiso   1.00
C612   C     0.97070   0.09171   0.53283   0.00000  Uiso   1.00
C613   C     0.99559   0.20331   0.92704   0.00000  Uiso   1.00
C614   C     0.99442   0.10961   0.57917   0.00000  Uiso   1.00
C615   C     0.74410   0.15266   0.91379   0.00000  Uiso   1.00
C616   C     0.92238   0.17246   0.58510   0.00000  Uiso   1.00
C617   C     0.76331   0.16258   0.96278   0.00000  Uiso   1.00
C618   C     0.89392   0.15012   0.54211   0.00000  Uiso   1.00
C619   C     0.73262   0.19576   0.99343   0.00000  Uiso   1.00
C620   C     0.91999   0.11046   0.51487   0.00000  Uiso   1.00
C621   C     0.81479   0.14373   0.98069   0.00000  Uiso   1.00
C622   C     0.83942   0.16483   0.52660   0.00000  Uiso   1.00
C623   C     0.80747   0.19783   0.55650   0.00000  Uiso   1.00
C624   C     0.84209   0.10424   0.95433   0.00000  Uiso   1.00
C625   C     0.75430   0.21175   0.54054   0.00000  Uiso   1.00
C626   C     0.89387   0.08812   0.97119   0.00000  Uiso   1.00
H627   H     0.73086   0.23656   0.56469   0.00000  Uiso   1.00
H628   H     0.91302   0.05726   0.95033   0.00000  Uiso   1.00
H629   H     0.90727   0.20566   0.60528   0.00000  Uiso   1.00
H630   H     0.76873   0.13131   0.88816   0.00000  Uiso   1.00
H631   H     0.99031   0.23785   0.50026   0.00000  Uiso   1.00
H632   H     0.99016   0.06095   0.51207   0.00000  Uiso   1.00
H633   H     0.82106   0.21182   0.59346   0.00000  Uiso   1.00
H634   H     0.82329   0.08332   0.92143   0.00000  Uiso   1.00
C635   C     0.68958   0.31950   0.74788   0.00000  Uiso   1.00
C636   C     0.97704   0.01381   0.75178   0.00000  Uiso   1.00
H637   H     0.73276   0.00341   0.74411   0.00000  Uiso   1.00
H638   H     0.93386   0.32990   0.75553   0.00000  Uiso   1.00
N639   N     0.81362   0.15216   0.73739   0.00000  Uiso   1.00
N640   N     0.85305   0.18117   0.76260   0.00000  Uiso   1.00
H641   H     0.82909   0.12454   0.71362   0.00000  Uiso   1.00
H642   H     0.83758   0.20879   0.78639   0.00000  Uiso   1.00
N643   N     0.70766   0.08357   0.59962   0.00000  Uiso   1.00
O644   O     0.75569   0.10997   0.61315   0.00000  Uiso   1.00
O645   O     0.70619   0.03275   0.59544   0.00000  Uiso   1.00
N646   N     0.94423   0.22470   0.91012   0.00000  Uiso   1.00
O647   O     0.93660   0.27353   0.92141   0.00000  Uiso   1.00
O648   O     0.90058   0.19344   0.89371   0.00000  Uiso   1.00
O649   O     0.29719   0.57964   0.75309   0.00000  Uiso   1.00
O650   O     0.03614   0.42036   0.74690   0.00000  Uiso   1.00
O651   O     0.05822   0.57035   0.74501   0.00000  Uiso   1.00
O652   O     0.27512   0.42965   0.75498   0.00000  Uiso   1.00
C653   C     0.01509   0.59825   0.74872   0.00000  Uiso   1.00
C654   C     0.31822   0.40174   0.75115   0.00000  Uiso   1.00
O655   O     0.30328   0.50730   0.82247   0.00000  Uiso   1.00
O656   O     0.03005   0.49270   0.67753   0.00000  Uiso   1.00
O657   O     0.06431   0.49801   0.81439   0.00000  Uiso   1.00
O658   O     0.26902   0.50199   0.68561   0.00000  Uiso   1.00
C659   C     0.02059   0.50418   0.84151   0.00000  Uiso   1.00
C660   C     0.31250   0.49447   0.65865   0.00000  Uiso   1.00
Zn661  Zn    0.27033   0.50621   0.75539   0.00000  Uiso   1.00
Zn662  Zn    0.06300   0.49379   0.74460   0.00000  Uiso   1.00
C663   C     0.02934   0.50782   0.89510   0.00000  Uiso   1.00
C664   C     0.30202   0.48319   0.60587   0.00000  Uiso   1.00
C665   C     0.01470   0.54730   0.97607   0.00000  Uiso   1.00
C666   C     0.30403   0.42504   0.53283   0.00000  Uiso   1.00
C667   C     0.32892   0.53665   0.92704   0.00000  Uiso   1.00
C668   C     0.32775   0.44294   0.57917   0.00000  Uiso   1.00
C669   C     0.07743   0.48599   0.91379   0.00000  Uiso   1.00
C670   C     0.25571   0.50579   0.58510   0.00000  Uiso   1.00
C671   C     0.09665   0.49591   0.96278   0.00000  Uiso   1.00
C672   C     0.22726   0.48346   0.54211   0.00000  Uiso   1.00
C673   C     0.06595   0.52909   0.99343   0.00000  Uiso   1.00
C674   C     0.25332   0.44379   0.51487   0.00000  Uiso   1.00
C675   C     0.14812   0.47706   0.98069   0.00000  Uiso   1.00
C676   C     0.17275   0.49816   0.52660   0.00000  Uiso   1.00
C677   C     0.14081   0.53116   0.55650   0.00000  Uiso   1.00
C678   C     0.17542   0.43758   0.95433   0.00000  Uiso   1.00
C679   C     0.08763   0.54509   0.54054   0.00000  Uiso   1.00
C680   C     0.22720   0.42145   0.97119   0.00000  Uiso   1.00
H681   H     0.06419   0.56989   0.56469   0.00000  Uiso   1.00
H682   H     0.24635   0.39059   0.95033   0.00000  Uiso   1.00
H683   H     0.24060   0.53900   0.60528   0.00000  Uiso   1.00
H684   H     0.10206   0.46464   0.88816   0.00000  Uiso   1.00
H685   H     0.32364   0.57119   0.50026   0.00000  Uiso   1.00
H686   H     0.32349   0.39428   0.51207   0.00000  Uiso   1.00
H687   H     0.15439   0.54516   0.59346   0.00000  Uiso   1.00
H688   H     0.15662   0.41665   0.92143   0.00000  Uiso   1.00
C689   C     0.02291   0.65284   0.74788   0.00000  Uiso   1.00
C690   C     0.31037   0.34714   0.75178   0.00000  Uiso   1.00
H691   H     0.06609   0.33675   0.74411   0.00000  Uiso   1.00
H692   H     0.26719   0.66323   0.75553   0.00000  Uiso   1.00
N693   N     0.14695   0.48550   0.73739   0.00000  Uiso   1.00
N694   N     0.18638   0.51450   0.76260   0.00000  Uiso   1.00
H695   H     0.16242   0.45787   0.71362   0.00000  Uiso   1.00
H696   H     0.17091   0.54212   0.78639   0.00000  Uiso   1.00
N697   N     0.04100   0.41691   0.59962   0.00000  Uiso   1.00
O698   O     0.08903   0.44331   0.61315   0.00000  Uiso   1.00
O699   O     0.03952   0.36608   0.59544   0.00000  Uiso   1.00
N700   N     0.27756   0.55803   0.91012   0.00000  Uiso   1.00
O701   O     0.26994   0.60686   0.92141   0.00000  Uiso   1.00
O702   O     0.23392   0.52677   0.89371   0.00000  Uiso   1.00
O703   O     0.63052   0.57964   0.75309   0.00000  Uiso   1.00
O704   O     0.36948   0.42036   0.74690   0.00000  Uiso   1.00
O705   O     0.39155   0.57035   0.74501   0.00000  Uiso   1.00
O706   O     0.60845   0.42965   0.75498   0.00000  Uiso   1.00
C707   C     0.34842   0.59825   0.74872   0.00000  Uiso   1.00
C708   C     0.65156   0.40174   0.75115   0.00000  Uiso   1.00
O709   O     0.63662   0.50730   0.82247   0.00000  Uiso   1.00
O710   O     0.36338   0.49270   0.67753   0.00000  Uiso   1.00
O711   O     0.39764   0.49801   0.81439   0.00000  Uiso   1.00
O712   O     0.60236   0.50199   0.68561   0.00000  Uiso   1.00
C713   C     0.35392   0.50418   0.84151   0.00000  Uiso   1.00
C714   C     0.64584   0.49447   0.65865   0.00000  Uiso   1.00
Zn715  Zn    0.60366   0.50621   0.75539   0.00000  Uiso   1.00
Zn716  Zn    0.39634   0.49379   0.74460   0.00000  Uiso   1.00
C717   C     0.36268   0.50782   0.89510   0.00000  Uiso   1.00
C718   C     0.63535   0.48319   0.60587   0.00000  Uiso   1.00
C719   C     0.34804   0.54730   0.97607   0.00000  Uiso   1.00
C720   C     0.63737   0.42504   0.53283   0.00000  Uiso   1.00
C721   C     0.66226   0.53665   0.92704   0.00000  Uiso   1.00
C722   C     0.66108   0.44294   0.57917   0.00000  Uiso   1.00
C723   C     0.41077   0.48599   0.91379   0.00000  Uiso   1.00
C724   C     0.58905   0.50579   0.58510   0.00000  Uiso   1.00
C725   C     0.42998   0.49591   0.96278   0.00000  Uiso   1.00
C726   C     0.56059   0.48346   0.54211   0.00000  Uiso   1.00
C727   C     0.39929   0.52909   0.99343   0.00000  Uiso   1.00
C728   C     0.58666   0.44379   0.51487   0.00000  Uiso   1.00
C729   C     0.48145   0.47706   0.98069   0.00000  Uiso   1.00
C730   C     0.50609   0.49816   0.52660   0.00000  Uiso   1.00
C731   C     0.47414   0.53116   0.55650   0.00000  Uiso   1.00
C732   C     0.50876   0.43758   0.95433   0.00000  Uiso   1.00
C733   C     0.42096   0.54509   0.54054   0.00000  Uiso   1.00
C734   C     0.56053   0.42145   0.97119   0.00000  Uiso   1.00
H735   H     0.39753   0.56989   0.56469   0.00000  Uiso   1.00
H736   H     0.57969   0.39059   0.95033   0.00000  Uiso   1.00
H737   H     0.57393   0.53900   0.60528   0.00000  Uiso   1.00
H738   H     0.43540   0.46464   0.88816   0.00000  Uiso   1.00
H739   H     0.65697   0.57119   0.50026   0.00000  Uiso   1.00
H740   H     0.65682   0.39428   0.51207   0.00000  Uiso   1.00
H741   H     0.48773   0.54516   0.59346   0.00000  Uiso   1.00
H742   H     0.48996   0.41665   0.92143   0.00000  Uiso   1.00
C743   C     0.35625   0.65284   0.74788   0.00000  Uiso   1.00
C744   C     0.64370   0.34714   0.75178   0.00000  Uiso   1.00
H745   H     0.39942   0.33675   0.74411   0.00000  Uiso   1.00
H746   H     0.60052   0.66323   0.75553   0.00000  Uiso   1.00
N747   N     0.48029   0.48550   0.73739   0.00000  Uiso   1.00
N748   N     0.51971   0.51450   0.76260   0.00000  Uiso   1.00
H749   H     0.49576   0.45787   0.71362   0.00000  Uiso   1.00
H750   H     0.50425   0.54212   0.78639   0.00000  Uiso   1.00
N751   N     0.37433   0.41691   0.59962   0.00000  Uiso   1.00
O752   O     0.42236   0.44331   0.61315   0.00000  Uiso   1.00
O753   O     0.37286   0.36608   0.59544   0.00000  Uiso   1.00
N754   N     0.61089   0.55803   0.91012   0.00000  Uiso   1.00
O755   O     0.60327   0.60686   0.92141   0.00000  Uiso   1.00
O756   O     0.56725   0.52677   0.89371   0.00000  Uiso   1.00
O757   O     0.96386   0.57964   0.75309   0.00000  Uiso   1.00
O758   O     0.70281   0.42036   0.74690   0.00000  Uiso   1.00
O759   O     0.72488   0.57035   0.74501   0.00000  Uiso   1.00
O760   O     0.94178   0.42965   0.75498   0.00000  Uiso   1.00
C761   C     0.68176   0.59825   0.74872   0.00000  Uiso   1.00
C762   C     0.98489   0.40174   0.75115   0.00000  Uiso   1.00
O763   O     0.96995   0.50730   0.82247   0.00000  Uiso   1.00
O764   O     0.69672   0.49270   0.67753   0.00000  Uiso   1.00
O765   O     0.73098   0.49801   0.81439   0.00000  Uiso   1.00
O766   O     0.93569   0.50199   0.68561   0.00000  Uiso   1.00
C767   C     0.68726   0.50418   0.84151   0.00000  Uiso   1.00
C768   C     0.97917   0.49447   0.65865   0.00000  Uiso   1.00
Zn769  Zn    0.93700   0.50621   0.75539   0.00000  Uiso   1.00
Zn770  Zn    0.72967   0.49379   0.74460   0.00000  Uiso   1.00
C771   C     0.69601   0.50782   0.89510   0.00000  Uiso   1.00
C772   C     0.96868   0.48319   0.60587   0.00000  Uiso   1.00
C773   C     0.68137   0.54730   0.97607   0.00000  Uiso   1.00
C774   C     0.97070   0.42504   0.53283   0.00000  Uiso   1.00
C775   C     0.99559   0.53665   0.92704   0.00000  Uiso   1.00
C776   C     0.99442   0.44294   0.57917   0.00000  Uiso   1.00
C777   C     0.74410   0.48599   0.91379   0.00000  Uiso   1.00
C778   C     0.92238   0.50579   0.58510   0.00000  Uiso   1.00
C779   C     0.76331   0.49591   0.96278   0.00000  Uiso   1.00
C780   C     0.89392   0.48346   0.54211   0.00000  Uiso   1.00
C781   C     0.73262   0.52909   0.99343   0.00000  Uiso   1.00
C782   C     0.91999   0.44379   0.51487   0.00000  Uiso   1.00
C783   C     0.81479   0.47706   0.98069   0.00000  Uiso   1.00
C784   C     0.83942   0.49816   0.52660   0.00000  Uiso   1.00
C785   C     0.80747   0.53116   0.55650   0.00000  Uiso   1.00
C786   C     0.84209   0.43758   0.95433   0.00000  Uiso   1.00
C787   C     0.75430   0.54509   0.54054   0.00000  Uiso   1.00
C788   C     0.89387   0.42145   0.97119   0.00000  Uiso   1.00
H789   H     0.73086   0.56989   0.56469   0.00000  Uiso   1.00
H790   H     0.91302   0.39059   0.95033   0.00000  Uiso   1.00
H791   H     0.90727   0.53900   0.60528   0.00000  Uiso   1.00
H792   H     0.76873   0.46464   0.88816   0.00000  Uiso   1.00
H793   H     0.99031   0.57119   0.50026   0.00000  Uiso   1.00
H794   H     0.99016   0.39428   0.51207   0.00000  Uiso   1.00
H795   H     0.82106   0.54516   0.59346   0.00000  Uiso   1.00
H796   H     0.82329   0.41665   0.92143   0.00000  Uiso   1.00
C797   C     0.68958   0.65284   0.74788   0.00000  Uiso   1.00
C798   C     0.97704   0.34714   0.75178   0.00000  Uiso   1.00
H799   H     0.73276   0.33675   0.74411   0.00000  Uiso   1.00
H800   H     0.93386   0.66323   0.75553   0.00000  Uiso   1.00
N801   N     0.81362   0.48550   0.73739   0.00000  Uiso   1.00
N802   N     0.85305   0.51450   0.76260   0.00000  Uiso   1.00
H803   H     0.82909   0.45787   0.71362   0.00000  Uiso   1.00
H804   H     0.83758   0.54212   0.78639   0.00000  Uiso   1.00
N805   N     0.70766   0.41691   0.59962   0.00000  Uiso   1.00
O806   O     0.75569   0.44331   0.61315   0.00000  Uiso   1.00
O807   O     0.70619   0.36608   0.59544   0.00000  Uiso   1.00
N808   N     0.94423   0.55803   0.91012   0.00000  Uiso   1.00
O809   O     0.93660   0.60686   0.92141   0.00000  Uiso   1.00
O810   O     0.90058   0.52677   0.89371   0.00000  Uiso   1.00
O811   O     0.29719   0.91298   0.75309   0.00000  Uiso   1.00
O812   O     0.03614   0.75369   0.74690   0.00000  Uiso   1.00
O813   O     0.05822   0.90368   0.74501   0.00000  Uiso   1.00
O814   O     0.27512   0.76298   0.75498   0.00000  Uiso   1.00
C815   C     0.01509   0.93159   0.74872   0.00000  Uiso   1.00
C816   C     0.31822   0.73507   0.75115   0.00000  Uiso   1.00
O817   O     0.30328   0.84063   0.82247   0.00000  Uiso   1.00
O818   O     0.03005   0.82603   0.67753   0.00000  Uiso   1.00
O819   O     0.06431   0.83134   0.81439   0.00000  Uiso   1.00
O820   O     0.26902   0.83533   0.68561   0.00000  Uiso   1.00
C821   C     0.02059   0.83752   0.84151   0.00000  Uiso   1.00
C822   C     0.31250   0.82780   0.65865   0.00000  Uiso   1.00
Zn823  Zn    0.27033   0.83954   0.75539   0.00000  Uiso   1.00
Zn824  Zn    0.06300   0.82713   0.74460   0.00000  Uiso   1.00
C825   C     0.02934   0.84115   0.89510   0.00000  Uiso   1.00
C826   C     0.30202   0.81652   0.60587   0.00000  Uiso   1.00
C827   C     0.01470   0.88063   0.97607   0.00000  Uiso   1.00
C828   C     0.30403   0.75838   0.53283   0.00000  Uiso   1.00
C829   C     0.32892   0.86998   0.92704   0.00000  Uiso   1.00
C830   C     0.32775   0.77628   0.57917   0.00000  Uiso   1.00
C831   C     0.07743   0.81933   0.91379   0.00000  Uiso   1.00
C832   C     0.25571   0.83912   0.58510   0.00000  Uiso   1.00
C833   C     0.09665   0.82925   0.96278   0.00000  Uiso   1.00
C834   C     0.22726   0.81679   0.54211   0.00000  Uiso   1.00
C835   C     0.06595   0.86242   0.99343   0.00000  Uiso   1.00
C836   C     0.25332   0.77712   0.51487   0.00000  Uiso   1.00
C837   C     0.14812   0.81039   0.98069   0.00000  Uiso   1.00
C838   C     0.17275   0.83150   0.52660   0.00000  Uiso   1.00
C839   C     0.14081   0.86450   0.55650   0.00000  Uiso   1.00
C840   C     0.17542   0.77091   0.95433   0.00000  Uiso   1.00
C841   C     0.08763   0.87842   0.54054   0.00000  Uiso   1.00
C842   C     0.22720   0.75479   0.97119   0.00000  Uiso   1.00
H843   H     0.06419   0.90322   0.56469   0.00000  Uiso   1.00
H844   H     0.24635   0.72392   0.95033   0.00000  Uiso   1.00
H845   H     0.24060   0.87233   0.60528   0.00000  Uiso   1.00
H846   H     0.10206   0.79797   0.88816   0.00000  Uiso   1.00
H847   H     0.32364   0.90452   0.50026   0.00000  Uiso   1.00
H848   H     0.32349   0.72762   0.51207   0.00000  Uiso   1.00
H849   H     0.15439   0.87849   0.59346   0.00000  Uiso   1.00
H850   H     0.15662   0.74999   0.92143   0.00000  Uiso   1.00
C851   C     0.02291   0.98617   0.74788   0.00000  Uiso   1.00
C852   C     0.31037   0.68047   0.75178   0.00000  Uiso   1.00
H853   H     0.06609   0.67008   0.74411   0.00000  Uiso   1.00
H854   H     0.26719   0.99657   0.75553   0.00000  Uiso   1.00
N855   N     0.14695   0.81883   0.73739   0.00000  Uiso   1.00
N856   N     0.18638   0.84784   0.76260   0.00000  Uiso   1.00
H857   H     0.16242   0.79121   0.71362   0.00000  Uiso   1.00
H858   H     0.17091   0.87546   0.78639   0.00000  Uiso   1.00
N859   N     0.04100   0.75024   0.59962   0.00000  Uiso   1.00
O860   O     0.08903   0.77664   0.61315   0.00000  Uiso   1.00
O861   O     0.03952   0.69942   0.59544   0.00000  Uiso   1.00
N862   N     0.27756   0.89136   0.91012   0.00000  Uiso   1.00
O863   O     0.26994   0.94019   0.92141   0.00000  Uiso   1.00
O864   O     0.23392   0.86010   0.89371   0.00000  Uiso   1.00
O865   O     0.63052   0.91298   0.75309   0.00000  Uiso   1.00
O866   O     0.36948   0.75369   0.74690   0.00000  Uiso   1.00
O867   O     0.39155   0.90368   0.74501   0.00000  Uiso   1.00
O868   O     0.60845   0.76298   0.75498   0.00000  Uiso   1.00
C869   C     0.34842   0.93159   0.74872   0.00000  Uiso   1.00
C870   C     0.65156   0.73507   0.75115   0.00000  Uiso   1.00
O871   O     0.63662   0.84063   0.82247   0.00000  Uiso   1.00
O872   O     0.36338   0.82603   0.67753   0.00000  Uiso   1.00
O873   O     0.39764   0.83134   0.81439   0.00000  Uiso   1.00
O874   O     0.60236   0.83533   0.68561   0.00000  Uiso   1.00
C875   C     0.35392   0.83752   0.84151   0.00000  Uiso   1.00
C876   C     0.64584   0.82780   0.65865   0.00000  Uiso   1.00
Zn877  Zn    0.60366   0.83954   0.75539   0.00000  Uiso   1.00
Zn878  Zn    0.39634   0.82713   0.74460   0.00000  Uiso   1.00
C879   C     0.36268   0.84115   0.89510   0.00000  Uiso   1.00
C880   C     0.63535   0.81652   0.60587   0.00000  Uiso   1.00
C881   C     0.34804   0.88063   0.97607   0.00000  Uiso   1.00
C882   C     0.63737   0.75838   0.53283   0.00000  Uiso   1.00
C883   C     0.66226   0.86998   0.92704   0.00000  Uiso   1.00
C884   C     0.66108   0.77628   0.57917   0.00000  Uiso   1.00
C885   C     0.41077   0.81933   0.91379   0.00000  Uiso   1.00
C886   C     0.58905   0.83912   0.58510   0.00000  Uiso   1.00
C887   C     0.42998   0.82925   0.96278   0.00000  Uiso   1.00
C888   C     0.56059   0.81679   0.54211   0.00000  Uiso   1.00
C889   C     0.39929   0.86242   0.99343   0.00000  Uiso   1.00
C890   C     0.58666   0.77712   0.51487   0.00000  Uiso   1.00
C891   C     0.48145   0.81039   0.98069   0.00000  Uiso   1.00
C892   C     0.50609   0.83150   0.52660   0.00000  Uiso   1.00
C893   C     0.47414   0.86450   0.55650   0.00000  Uiso   1.00
C894   C     0.50876   0.77091   0.95433   0.00000  Uiso   1.00
C895   C     0.42096   0.87842   0.54054   0.00000  Uiso   1.00
C896   C     0.56053   0.75479   0.97119   0.00000  Uiso   1.00
H897   H     0.39753   0.90322   0.56469   0.00000  Uiso   1.00
H898   H     0.57969   0.72392   0.95033   0.00000  Uiso   1.00
H899   H     0.57393   0.87233   0.60528   0.00000  Uiso   1.00
H900   H     0.43540   0.79797   0.88816   0.00000  Uiso   1.00
H901   H     0.65697   0.90452   0.50026   0.00000  Uiso   1.00
H902   H     0.65682   0.72762   0.51207   0.00000  Uiso   1.00
H903   H     0.48773   0.87849   0.59346   0.00000  Uiso   1.00
H904   H     0.48996   0.74999   0.92143   0.00000  Uiso   1.00
C905   C     0.35625   0.98617   0.74788   0.00000  Uiso   1.00
C906   C     0.64370   0.68047   0.75178   0.00000  Uiso   1.00
H907   H     0.39942   0.67008   0.74411   0.00000  Uiso   1.00
H908   H     0.60052   0.99657   0.75553   0.00000  Uiso   1.00
N909   N     0.48029   0.81883   0.73739   0.00000  Uiso   1.00
N910   N     0.51971   0.84784   0.76260   0.00000  Uiso   1.00
H911   H     0.49576   0.79121   0.71362   0.00000  Uiso   1.00
H912   H     0.50425   0.87546   0.78639   0.00000  Uiso   1.00
N913   N     0.37433   0.75024   0.59962   0.00000  Uiso   1.00
O914   O     0.42236   0.77664   0.61315   0.00000  Uiso   1.00
O915   O     0.37286   0.69942   0.59544   0.00000  Uiso   1.00
N916   N     0.61089   0.89136   0.91012   0.00000  Uiso   1.00
O917   O     0.60327   0.94019   0.92141   0.00000  Uiso   1.00
O918   O     0.56725   0.86010   0.89371   0.00000  Uiso   1.00
O919   O     0.96386   0.91298   0.75309   0.00000  Uiso   1.00
O920   O     0.70281   0.75369   0.74690   0.00000  Uiso   1.00
O921   O     0.72488   0.90368   0.74501   0.00000  Uiso   1.00
O922   O     0.94178   0.76298   0.75498   0.00000  Uiso   1.00
C923   C     0.68176   0.93159   0.74872   0.00000  Uiso   1.00
C924   C     0.98489   0.73507   0.75115   0.00000  Uiso   1.00
O925   O     0.96995   0.84063   0.82247   0.00000  Uiso   1.00
O926   O     0.69672   0.82603   0.67753   0.00000  Uiso   1.00
O927   O     0.73098   0.83134   0.81439   0.00000  Uiso   1.00
O928   O     0.93569   0.83533   0.68561   0.00000  Uiso   1.00
C929   C     0.68726   0.83752   0.84151   0.00000  Uiso   1.00
C930   C     0.97917   0.82780   0.65865   0.00000  Uiso   1.00
Zn931  Zn    0.93700   0.83954   0.75539   0.00000  Uiso   1.00
Zn932  Zn    0.72967   0.82713   0.74460   0.00000  Uiso   1.00
C933   C     0.69601   0.84115   0.89510   0.00000  Uiso   1.00
C934   C     0.96868   0.81652   0.60587   0.00000  Uiso   1.00
C935   C     0.68137   0.88063   0.97607   0.00000  Uiso   1.00
C936   C     0.97070   0.75838   0.53283   0.00000  Uiso   1.00
C937   C     0.99559   0.86998   0.92704   0.00000  Uiso   1.00
C938   C     0.99442   0.77628   0.57917   0.00000  Uiso   1.00
C939   C     0.74410   0.81933   0.91379   0.00000  Uiso   1.00
C940   C     0.92238   0.83912   0.58510   0.00000  Uiso   1.00
C941   C     0.76331   0.82925   0.96278   0.00000  Uiso   1.00
C942   C     0.89392   0.81679   0.54211   0.00000  Uiso   1.00
C943   C     0.73262   0.86242   0.99343   0.00000  Uiso   1.00
C944   C     0.91999   0.77712   0.51487   0.00000  Uiso   1.00
C945   C     0.81479   0.81039   0.98069   0.00000  Uiso   1.00
C946   C     0.83942   0.83150   0.52660   0.00000  Uiso   1.00
C947   C     0.80747   0.86450   0.55650   0.00000  Uiso   1.00
C948   C     0.84209   0.77091   0.95433   0.00000  Uiso   1.00
C949   C     0.75430   0.87842   0.54054   0.00000  Uiso   1.00
C950   C     0.89387   0.75479   0.97119   0.00000  Uiso   1.00
H951   H     0.73086   0.90322   0.56469   0.00000  Uiso   1.00
H952   H     0.91302   0.72392   0.95033   0.00000  Uiso   1.00
H953   H     0.90727   0.87233   0.60528   0.00000  Uiso   1.00
H954   H     0.76873   0.79797   0.88816   0.00000  Uiso   1.00
H955   H     0.99031   0.90452   0.50026   0.00000  Uiso   1.00
H956   H     0.99016   0.72762   0.51207   0.00000  Uiso   1.00
H957   H     0.82106   0.87849   0.59346   0.00000  Uiso   1.00
H958   H     0.82329   0.74999   0.92143   0.00000  Uiso   1.00
C959   C     0.68958   0.98617   0.74788   0.00000  Uiso   1.00
C960   C     0.97704   0.68047   0.75178   0.00000  Uiso   1.00
H961   H     0.73276   0.67008   0.74411   0.00000  Uiso   1.00
H962   H     0.93386   0.99657   0.75553   0.00000  Uiso   1.00
N963   N     0.81362   0.81883   0.73739   0.00000  Uiso   1.00
N964   N     0.85305   0.84784   0.76260   0.00000  Uiso   1.00
H965   H     0.82909   0.79121   0.71362   0.00000  Uiso   1.00
H966   H     0.83758   0.87546   0.78639   0.00000  Uiso   1.00
N967   N     0.70766   0.75024   0.59962   0.00000  Uiso   1.00
O968   O     0.75569   0.77664   0.61315   0.00000  Uiso   1.00
O969   O     0.70619   0.69942   0.59544   0.00000  Uiso   1.00
N970   N     0.94423   0.89136   0.91012   0.00000  Uiso   1.00
O971   O     0.93660   0.94019   0.92141   0.00000  Uiso   1.00
O972   O     0.90058   0.86010   0.89371   0.00000  Uiso   1.00
loop_
_geom_bond_atom_site_label_1
_geom_bond_atom_site_label_2
_geom_bond_distance
_geom_bond_site_symmetry_2
_ccdc_geom_bond_type
O1     Zn13    1.950   .     S
O1     C59     1.275   .     S
O2     Zn14    1.950   .     S
O2     C114    1.275   1_455 S
O3     Zn14    1.978   .     S
O3     C5      1.289   .     A
O4     C6      1.289   .     A
O4     Zn13    1.978   .     S
C5     C41     1.402   .     S
C5     O109    1.275   1_455 S
C6     C42     1.402   .     S
C6     O56     1.275   .     S
O7     Zn13    1.954   .     S
O7     C65     1.289   .     S
O8     Zn14    1.954   .     S
O8     C120    1.287   1_455 S
O9     Zn14    1.899   .     S
O9     C11     1.305   .     A
O10    C12     1.303   .     A
O10    Zn13    1.899   .     S
C11    C15     1.464   .     S
C11    O115    1.289   1_455 S
C12    C16     1.458   .     S
C12    O62     1.287   .     S
Zn13   N46     2.017   .     S
Zn14   N45     2.017   .     S
C15    C21     1.391   .     A
C15    C127    1.416   1_455 S
C16    C20     1.416   .     A
C16    C22     1.388   .     A
C17    C25     1.399   .     A
C17    C127    1.397   1_455 S
C17    H631    1.085   1_455 S
C18    C26     1.400   .     A
C18    H38     1.085   .     S
C18    C20     1.397   .     A
C19    N52     1.434   .     S
C19    C69     1.416   .     S
C19    C71     1.397   .     S
C20    N103    1.436   .     S
C21    H36     1.077   .     S
C21    C23     1.395   .     A
C22    H35     1.078   .     S
C22    C24     1.395   .     A
C23    C27     1.416   .     A
C23    C25     1.415   .     A
C24    C26     1.417   .     A
C24    C28     1.418   .     A
C25    C517    1.389   .     S
C26    C518    1.389   1_554 S
C27    C30     1.417   .     A
C27    C514    1.417   .     S
C28    C29     1.418   .     A
C28    C513    1.417   1_554 S
C29    H39     1.077   .     S
C29    C31     1.386   .     A
C30    H40     1.078   .     S
C30    C32     1.384   .     A
C31    H33     1.084   .     S
C31    C511    1.389   1_554 S
C32    H34     1.084   .     S
C32    C512    1.389   .     S
H37    C557    1.085   1_554 S
C41    C312    1.340   1_455 S
C41    H205    1.088   .     S
C42    C419    1.340   1_545 S
C42    H368    1.088   1_545 S
H43    C365    1.088   1_545 S
H44    C204    1.088   .     S
N45    H47     1.029   .     S
N45    N46     1.292   .     D
N46    H48     1.029   .     S
N49    O50     1.300   .     A
N49    O51     1.302   .     A
N49    C128    1.436   1_455 S
N52    O54     1.301   .     A
N52    O53     1.301   .     A
O55    Zn67    1.950   .     S
O55    C113    1.275   .     S
O56    Zn68    1.950   .     S
O57    Zn68    1.978   .     S
O57    C59     1.289   .     A
O58    C60     1.289   .     A
O58    Zn67    1.978   .     S
C59    C95     1.402   .     S
C60    C96     1.402   .     S
C60    O110    1.275   .     S
O61    Zn67    1.954   .     S
O61    C119    1.289   .     S
O62    Zn68    1.954   .     S
O63    Zn68    1.899   .     S
O63    C65     1.305   .     A
O64    C66     1.303   .     A
O64    Zn67    1.899   .     S
C65    C69     1.464   .     S
C66    C70     1.458   .     S
C66    O116    1.287   .     S
Zn67   N100    2.017   .     S
Zn68   N99     2.017   .     S
C69    C75     1.391   .     A
C70    C74     1.416   .     A
C70    C76     1.388   .     A
C71    C79     1.399   .     A
C71    H523    1.085   .     S
C72    C80     1.400   .     A
C72    H92     1.085   .     S
C72    C74     1.397   .     A
C73    N106    1.434   .     S
C73    C123    1.416   .     S
C73    C125    1.397   .     S
C74    N157    1.436   .     S
C75    H90     1.077   .     S
C75    C77     1.395   .     A
C76    H89     1.078   .     S
C76    C78     1.395   .     A
C77    C81     1.416   .     A
C77    C79     1.415   .     A
C78    C80     1.417   .     A
C78    C82     1.418   .     A
C79    C571    1.389   .     S
C80    C572    1.389   1_554 S
C81    C84     1.417   .     A
C81    C568    1.417   .     S
C82    C83     1.418   .     A
C82    C567    1.417   1_554 S
C83    H93     1.077   .     S
C83    C85     1.386   .     A
C84    H94     1.078   .     S
C84    C86     1.384   .     A
C85    H87     1.084   .     S
C85    C565    1.389   1_554 S
C86    H88     1.084   .     S
C86    C566    1.389   .     S
H91    C611    1.085   1_554 S
C95    C204    1.340   .     S
C95    H259    1.088   .     S
C96    C473    1.340   1_545 S
C96    H422    1.088   1_545 S
H97    C419    1.088   1_545 S
H98    C258    1.088   .     S
N99    H101    1.029   .     S
N99    N100    1.292   .     D
N100   H102    1.029   .     S
N103   O104    1.300   .     A
N103   O105    1.302   .     A
N106   O108    1.301   .     A
N106   O107    1.301   .     A
O109   Zn121   1.950   .     S
O109   C5      1.275   1_655 S
O110   Zn122   1.950   .     S
O111   Zn122   1.978   .     S
O111   C113    1.289   .     A
O112   C114    1.289   .     A
O112   Zn121   1.978   .     S
C113   C149    1.402   .     S
C114   C150    1.402   .     S
C114   O2      1.275   1_655 S
O115   Zn121   1.954   .     S
O115   C11     1.289   1_655 S
O116   Zn122   1.954   .     S
O117   Zn122   1.899   .     S
O117   C119    1.305   .     A
O118   C120    1.303   .     A
O118   Zn121   1.899   .     S
C119   C123    1.464   .     S
C120   C124    1.458   .     S
C120   O8      1.287   1_655 S
Zn121  N154    2.017   .     S
Zn122  N153    2.017   .     S
C123   C129    1.391   .     A
C124   C128    1.416   .     A
C124   C130    1.388   .     A
C125   C133    1.399   .     A
C125   H577    1.085   .     S
C126   C134    1.400   .     A
C126   H146    1.085   .     S
C126   C128    1.397   .     A
C127   N160    1.434   .     S
C127   C15     1.416   1_655 S
C127   C17     1.397   1_655 S
C128   N49     1.436   1_655 S
C129   H144    1.077   .     S
C129   C131    1.395   .     A
C130   H143    1.078   .     S
C130   C132    1.395   .     A
C131   C135    1.416   .     A
C131   C133    1.415   .     A
C132   C134    1.417   .     A
C132   C136    1.418   .     A
C133   C625    1.389   .     S
C134   C626    1.389   1_554 S
C135   C138    1.417   .     A
C135   C622    1.417   .     S
C136   C137    1.418   .     A
C136   C621    1.417   1_554 S
C137   H147    1.077   .     S
C137   C139    1.386   .     A
C138   H148    1.078   .     S
C138   C140    1.384   .     A
C139   H141    1.084   .     S
C139   C619    1.389   1_554 S
C140   H142    1.084   .     S
C140   C620    1.389   .     S
H145   C503    1.085   1_654 S
C149   C258    1.340   .     S
C149   H313    1.088   .     S
C150   C365    1.340   1_645 S
C150   H476    1.088   1_545 S
H151   C473    1.088   1_545 S
H152   C312    1.088   .     S
N153   H155    1.029   .     S
N153   N154    1.292   .     D
N154   H156    1.029   .     S
N157   O158    1.300   .     A
N157   O159    1.302   .     A
N160   O162    1.301   .     A
N160   O161    1.301   .     A
O163   Zn175   1.950   .     S
O163   C221    1.275   .     S
O164   Zn176   1.950   .     S
O164   C276    1.275   1_455 S
O165   Zn176   1.978   .     S
O165   C167    1.289   .     A
O166   C168    1.289   .     A
O166   Zn175   1.978   .     S
C167   C203    1.402   .     S
C167   O271    1.275   1_455 S
C168   C204    1.402   .     S
C168   O218    1.275   .     S
O169   Zn175   1.954   .     S
O169   C227    1.289   .     S
O170   Zn176   1.954   .     S
O170   C282    1.287   1_455 S
O171   Zn176   1.899   .     S
O171   C173    1.305   .     A
O172   C174    1.303   .     A
O172   Zn175   1.899   .     S
C173   C177    1.464   .     S
C173   O277    1.289   1_455 S
C174   C178    1.458   .     S
C174   O224    1.287   .     S
Zn175  N208    2.017   .     S
Zn176  N207    2.017   .     S
C177   C183    1.391   .     A
C177   C289    1.416   1_455 S
C178   C182    1.416   .     A
C178   C184    1.388   .     A
C179   C187    1.399   .     A
C179   C289    1.397   1_455 S
C179   H793    1.085   1_455 S
C180   C188    1.400   .     A
C180   H200    1.085   .     S
C180   C182    1.397   .     A
C181   N214    1.434   .     S
C181   C231    1.416   .     S
C181   C233    1.397   .     S
C182   N265    1.436   .     S
C183   H198    1.077   .     S
C183   C185    1.395   .     A
C184   H197    1.078   .     S
C184   C186    1.395   .     A
C185   C189    1.416   .     A
C185   C187    1.415   .     A
C186   C188    1.417   .     A
C186   C190    1.418   .     A
C187   C679    1.389   .     S
C188   C680    1.389   1_554 S
C189   C192    1.417   .     A
C189   C676    1.417   .     S
C190   C191    1.418   .     A
C190   C675    1.417   1_554 S
C191   H201    1.077   .     S
C191   C193    1.386   .     A
C192   H202    1.078   .     S
C192   C194    1.384   .     A
C193   H195    1.084   .     S
C193   C673    1.389   1_554 S
C194   H196    1.084   .     S
C194   C674    1.389   .     S
H199   C719    1.085   1_554 S
C203   C474    1.340   1_455 S
C203   H367    1.088   .     S
H206   C366    1.088   .     S
N207   H209    1.029   .     S
N207   N208    1.292   .     D
N208   H210    1.029   .     S
N211   O212    1.300   .     A
N211   O213    1.302   .     A
N211   C290    1.436   1_455 S
N214   O216    1.301   .     A
N214   O215    1.301   .     A
O217   Zn229   1.950   .     S
O217   C275    1.275   .     S
O218   Zn230   1.950   .     S
O219   Zn230   1.978   .     S
O219   C221    1.289   .     A
O220   C222    1.289   .     A
O220   Zn229   1.978   .     S
C221   C257    1.402   .     S
C222   C258    1.402   .     S
C222   O272    1.275   .     S
O223   Zn229   1.954   .     S
O223   C281    1.289   .     S
O224   Zn230   1.954   .     S
O225   Zn230   1.899   .     S
O225   C227    1.305   .     A
O226   C228    1.303   .     A
O226   Zn229   1.899   .     S
C227   C231    1.464   .     S
C228   C232    1.458   .     S
C228   O278    1.287   .     S
Zn229  N262    2.017   .     S
Zn230  N261    2.017   .     S
C231   C237    1.391   .     A
C232   C236    1.416   .     A
C232   C238    1.388   .     A
C233   C241    1.399   .     A
C233   H685    1.085   .     S
C234   C242    1.400   .     A
C234   H254    1.085   .     S
C234   C236    1.397   .     A
C235   N268    1.434   .     S
C235   C285    1.416   .     S
C235   C287    1.397   .     S
C236   N319    1.436   .     S
C237   H252    1.077   .     S
C237   C239    1.395   .     A
C238   H251    1.078   .     S
C238   C240    1.395   .     A
C239   C243    1.416   .     A
C239   C241    1.415   .     A
C240   C242    1.417   .     A
C240   C244    1.418   .     A
C241   C733    1.389   .     S
C242   C734    1.389   1_554 S
C243   C246    1.417   .     A
C243   C730    1.417   .     S
C244   C245    1.418   .     A
C244   C729    1.417   1_554 S
C245   H255    1.077   .     S
C245   C247    1.386   .     A
C246   H256    1.078   .     S
C246   C248    1.384   .     A
C247   H249    1.084   .     S
C247   C727    1.389   1_554 S
C248   H250    1.084   .     S
C248   C728    1.389   .     S
H253   C773    1.085   1_554 S
C257   C366    1.340   .     S
C257   H421    1.088   .     S
H260   C420    1.088   .     S
N261   H263    1.029   .     S
N261   N262    1.292   .     D
N262   H264    1.029   .     S
N265   O266    1.300   .     A
N265   O267    1.302   .     A
N268   O270    1.301   .     A
N268   O269    1.301   .     A
O271   Zn283   1.950   .     S
O271   C167    1.275   1_655 S
O272   Zn284   1.950   .     S
O273   Zn284   1.978   .     S
O273   C275    1.289   .     A
O274   C276    1.289   .     A
O274   Zn283   1.978   .     S
C275   C311    1.402   .     S
C276   C312    1.402   .     S
C276   O164    1.275   1_655 S
O277   Zn283   1.954   .     S
O277   C173    1.289   1_655 S
O278   Zn284   1.954   .     S
O279   Zn284   1.899   .     S
O279   C281    1.305   .     A
O280   C282    1.303   .     A
O280   Zn283   1.899   .     S
C281   C285    1.464   .     S
C282   C286    1.458   .     S
C282   O170    1.287   1_655 S
Zn283  N316    2.017   .     S
Zn284  N315    2.017   .     S
C285   C291    1.391   .     A
C286   C290    1.416   .     A
C286   C292    1.388   .     A
C287   C295    1.399   .     A
C287   H739    1.085   .     S
C288   C296    1.400   .     A
C288   H308    1.085   .     S
C288   C290    1.397   .     A
C289   N322    1.434   .     S
C289   C177    1.416   1_655 S
C289   C179    1.397   1_655 S
C290   N211    1.436   1_655 S
C291   H306    1.077   .     S
C291   C293    1.395   .     A
C292   H305    1.078   .     S
C292   C294    1.395   .     A
C293   C297    1.416   .     A
C293   C295    1.415   .     A
C294   C296    1.417   .     A
C294   C298    1.418   .     A
C295   C787    1.389   .     S
C296   C788    1.389   1_554 S
C297   C300    1.417   .     A
C297   C784    1.417   .     S
C298   C299    1.418   .     A
C298   C783    1.417   1_554 S
C299   H309    1.077   .     S
C299   C301    1.386   .     A
C300   H310    1.078   .     S
C300   C302    1.384   .     A
C301   H303    1.084   .     S
C301   C781    1.389   1_554 S
C302   H304    1.084   .     S
C302   C782    1.389   .     S
H307   C665    1.085   1_654 S
C311   C420    1.340   .     S
C311   H475    1.088   .     S
C312   C41     1.340   1_655 S
H314   C474    1.088   .     S
N315   H317    1.029   .     S
N315   N316    1.292   .     D
N316   H318    1.029   .     S
N319   O320    1.300   .     A
N319   O321    1.302   .     A
N322   O324    1.301   .     A
N322   O323    1.301   .     A
O325   Zn337   1.950   .     S
O325   C383    1.275   .     S
O326   Zn338   1.950   .     S
O326   C438    1.275   1_455 S
O327   Zn338   1.978   .     S
O327   C329    1.289   .     A
O328   C330    1.289   .     A
O328   Zn337   1.978   .     S
C329   C365    1.402   .     S
C329   O433    1.275   1_455 S
C330   C366    1.402   .     S
C330   O380    1.275   .     S
O331   Zn337   1.954   .     S
O331   C389    1.289   .     S
O332   Zn338   1.954   .     S
O332   C444    1.287   1_455 S
O333   Zn338   1.899   .     S
O333   C335    1.305   .     A
O334   C336    1.303   .     A
O334   Zn337   1.899   .     S
C335   C339    1.464   .     S
C335   O439    1.289   1_455 S
C336   C340    1.458   .     S
C336   O386    1.287   .     S
Zn337  N370    2.017   .     S
Zn338  N369    2.017   .     S
C339   C345    1.391   .     A
C339   C451    1.416   1_455 S
C340   C344    1.416   .     A
C340   C346    1.388   .     A
C341   C349    1.399   .     A
C341   C451    1.397   1_455 S
C341   H955    1.085   1_455 S
C342   C350    1.400   .     A
C342   H362    1.085   .     S
C342   C344    1.397   .     A
C343   N376    1.434   .     S
C343   C393    1.416   .     S
C343   C395    1.397   .     S
C344   N427    1.436   .     S
C345   H360    1.077   .     S
C345   C347    1.395   .     A
C346   H359    1.078   .     S
C346   C348    1.395   .     A
C347   C351    1.416   .     A
C347   C349    1.415   .     A
C348   C350    1.417   .     A
C348   C352    1.418   .     A
C349   C841    1.389   .     S
C350   C842    1.389   1_554 S
C351   C354    1.417   .     A
C351   C838    1.417   .     S
C352   C353    1.418   .     A
C352   C837    1.417   1_554 S
C353   H363    1.077   .     S
C353   C355    1.386   .     A
C354   H364    1.078   .     S
C354   C356    1.384   .     A
C355   H357    1.084   .     S
C355   C835    1.389   1_554 S
C356   H358    1.084   .     S
C356   C836    1.389   .     S
H361   C881    1.085   1_554 S
C365   C150    1.340   1_465 S
C365   H43     1.088   1_565 S
H368   C42     1.088   1_565 S
N369   H371    1.029   .     S
N369   N370    1.292   .     D
N370   H372    1.029   .     S
N373   O374    1.300   .     A
N373   O375    1.302   .     A
N373   C452    1.436   1_455 S
N376   O378    1.301   .     A
N376   O377    1.301   .     A
O379   Zn391   1.950   .     S
O379   C437    1.275   .     S
O380   Zn392   1.950   .     S
O381   Zn392   1.978   .     S
O381   C383    1.289   .     A
O382   C384    1.289   .     A
O382   Zn391   1.978   .     S
C383   C419    1.402   .     S
C384   C420    1.402   .     S
C384   O434    1.275   .     S
O385   Zn391   1.954   .     S
O385   C443    1.289   .     S
O386   Zn392   1.954   .     S
O387   Zn392   1.899   .     S
O387   C389    1.305   .     A
O388   C390    1.303   .     A
O388   Zn391   1.899   .     S
C389   C393    1.464   .     S
C390   C394    1.458   .     S
C390   O440    1.287   .     S
Zn391  N424    2.017   .     S
Zn392  N423    2.017   .     S
C393   C399    1.391   .     A
C394   C398    1.416   .     A
C394   C400    1.388   .     A
C395   C403    1.399   .     A
C395   H847    1.085   .     S
C396   C404    1.400   .     A
C396   H416    1.085   .     S
C396   C398    1.397   .     A
C397   N430    1.434   .     S
C397   C447    1.416   .     S
C397   C449    1.397   .     S
C398   N481    1.436   .     S
C399   H414    1.077   .     S
C399   C401    1.395   .     A
C400   H413    1.078   .     S
C400   C402    1.395   .     A
C401   C405    1.416   .     A
C401   C403    1.415   .     A
C402   C404    1.417   .     A
C402   C406    1.418   .     A
C403   C895    1.389   .     S
C404   C896    1.389   1_554 S
C405   C408    1.417   .     A
C405   C892    1.417   .     S
C406   C407    1.418   .     A
C406   C891    1.417   1_554 S
C407   H417    1.077   .     S
C407   C409    1.386   .     A
C408   H418    1.078   .     S
C408   C410    1.384   .     A
C409   H411    1.084   .     S
C409   C889    1.389   1_554 S
C410   H412    1.084   .     S
C410   C890    1.389   .     S
H415   C935    1.085   1_554 S
C419   C42     1.340   1_565 S
C419   H97     1.088   1_565 S
H422   C96     1.088   1_565 S
N423   H425    1.029   .     S
N423   N424    1.292   .     D
N424   H426    1.029   .     S
N427   O428    1.300   .     A
N427   O429    1.302   .     A
N430   O432    1.301   .     A
N430   O431    1.301   .     A
O433   Zn445   1.950   .     S
O433   C329    1.275   1_655 S
O434   Zn446   1.950   .     S
O435   Zn446   1.978   .     S
O435   C437    1.289   .     A
O436   C438    1.289   .     A
O436   Zn445   1.978   .     S
C437   C473    1.402   .     S
C438   C474    1.402   .     S
C438   O326    1.275   1_655 S
O439   Zn445   1.954   .     S
O439   C335    1.289   1_655 S
O440   Zn446   1.954   .     S
O441   Zn446   1.899   .     S
O441   C443    1.305   .     A
O442   C444    1.303   .     A
O442   Zn445   1.899   .     S
C443   C447    1.464   .     S
C444   C448    1.458   .     S
C444   O332    1.287   1_655 S
Zn445  N478    2.017   .     S
Zn446  N477    2.017   .     S
C447   C453    1.391   .     A
C448   C452    1.416   .     A
C448   C454    1.388   .     A
C449   C457    1.399   .     A
C449   H901    1.085   .     S
C450   C458    1.400   .     A
C450   H470    1.085   .     S
C450   C452    1.397   .     A
C451   N484    1.434   .     S
C451   C339    1.416   1_655 S
C451   C341    1.397   1_655 S
C452   N373    1.436   1_655 S
C453   H468    1.077   .     S
C453   C455    1.395   .     A
C454   H467    1.078   .     S
C454   C456    1.395   .     A
C455   C459    1.416   .     A
C455   C457    1.415   .     A
C456   C458    1.417   .     A
C456   C460    1.418   .     A
C457   C949    1.389   .     S
C458   C950    1.389   1_554 S
C459   C462    1.417   .     A
C459   C946    1.417   .     S
C460   C461    1.418   .     A
C460   C945    1.417   1_554 S
C461   H471    1.077   .     S
C461   C463    1.386   .     A
C462   H472    1.078   .     S
C462   C464    1.384   .     A
C463   H465    1.084   .     S
C463   C943    1.389   1_554 S
C464   H466    1.084   .     S
C464   C944    1.389   .     S
H469   C827    1.085   1_654 S
C473   C96     1.340   1_565 S
C473   H151    1.088   1_565 S
C474   C203    1.340   1_655 S
H476   C150    1.088   1_565 S
N477   H479    1.029   .     S
N477   N478    1.292   .     D
N478   H480    1.029   .     S
N481   O482    1.300   .     A
N481   O483    1.302   .     A
N484   O486    1.301   .     A
N484   O485    1.301   .     A
O487   Zn499   1.950   .     S
O487   C545    1.275   .     S
O488   Zn500   1.950   .     S
O488   C600    1.275   1_455 S
O489   Zn500   1.978   .     S
O489   C491    1.289   .     A
O490   C492    1.289   .     A
O490   Zn499   1.978   .     S
C491   C527    1.402   .     S
C491   O595    1.275   1_455 S
C492   C528    1.402   .     S
C492   O542    1.275   .     S
O493   Zn499   1.954   .     S
O493   C551    1.289   .     S
O494   Zn500   1.954   .     S
O494   C606    1.287   1_455 S
O495   Zn500   1.899   .     S
O495   C497    1.305   .     A
O496   C498    1.303   .     A
O496   Zn499   1.899   .     S
C497   C501    1.464   .     S
C497   O601    1.289   1_455 S
C498   C502    1.458   .     S
C498   O548    1.287   .     S
Zn499  N532    2.017   .     S
Zn500  N531    2.017   .     S
C501   C507    1.391   .     A
C501   C613    1.416   1_455 S
C502   C506    1.416   .     A
C502   C508    1.388   .     A
C503   C511    1.399   .     A
C503   C613    1.397   1_455 S
C503   H145    1.085   1_456 S
C504   C512    1.400   .     A
C504   H524    1.085   .     S
C504   C506    1.397   .     A
C505   N538    1.434   .     S
C505   C555    1.416   .     S
C505   C557    1.397   .     S
C506   N589    1.436   .     S
C507   H522    1.077   .     S
C507   C509    1.395   .     A
C508   H521    1.078   .     S
C508   C510    1.395   .     A
C509   C513    1.416   .     A
C509   C511    1.415   .     A
C510   C512    1.417   .     A
C510   C514    1.418   .     A
C511   C31     1.389   1_556 S
C513   C516    1.417   .     A
C513   C28     1.417   1_556 S
C514   C515    1.418   .     A
C515   H525    1.077   .     S
C515   C517    1.386   .     A
C516   H526    1.078   .     S
C516   C518    1.384   .     A
C517   H519    1.084   .     S
C518   H520    1.084   .     S
C518   C26     1.389   1_556 S
C527   C798    1.340   1_455 S
C527   H691    1.088   .     S
C528   C905    1.340   1_545 S
C528   H854    1.088   1_545 S
H529   C851    1.088   1_545 S
H530   C690    1.088   .     S
N531   H533    1.029   .     S
N531   N532    1.292   .     D
N532   H534    1.029   .     S
N535   O536    1.300   .     A
N535   O537    1.302   .     A
N535   C614    1.436   1_455 S
N538   O540    1.301   .     A
N538   O539    1.301   .     A
O541   Zn553   1.950   .     S
O541   C599    1.275   .     S
O542   Zn554   1.950   .     S
O543   Zn554   1.978   .     S
O543   C545    1.289   .     A
O544   C546    1.289   .     A
O544   Zn553   1.978   .     S
C545   C581    1.402   .     S
C546   C582    1.402   .     S
C546   O596    1.275   .     S
O547   Zn553   1.954   .     S
O547   C605    1.289   .     S
O548   Zn554   1.954   .     S
O549   Zn554   1.899   .     S
O549   C551    1.305   .     A
O550   C552    1.303   .     A
O550   Zn553   1.899   .     S
C551   C555    1.464   .     S
C552   C556    1.458   .     S
C552   O602    1.287   .     S
Zn553  N586    2.017   .     S
Zn554  N585    2.017   .     S
C555   C561    1.391   .     A
C556   C560    1.416   .     A
C556   C562    1.388   .     A
C557   C565    1.399   .     A
C557   H37     1.085   1_556 S
C558   C566    1.400   .     A
C558   H578    1.085   .     S
C558   C560    1.397   .     A
C559   N592    1.434   .     S
C559   C609    1.416   .     S
C559   C611    1.397   .     S
C560   N643    1.436   .     S
C561   H576    1.077   .     S
C561   C563    1.395   .     A
C562   H575    1.078   .     S
C562   C564    1.395   .     A
C563   C567    1.416   .     A
C563   C565    1.415   .     A
C564   C566    1.417   .     A
C564   C568    1.418   .     A
C565   C85     1.389   1_556 S
C567   C570    1.417   .     A
C567   C82     1.417   1_556 S
C568   C569    1.418   .     A
C569   H579    1.077   .     S
C569   C571    1.386   .     A
C570   H580    1.078   .     S
C570   C572    1.384   .     A
C571   H573    1.084   .     S
C572   H574    1.084   .     S
C572   C80     1.389   1_556 S
C581   C690    1.340   .     S
C581   H745    1.088   .     S
C582   C959    1.340   1_545 S
C582   H908    1.088   1_545 S
H583   C905    1.088   1_545 S
H584   C744    1.088   .     S
N585   H587    1.029   .     S
N585   N586    1.292   .     D
N586   H588    1.029   .     S
N589   O590    1.300   .     A
N589   O591    1.302   .     A
N592   O594    1.301   .     A
N592   O593    1.301   .     A
O595   Zn607   1.950   .     S
O595   C491    1.275   1_655 S
O596   Zn608   1.950   .     S
O597   Zn608   1.978   .     S
O597   C599    1.289   .     A
O598   C600    1.289   .     A
O598   Zn607   1.978   .     S
C599   C635    1.402   .     S
C600   C636    1.402   .     S
C600   O488    1.275   1_655 S
O601   Zn607   1.954   .     S
O601   C497    1.289   1_655 S
O602   Zn608   1.954   .     S
O603   Zn608   1.899   .     S
O603   C605    1.305   .     A
O604   C606    1.303   .     A
O604   Zn607   1.899   .     S
C605   C609    1.464   .     S
C606   C610    1.458   .     S
C606   O494    1.287   1_655 S
Zn607  N640    2.017   .     S
Zn608  N639    2.017   .     S
C609   C615    1.391   .     A
C610   C614    1.416   .     A
C610   C616    1.388   .     A
C611   C619    1.399   .     A
C611   H91     1.085   1_556 S
C612   C620    1.400   .     A
C612   H632    1.085   .     S
C612   C614    1.397   .     A
C613   N646    1.434   .     S
C613   C501    1.416   1_655 S
C613   C503    1.397   1_655 S
C614   N535    1.436   1_655 S
C615   H630    1.077   .     S
C615   C617    1.395   .     A
C616   H629    1.078   .     S
C616   C618    1.395   .     A
C617   C621    1.416   .     A
C617   C619    1.415   .     A
C618   C620    1.417   .     A
C618   C622    1.418   .     A
C619   C139    1.389   1_556 S
C621   C624    1.417   .     A
C621   C136    1.417   1_556 S
C622   C623    1.418   .     A
C623   H633    1.077   .     S
C623   C625    1.386   .     A
C624   H634    1.078   .     S
C624   C626    1.384   .     A
C625   H627    1.084   .     S
C626   H628    1.084   .     S
C626   C134    1.389   1_556 S
H631   C17     1.085   1_655 S
C635   C744    1.340   .     S
C635   H799    1.088   .     S
C636   C851    1.340   1_645 S
C636   H962    1.088   1_545 S
H637   C959    1.088   1_545 S
H638   C798    1.088   .     S
N639   H641    1.029   .     S
N639   N640    1.292   .     D
N640   H642    1.029   .     S
N643   O644    1.300   .     A
N643   O645    1.302   .     A
N646   O648    1.301   .     A
N646   O647    1.301   .     A
O649   Zn661   1.950   .     S
O649   C707    1.275   .     S
O650   Zn662   1.950   .     S
O650   C762    1.275   1_455 S
O651   Zn662   1.978   .     S
O651   C653    1.289   .     A
O652   C654    1.289   .     A
O652   Zn661   1.978   .     S
C653   C689    1.402   .     S
C653   O757    1.275   1_455 S
C654   C690    1.402   .     S
C654   O704    1.275   .     S
O655   Zn661   1.954   .     S
O655   C713    1.289   .     S
O656   Zn662   1.954   .     S
O656   C768    1.287   1_455 S
O657   Zn662   1.899   .     S
O657   C659    1.305   .     A
O658   C660    1.303   .     A
O658   Zn661   1.899   .     S
C659   C663    1.464   .     S
C659   O763    1.289   1_455 S
C660   C664    1.458   .     S
C660   O710    1.287   .     S
Zn661  N694    2.017   .     S
Zn662  N693    2.017   .     S
C663   C669    1.391   .     A
C663   C775    1.416   1_455 S
C664   C668    1.416   .     A
C664   C670    1.388   .     A
C665   C673    1.399   .     A
C665   C775    1.397   1_455 S
C665   H307    1.085   1_456 S
C666   C674    1.400   .     A
C666   H686    1.085   .     S
C666   C668    1.397   .     A
C667   N700    1.434   .     S
C667   C717    1.416   .     S
C667   C719    1.397   .     S
C668   N751    1.436   .     S
C669   H684    1.077   .     S
C669   C671    1.395   .     A
C670   H683    1.078   .     S
C670   C672    1.395   .     A
C671   C675    1.416   .     A
C671   C673    1.415   .     A
C672   C674    1.417   .     A
C672   C676    1.418   .     A
C673   C193    1.389   1_556 S
C675   C678    1.417   .     A
C675   C190    1.417   1_556 S
C676   C677    1.418   .     A
C677   H687    1.077   .     S
C677   C679    1.386   .     A
C678   H688    1.078   .     S
C678   C680    1.384   .     A
C679   H681    1.084   .     S
C680   H682    1.084   .     S
C680   C188    1.389   1_556 S
C689   C960    1.340   1_455 S
C689   H853    1.088   .     S
H692   C852    1.088   .     S
N693   H695    1.029   .     S
N693   N694    1.292   .     D
N694   H696    1.029   .     S
N697   O698    1.300   .     A
N697   O699    1.302   .     A
N697   C776    1.436   1_455 S
N700   O702    1.301   .     A
N700   O701    1.301   .     A
O703   Zn715   1.950   .     S
O703   C761    1.275   .     S
O704   Zn716   1.950   .     S
O705   Zn716   1.978   .     S
O705   C707    1.289   .     A
O706   C708    1.289   .     A
O706   Zn715   1.978   .     S
C707   C743    1.402   .     S
C708   C744    1.402   .     S
C708   O758    1.275   .     S
O709   Zn715   1.954   .     S
O709   C767    1.289   .     S
O710   Zn716   1.954   .     S
O711   Zn716   1.899   .     S
O711   C713    1.305   .     A
O712   C714    1.303   .     A
O712   Zn715   1.899   .     S
C713   C717    1.464   .     S
C714   C718    1.458   .     S
C714   O764    1.287   .     S
Zn715  N748    2.017   .     S
Zn716  N747    2.017   .     S
C717   C723    1.391   .     A
C718   C722    1.416   .     A
C718   C724    1.388   .     A
C719   C727    1.399   .     A
C719   H199    1.085   1_556 S
C720   C728    1.400   .     A
C720   H740    1.085   .     S
C720   C722    1.397   .     A
C721   N754    1.434   .     S
C721   C771    1.416   .     S
C721   C773    1.397   .     S
C722   N805    1.436   .     S
C723   H738    1.077   .     S
C723   C725    1.395   .     A
C724   H737    1.078   .     S
C724   C726    1.395   .     A
C725   C729    1.416   .     A
C725   C727    1.415   .     A
C726   C728    1.417   .     A
C726   C730    1.418   .     A
C727   C247    1.389   1_556 S
C729   C732    1.417   .     A
C729   C244    1.417   1_556 S
C730   C731    1.418   .     A
C731   H741    1.077   .     S
C731   C733    1.386   .     A
C732   H742    1.078   .     S
C732   C734    1.384   .     A
C733   H735    1.084   .     S
C734   H736    1.084   .     S
C734   C242    1.389   1_556 S
C743   C852    1.340   .     S
C743   H907    1.088   .     S
H746   C906    1.088   .     S
N747   H749    1.029   .     S
N747   N748    1.292   .     D
N748   H750    1.029   .     S
N751   O752    1.300   .     A
N751   O753    1.302   .     A
N754   O756    1.301   .     A
N754   O755    1.301   .     A
O757   Zn769   1.950   .     S
O757   C653    1.275   1_655 S
O758   Zn770   1.950   .     S
O759   Zn770   1.978   .     S
O759   C761    1.289   .     A
O760   C762    1.289   .     A
O760   Zn769   1.978   .     S
C761   C797    1.402   .     S
C762   C798    1.402   .     S
C762   O650    1.275   1_655 S
O763   Zn769   1.954   .     S
O763   C659    1.289   1_655 S
O764   Zn770   1.954   .     S
O765   Zn770   1.899   .     S
O765   C767    1.305   .     A
O766   C768    1.303   .     A
O766   Zn769   1.899   .     S
C767   C771    1.464   .     S
C768   C772    1.458   .     S
C768   O656    1.287   1_655 S
Zn769  N802    2.017   .     S
Zn770  N801    2.017   .     S
C771   C777    1.391   .     A
C772   C776    1.416   .     A
C772   C778    1.388   .     A
C773   C781    1.399   .     A
C773   H253    1.085   1_556 S
C774   C782    1.400   .     A
C774   H794    1.085   .     S
C774   C776    1.397   .     A
C775   N808    1.434   .     S
C775   C663    1.416   1_655 S
C775   C665    1.397   1_655 S
C776   N697    1.436   1_655 S
C777   H792    1.077   .     S
C777   C779    1.395   .     A
C778   H791    1.078   .     S
C778   C780    1.395   .     A
C779   C783    1.416   .     A
C779   C781    1.415   .     A
C780   C782    1.417   .     A
C780   C784    1.418   .     A
C781   C301    1.389   1_556 S
C783   C786    1.417   .     A
C783   C298    1.417   1_556 S
C784   C785    1.418   .     A
C785   H795    1.077   .     S
C785   C787    1.386   .     A
C786   H796    1.078   .     S
C786   C788    1.384   .     A
C787   H789    1.084   .     S
C788   H790    1.084   .     S
C788   C296    1.389   1_556 S
H793   C179    1.085   1_655 S
C797   C906    1.340   .     S
C797   H961    1.088   .     S
C798   C527    1.340   1_655 S
H800   C960    1.088   .     S
N801   H803    1.029   .     S
N801   N802    1.292   .     D
N802   H804    1.029   .     S
N805   O806    1.300   .     A
N805   O807    1.302   .     A
N808   O810    1.301   .     A
N808   O809    1.301   .     A
O811   Zn823   1.950   .     S
O811   C869    1.275   .     S
O812   Zn824   1.950   .     S
O812   C924    1.275   1_455 S
O813   Zn824   1.978   .     S
O813   C815    1.289   .     A
O814   C816    1.289   .     A
O814   Zn823   1.978   .     S
C815   C851    1.402   .     S
C815   O919    1.275   1_455 S
C816   C852    1.402   .     S
C816   O866    1.275   .     S
O817   Zn823   1.954   .     S
O817   C875    1.289   .     S
O818   Zn824   1.954   .     S
O818   C930    1.287   1_455 S
O819   Zn824   1.899   .     S
O819   C821    1.305   .     A
O820   C822    1.303   .     A
O820   Zn823   1.899   .     S
C821   C825    1.464   .     S
C821   O925    1.289   1_455 S
C822   C826    1.458   .     S
C822   O872    1.287   .     S
Zn823  N856    2.017   .     S
Zn824  N855    2.017   .     S
C825   C831    1.391   .     A
C825   C937    1.416   1_455 S
C826   C830    1.416   .     A
C826   C832    1.388   .     A
C827   C835    1.399   .     A
C827   C937    1.397   1_455 S
C827   H469    1.085   1_456 S
C828   C836    1.400   .     A
C828   H848    1.085   .     S
C828   C830    1.397   .     A
C829   N862    1.434   .     S
C829   C879    1.416   .     S
C829   C881    1.397   .     S
C830   N913    1.436   .     S
C831   H846    1.077   .     S
C831   C833    1.395   .     A
C832   H845    1.078   .     S
C832   C834    1.395   .     A
C833   C837    1.416   .     A
C833   C835    1.415   .     A
C834   C836    1.417   .     A
C834   C838    1.418   .     A
C835   C355    1.389   1_556 S
C837   C840    1.417   .     A
C837   C352    1.417   1_556 S
C838   C839    1.418   .     A
C839   H849    1.077   .     S
C839   C841    1.386   .     A
C840   H850    1.078   .     S
C840   C842    1.384   .     A
C841   H843    1.084   .     S
C842   H844    1.084   .     S
C842   C350    1.389   1_556 S
C851   C636    1.340   1_465 S
C851   H529    1.088   1_565 S
H854   C528    1.088   1_565 S
N855   H857    1.029   .     S
N855   N856    1.292   .     D
N856   H858    1.029   .     S
N859   O860    1.300   .     A
N859   O861    1.302   .     A
N859   C938    1.436   1_455 S
N862   O864    1.301   .     A
N862   O863    1.301   .     A
O865   Zn877   1.950   .     S
O865   C923    1.275   .     S
O866   Zn878   1.950   .     S
O867   Zn878   1.978   .     S
O867   C869    1.289   .     A
O868   C870    1.289   .     A
O868   Zn877   1.978   .     S
C869   C905    1.402   .     S
C870   C906    1.402   .     S
C870   O920    1.275   .     S
O871   Zn877   1.954   .     S
O871   C929    1.289   .     S
O872   Zn878   1.954   .     S
O873   Zn878   1.899   .     S
O873   C875    1.305   .     A
O874   C876    1.303   .     A
O874   Zn877   1.899   .     S
C875   C879    1.464   .     S
C876   C880    1.458   .     S
C876   O926    1.287   .     S
Zn877  N910    2.017   .     S
Zn878  N909    2.017   .     S
C879   C885    1.391   .     A
C880   C884    1.416   .     A
C880   C886    1.388   .     A
C881   C889    1.399   .     A
C881   H361    1.085   1_556 S
C882   C890    1.400   .     A
C882   H902    1.085   .     S
C882   C884    1.397   .     A
C883   N916    1.434   .     S
C883   C933    1.416   .     S
C883   C935    1.397   .     S
C884   N967    1.436   .     S
C885   H900    1.077   .     S
C885   C887    1.395   .     A
C886   H899    1.078   .     S
C886   C888    1.395   .     A
C887   C891    1.416   .     A
C887   C889    1.415   .     A
C888   C890    1.417   .     A
C888   C892    1.418   .     A
C889   C409    1.389   1_556 S
C891   C894    1.417   .     A
C891   C406    1.417   1_556 S
C892   C893    1.418   .     A
C893   H903    1.077   .     S
C893   C895    1.386   .     A
C894   H904    1.078   .     S
C894   C896    1.384   .     A
C895   H897    1.084   .     S
C896   H898    1.084   .     S
C896   C404    1.389   1_556 S
C905   C528    1.340   1_565 S
C905   H583    1.088   1_565 S
H908   C582    1.088   1_565 S
N909   H911    1.029   .     S
N909   N910    1.292   .     D
N910   H912    1.029   .     S
N913   O914    1.300   .     A
N913   O915    1.302   .     A
N916   O918    1.301   .     A
N916   O917    1.301   .     A
O919   Zn931   1.950   .     S
O919   C815    1.275   1_655 S
O920   Zn932   1.950   .     S
O921   Zn932   1.978   .     S
O921   C923    1.289   .     A
O922   C924    1.289   .     A
O922   Zn931   1.978   .     S
C923   C959    1.402   .     S
C924   C960    1.402   .     S
C924   O812    1.275   1_655 S
O925   Zn931   1.954   .     S
O925   C821    1.289   1_655 S
O926   Zn932   1.954   .     S
O927   Zn932   1.899   .     S
O927   C929    1.305   .     A
O928   C930    1.303   .     A
O928   Zn931   1.899   .     S
C929   C933    1.464   .     S
C930   C934    1.458   .     S
C930   O818    1.287   1_655 S
Zn931  N964    2.017   .     S
Zn932  N963    2.017   .     S
C933   C939    1.391   .     A
C934   C938    1.416   .     A
C934   C940    1.388   .     A
C935   C943    1.399   .     A
C935   H415    1.085   1_556 S
C936   C944    1.400   .     A
C936   H956    1.085   .     S
C936   C938    1.397   .     A
C937   N970    1.434   .     S
C937   C825    1.416   1_655 S
C937   C827    1.397   1_655 S
C938   N859    1.436   1_655 S
C939   H954    1.077   .     S
C939   C941    1.395   .     A
C940   H953    1.078   .     S
C940   C942    1.395   .     A
C941   C945    1.416   .     A
C941   C943    1.415   .     A
C942   C944    1.417   .     A
C942   C946    1.418   .     A
C943   C463    1.389   1_556 S
C945   C948    1.417   .     A
C945   C460    1.417   1_556 S
C946   C947    1.418   .     A
C947   H957    1.077   .     S
C947   C949    1.386   .     A
C948   H958    1.078   .     S
C948   C950    1.384   .     A
C949   H951    1.084   .     S
C950   H952    1.084   .     S
C950   C458    1.389   1_556 S
H955   C341    1.085   1_655 S
C959   C582    1.340   1_565 S
C959   H637    1.088   1_565 S
C960   C689    1.340   1_655 S
H962   C636    1.088   1_565 S
N963   H965    1.029   .     S
N963   N964    1.292   .     D
N964   H966    1.029   .     S
N967   O968    1.300   .     A
N967   O969    1.302   .     A
N970   O972    1.301   .     A
N970   O971    1.301   .     A
