data_str_m3_o1_o16_pcu_sym.70
_audit_creation_date              2020-01-03
_audit_creation_method            'Materials Studio'
_symmetry_space_group_name_H-M    'P1'
_symmetry_Int_Tables_number       1
_symmetry_cell_setting            triclinic
loop_
_symmetry_equiv_pos_as_xyz
  x,y,z
_cell_length_a                    29.6849
_cell_length_b                    32.1205
_cell_length_c                    25.9884
_cell_angle_alpha                 91.1686
_cell_angle_beta                  69.9127
_cell_angle_gamma                 89.8210
loop_
_atom_site_label
_atom_site_type_symbol
_atom_site_fract_x
_atom_site_fract_y
_atom_site_fract_z
_atom_site_U_iso_or_equiv
_atom_site_adp_type
_atom_site_occupancy
C1     C     0.16659   0.24662   0.25044   0.00000  Uiso   1.00
C2     C     0.12154   0.16735   0.41239   0.00000  Uiso   1.00
C3     C     0.19679   0.31247   0.27287   0.00000  Uiso   1.00
C4     C     0.13977   0.16714   0.35249   0.00000  Uiso   1.00
C5     C     0.19648   0.02177   0.27293   0.00000  Uiso   1.00
C6     C     0.16697   0.04251   0.24954   0.00000  Uiso   1.00
C7     C     0.13765   0.02067   0.22627   0.00000  Uiso   1.00
C8     C     0.13741   0.31134   0.22717   0.00000  Uiso   1.00
C9     C     0.16685   0.29074   0.25044   0.00000  Uiso   1.00
C10    C     0.32032   0.14046   0.21545   0.00000  Uiso   1.00
C11    C     0.03465   0.14052   0.21577   0.00000  Uiso   1.00
C12    C     0.14214   0.17393   0.49449   0.00000  Uiso   1.00
C13    C     0.01301   0.19274   0.28466   0.00000  Uiso   1.00
C14    C     0.29877   0.19277   0.28421   0.00000  Uiso   1.00
C15    C     0.16680   0.08669   0.24964   0.00000  Uiso   1.00
C16    C     0.19344   0.16882   0.14778   0.00000  Uiso   1.00
C17    C     0.23909   0.23423   0.02263   0.00000  Uiso   1.00
C18    C     0.20974   0.18008   0.09020   0.00000  Uiso   1.00
C19    C     0.08187   0.14288   0.44039   0.00000  Uiso   1.00
C20    C     0.06969   0.13747   0.49654   0.00000  Uiso   1.00
C21    C     0.09976   0.15251   0.02367   0.00000  Uiso   1.00
C22    C     0.14748   0.18747   0.44170   0.00000  Uiso   1.00
C23    C     0.17749   0.18511   0.01720   0.00000  Uiso   1.00
C24    C     0.20784   0.21943   0.49585   0.00000  Uiso   1.00
C25    C     0.20589   0.23806   0.44827   0.00000  Uiso   1.00
C26    C     0.17712   0.22165   0.42069   0.00000  Uiso   1.00
C27    C     0.18491   0.16218   0.05892   0.00000  Uiso   1.00
C28    C     0.23845   0.21554   0.07153   0.00000  Uiso   1.00
F29    F     0.22413   0.04261   0.29692   0.00000  Uiso   1.00
F30    F     0.11010   0.04033   0.20179   0.00000  Uiso   1.00
F31    F     0.06788   0.11412   0.18194   0.00000  Uiso   1.00
F32    F     0.26575   0.21915   0.31810   0.00000  Uiso   1.00
F33    F     0.05526   0.12401   0.41349   0.00000  Uiso   1.00
F34    F     0.08510   0.14958   0.07897   0.00000  Uiso   1.00
F35    F     0.02954   0.11631   0.02432   0.00000  Uiso   1.00
F36    F     0.17467   0.24195   0.37647   0.00000  Uiso   1.00
F37    F     0.22567   0.29274   0.29554   0.00000  Uiso   1.00
H38    H     0.11494   0.29445   0.20888   0.00000  Uiso   1.00
H39    H     0.22705   0.26489   0.43096   0.00000  Uiso   1.00
I40    I     0.28026   0.24158   0.11696   0.00000  Uiso   1.00
I41    I     0.30547   0.09872   0.15933   0.00000  Uiso   1.00
I42    I     0.02761   0.23382   0.34158   0.00000  Uiso   1.00
I43    I     0.28437   0.28676   0.49227   0.00000  Uiso   1.00
I44    I     0.17227   0.09636   0.06713   0.00000  Uiso   1.00
N45    N     0.04760   0.16668   0.25002   0.00000  Uiso   1.00
N46    N     0.28573   0.16665   0.25001   0.00000  Uiso   1.00
O47    O     0.12846   0.22775   0.25001   0.00000  Uiso   1.00
O48    O     0.20490   0.22774   0.25001   0.00000  Uiso   1.00
O49    O     0.10947   0.16666   0.32681   0.00000  Uiso   1.00
O50    O     0.18591   0.16665   0.32681   0.00000  Uiso   1.00
O51    O     0.12843   0.10559   0.25000   0.00000  Uiso   1.00
O52    O     0.20488   0.10558   0.25000   0.00000  Uiso   1.00
O53    O     0.14742   0.16668   0.17319   0.00000  Uiso   1.00
O54    O     0.22387   0.16667   0.17319   0.00000  Uiso   1.00
Zn55   Zn    0.11562   0.16667   0.25000   0.00000  Uiso   1.00
Zn56   Zn    0.21771   0.16666   0.25000   0.00000  Uiso   1.00
C57    C     0.49992   0.24662   0.25044   0.00000  Uiso   1.00
C58    C     0.45488   0.16735   0.41239   0.00000  Uiso   1.00
C59    C     0.53013   0.31247   0.27287   0.00000  Uiso   1.00
C60    C     0.47310   0.16714   0.35249   0.00000  Uiso   1.00
C61    C     0.52981   0.02177   0.27293   0.00000  Uiso   1.00
C62    C     0.50031   0.04251   0.24954   0.00000  Uiso   1.00
C63    C     0.47098   0.02067   0.22627   0.00000  Uiso   1.00
C64    C     0.47075   0.31134   0.22717   0.00000  Uiso   1.00
C65    C     0.50019   0.29074   0.25044   0.00000  Uiso   1.00
C66    C     0.65365   0.14046   0.21545   0.00000  Uiso   1.00
C67    C     0.36798   0.14052   0.21577   0.00000  Uiso   1.00
C68    C     0.47547   0.17393   0.49449   0.00000  Uiso   1.00
C69    C     0.34634   0.19274   0.28466   0.00000  Uiso   1.00
C70    C     0.63211   0.19277   0.28421   0.00000  Uiso   1.00
C71    C     0.50013   0.08669   0.24964   0.00000  Uiso   1.00
C72    C     0.52677   0.16882   0.14778   0.00000  Uiso   1.00
C73    C     0.57243   0.23423   0.02263   0.00000  Uiso   1.00
C74    C     0.54307   0.18008   0.09020   0.00000  Uiso   1.00
C75    C     0.41520   0.14288   0.44039   0.00000  Uiso   1.00
C76    C     0.40302   0.13747   0.49654   0.00000  Uiso   1.00
C77    C     0.43309   0.15251   0.02367   0.00000  Uiso   1.00
C78    C     0.48081   0.18747   0.44170   0.00000  Uiso   1.00
C79    C     0.51083   0.18511   0.01720   0.00000  Uiso   1.00
C80    C     0.54117   0.21943   0.49585   0.00000  Uiso   1.00
C81    C     0.53922   0.23806   0.44827   0.00000  Uiso   1.00
C82    C     0.51046   0.22165   0.42069   0.00000  Uiso   1.00
C83    C     0.51824   0.16218   0.05892   0.00000  Uiso   1.00
C84    C     0.57179   0.21554   0.07153   0.00000  Uiso   1.00
F85    F     0.55746   0.04261   0.29692   0.00000  Uiso   1.00
F86    F     0.44343   0.04033   0.20179   0.00000  Uiso   1.00
F87    F     0.40121   0.11412   0.18194   0.00000  Uiso   1.00
F88    F     0.59908   0.21915   0.31810   0.00000  Uiso   1.00
F89    F     0.38859   0.12401   0.41349   0.00000  Uiso   1.00
F90    F     0.41843   0.14958   0.07897   0.00000  Uiso   1.00
F91    F     0.36288   0.11631   0.02432   0.00000  Uiso   1.00
F92    F     0.50800   0.24195   0.37647   0.00000  Uiso   1.00
F93    F     0.55900   0.29274   0.29554   0.00000  Uiso   1.00
H94    H     0.44827   0.29445   0.20888   0.00000  Uiso   1.00
H95    H     0.56039   0.26489   0.43096   0.00000  Uiso   1.00
I96    I     0.61359   0.24158   0.11696   0.00000  Uiso   1.00
I97    I     0.63881   0.09872   0.15933   0.00000  Uiso   1.00
I98    I     0.36094   0.23382   0.34158   0.00000  Uiso   1.00
I99    I     0.61771   0.28676   0.49227   0.00000  Uiso   1.00
I100   I     0.50560   0.09636   0.06713   0.00000  Uiso   1.00
N101   N     0.38093   0.16668   0.25002   0.00000  Uiso   1.00
N102   N     0.61906   0.16665   0.25001   0.00000  Uiso   1.00
O103   O     0.46179   0.22775   0.25001   0.00000  Uiso   1.00
O104   O     0.53823   0.22774   0.25001   0.00000  Uiso   1.00
O105   O     0.44280   0.16666   0.32681   0.00000  Uiso   1.00
O106   O     0.51924   0.16665   0.32681   0.00000  Uiso   1.00
O107   O     0.46177   0.10559   0.25000   0.00000  Uiso   1.00
O108   O     0.53821   0.10558   0.25000   0.00000  Uiso   1.00
O109   O     0.48076   0.16668   0.17319   0.00000  Uiso   1.00
O110   O     0.55720   0.16667   0.17319   0.00000  Uiso   1.00
Zn111  Zn    0.44896   0.16667   0.25000   0.00000  Uiso   1.00
Zn112  Zn    0.55104   0.16666   0.25000   0.00000  Uiso   1.00
C113   C     0.83325   0.24662   0.25044   0.00000  Uiso   1.00
C114   C     0.78821   0.16735   0.41239   0.00000  Uiso   1.00
C115   C     0.86346   0.31247   0.27287   0.00000  Uiso   1.00
C116   C     0.80644   0.16714   0.35249   0.00000  Uiso   1.00
C117   C     0.86314   0.02177   0.27293   0.00000  Uiso   1.00
C118   C     0.83364   0.04251   0.24954   0.00000  Uiso   1.00
C119   C     0.80431   0.02067   0.22627   0.00000  Uiso   1.00
C120   C     0.80408   0.31134   0.22717   0.00000  Uiso   1.00
C121   C     0.83352   0.29074   0.25044   0.00000  Uiso   1.00
C122   C     0.98699   0.14046   0.21545   0.00000  Uiso   1.00
C123   C     0.70131   0.14052   0.21577   0.00000  Uiso   1.00
C124   C     0.80880   0.17393   0.49449   0.00000  Uiso   1.00
C125   C     0.67967   0.19274   0.28466   0.00000  Uiso   1.00
C126   C     0.96544   0.19277   0.28421   0.00000  Uiso   1.00
C127   C     0.83347   0.08669   0.24964   0.00000  Uiso   1.00
C128   C     0.86010   0.16882   0.14778   0.00000  Uiso   1.00
C129   C     0.90576   0.23423   0.02263   0.00000  Uiso   1.00
C130   C     0.87640   0.18008   0.09020   0.00000  Uiso   1.00
C131   C     0.74853   0.14288   0.44039   0.00000  Uiso   1.00
C132   C     0.73635   0.13747   0.49654   0.00000  Uiso   1.00
C133   C     0.76642   0.15251   0.02367   0.00000  Uiso   1.00
C134   C     0.81414   0.18747   0.44170   0.00000  Uiso   1.00
C135   C     0.84416   0.18511   0.01720   0.00000  Uiso   1.00
C136   C     0.87450   0.21943   0.49585   0.00000  Uiso   1.00
C137   C     0.87256   0.23806   0.44827   0.00000  Uiso   1.00
C138   C     0.84379   0.22165   0.42069   0.00000  Uiso   1.00
C139   C     0.85157   0.16218   0.05892   0.00000  Uiso   1.00
C140   C     0.90512   0.21554   0.07153   0.00000  Uiso   1.00
F141   F     0.89079   0.04261   0.29692   0.00000  Uiso   1.00
F142   F     0.77676   0.04033   0.20179   0.00000  Uiso   1.00
F143   F     0.73454   0.11412   0.18194   0.00000  Uiso   1.00
F144   F     0.93241   0.21915   0.31810   0.00000  Uiso   1.00
F145   F     0.72193   0.12401   0.41349   0.00000  Uiso   1.00
F146   F     0.75176   0.14958   0.07897   0.00000  Uiso   1.00
F147   F     0.69621   0.11631   0.02432   0.00000  Uiso   1.00
F148   F     0.84133   0.24195   0.37647   0.00000  Uiso   1.00
F149   F     0.89234   0.29274   0.29554   0.00000  Uiso   1.00
H150   H     0.78160   0.29445   0.20888   0.00000  Uiso   1.00
H151   H     0.89372   0.26489   0.43096   0.00000  Uiso   1.00
I152   I     0.94693   0.24158   0.11696   0.00000  Uiso   1.00
I153   I     0.97214   0.09872   0.15933   0.00000  Uiso   1.00
I154   I     0.69427   0.23382   0.34158   0.00000  Uiso   1.00
I155   I     0.95104   0.28676   0.49227   0.00000  Uiso   1.00
I156   I     0.83893   0.09636   0.06713   0.00000  Uiso   1.00
N157   N     0.71426   0.16668   0.25002   0.00000  Uiso   1.00
N158   N     0.95239   0.16665   0.25001   0.00000  Uiso   1.00
O159   O     0.79512   0.22775   0.25001   0.00000  Uiso   1.00
O160   O     0.87157   0.22774   0.25001   0.00000  Uiso   1.00
O161   O     0.77613   0.16666   0.32681   0.00000  Uiso   1.00
O162   O     0.85258   0.16665   0.32681   0.00000  Uiso   1.00
O163   O     0.79510   0.10559   0.25000   0.00000  Uiso   1.00
O164   O     0.87154   0.10558   0.25000   0.00000  Uiso   1.00
O165   O     0.81409   0.16668   0.17319   0.00000  Uiso   1.00
O166   O     0.89053   0.16667   0.17319   0.00000  Uiso   1.00
Zn167  Zn    0.78229   0.16667   0.25000   0.00000  Uiso   1.00
Zn168  Zn    0.88438   0.16666   0.25000   0.00000  Uiso   1.00
C169   C     0.16659   0.57995   0.25044   0.00000  Uiso   1.00
C170   C     0.12154   0.50068   0.41239   0.00000  Uiso   1.00
C171   C     0.19679   0.64580   0.27287   0.00000  Uiso   1.00
C172   C     0.13977   0.50047   0.35249   0.00000  Uiso   1.00
C173   C     0.19648   0.35510   0.27293   0.00000  Uiso   1.00
C174   C     0.16697   0.37584   0.24954   0.00000  Uiso   1.00
C175   C     0.13765   0.35400   0.22627   0.00000  Uiso   1.00
C176   C     0.13741   0.64468   0.22717   0.00000  Uiso   1.00
C177   C     0.16685   0.62407   0.25044   0.00000  Uiso   1.00
C178   C     0.32032   0.47379   0.21545   0.00000  Uiso   1.00
C179   C     0.03465   0.47385   0.21577   0.00000  Uiso   1.00
C180   C     0.14214   0.50726   0.49449   0.00000  Uiso   1.00
C181   C     0.01301   0.52608   0.28466   0.00000  Uiso   1.00
C182   C     0.29877   0.52610   0.28421   0.00000  Uiso   1.00
C183   C     0.16680   0.42003   0.24964   0.00000  Uiso   1.00
C184   C     0.19344   0.50216   0.14778   0.00000  Uiso   1.00
C185   C     0.23909   0.56756   0.02263   0.00000  Uiso   1.00
C186   C     0.20974   0.51341   0.09020   0.00000  Uiso   1.00
C187   C     0.08187   0.47621   0.44039   0.00000  Uiso   1.00
C188   C     0.06969   0.47081   0.49654   0.00000  Uiso   1.00
C189   C     0.09976   0.48584   0.02367   0.00000  Uiso   1.00
C190   C     0.14748   0.52080   0.44170   0.00000  Uiso   1.00
C191   C     0.17749   0.51844   0.01720   0.00000  Uiso   1.00
C192   C     0.20784   0.55276   0.49585   0.00000  Uiso   1.00
C193   C     0.20589   0.57140   0.44827   0.00000  Uiso   1.00
C194   C     0.17712   0.55498   0.42069   0.00000  Uiso   1.00
C195   C     0.18491   0.49552   0.05892   0.00000  Uiso   1.00
C196   C     0.23845   0.54887   0.07153   0.00000  Uiso   1.00
F197   F     0.22413   0.37594   0.29692   0.00000  Uiso   1.00
F198   F     0.11010   0.37366   0.20179   0.00000  Uiso   1.00
F199   F     0.06788   0.44746   0.18194   0.00000  Uiso   1.00
F200   F     0.26575   0.55248   0.31810   0.00000  Uiso   1.00
F201   F     0.05526   0.45735   0.41349   0.00000  Uiso   1.00
F202   F     0.08510   0.48292   0.07897   0.00000  Uiso   1.00
F203   F     0.02954   0.44964   0.02432   0.00000  Uiso   1.00
F204   F     0.17467   0.57528   0.37647   0.00000  Uiso   1.00
F205   F     0.22567   0.62607   0.29554   0.00000  Uiso   1.00
H206   H     0.11494   0.62778   0.20888   0.00000  Uiso   1.00
H207   H     0.22705   0.59822   0.43096   0.00000  Uiso   1.00
I208   I     0.28026   0.57492   0.11696   0.00000  Uiso   1.00
I209   I     0.30547   0.43206   0.15933   0.00000  Uiso   1.00
I210   I     0.02761   0.56715   0.34158   0.00000  Uiso   1.00
I211   I     0.28437   0.62010   0.49227   0.00000  Uiso   1.00
I212   I     0.17227   0.42969   0.06713   0.00000  Uiso   1.00
N213   N     0.04760   0.50001   0.25002   0.00000  Uiso   1.00
N214   N     0.28573   0.49998   0.25001   0.00000  Uiso   1.00
O215   O     0.12846   0.56108   0.25001   0.00000  Uiso   1.00
O216   O     0.20490   0.56107   0.25001   0.00000  Uiso   1.00
O217   O     0.10947   0.50000   0.32681   0.00000  Uiso   1.00
O218   O     0.18591   0.49999   0.32681   0.00000  Uiso   1.00
O219   O     0.12843   0.43893   0.25000   0.00000  Uiso   1.00
O220   O     0.20488   0.43892   0.25000   0.00000  Uiso   1.00
O221   O     0.14742   0.50001   0.17319   0.00000  Uiso   1.00
O222   O     0.22387   0.50000   0.17319   0.00000  Uiso   1.00
Zn223  Zn    0.11562   0.50001   0.25000   0.00000  Uiso   1.00
Zn224  Zn    0.21771   0.49999   0.25000   0.00000  Uiso   1.00
C225   C     0.49992   0.57995   0.25044   0.00000  Uiso   1.00
C226   C     0.45488   0.50068   0.41239   0.00000  Uiso   1.00
C227   C     0.53013   0.64580   0.27287   0.00000  Uiso   1.00
C228   C     0.47310   0.50047   0.35249   0.00000  Uiso   1.00
C229   C     0.52981   0.35510   0.27293   0.00000  Uiso   1.00
C230   C     0.50031   0.37584   0.24954   0.00000  Uiso   1.00
C231   C     0.47098   0.35400   0.22627   0.00000  Uiso   1.00
C232   C     0.47075   0.64468   0.22717   0.00000  Uiso   1.00
C233   C     0.50019   0.62407   0.25044   0.00000  Uiso   1.00
C234   C     0.65365   0.47379   0.21545   0.00000  Uiso   1.00
C235   C     0.36798   0.47385   0.21577   0.00000  Uiso   1.00
C236   C     0.47547   0.50726   0.49449   0.00000  Uiso   1.00
C237   C     0.34634   0.52608   0.28466   0.00000  Uiso   1.00
C238   C     0.63211   0.52610   0.28421   0.00000  Uiso   1.00
C239   C     0.50013   0.42003   0.24964   0.00000  Uiso   1.00
C240   C     0.52677   0.50216   0.14778   0.00000  Uiso   1.00
C241   C     0.57243   0.56756   0.02263   0.00000  Uiso   1.00
C242   C     0.54307   0.51341   0.09020   0.00000  Uiso   1.00
C243   C     0.41520   0.47621   0.44039   0.00000  Uiso   1.00
C244   C     0.40302   0.47081   0.49654   0.00000  Uiso   1.00
C245   C     0.43309   0.48584   0.02367   0.00000  Uiso   1.00
C246   C     0.48081   0.52080   0.44170   0.00000  Uiso   1.00
C247   C     0.51083   0.51844   0.01720   0.00000  Uiso   1.00
C248   C     0.54117   0.55276   0.49585   0.00000  Uiso   1.00
C249   C     0.53922   0.57140   0.44827   0.00000  Uiso   1.00
C250   C     0.51046   0.55498   0.42069   0.00000  Uiso   1.00
C251   C     0.51824   0.49552   0.05892   0.00000  Uiso   1.00
C252   C     0.57179   0.54887   0.07153   0.00000  Uiso   1.00
F253   F     0.55746   0.37594   0.29692   0.00000  Uiso   1.00
F254   F     0.44343   0.37366   0.20179   0.00000  Uiso   1.00
F255   F     0.40121   0.44746   0.18194   0.00000  Uiso   1.00
F256   F     0.59908   0.55248   0.31810   0.00000  Uiso   1.00
F257   F     0.38859   0.45735   0.41349   0.00000  Uiso   1.00
F258   F     0.41843   0.48292   0.07897   0.00000  Uiso   1.00
F259   F     0.36288   0.44964   0.02432   0.00000  Uiso   1.00
F260   F     0.50800   0.57528   0.37647   0.00000  Uiso   1.00
F261   F     0.55900   0.62607   0.29554   0.00000  Uiso   1.00
H262   H     0.44827   0.62778   0.20888   0.00000  Uiso   1.00
H263   H     0.56039   0.59822   0.43096   0.00000  Uiso   1.00
I264   I     0.61359   0.57492   0.11696   0.00000  Uiso   1.00
I265   I     0.63881   0.43206   0.15933   0.00000  Uiso   1.00
I266   I     0.36094   0.56715   0.34158   0.00000  Uiso   1.00
I267   I     0.61771   0.62010   0.49227   0.00000  Uiso   1.00
I268   I     0.50560   0.42969   0.06713   0.00000  Uiso   1.00
N269   N     0.38093   0.50001   0.25002   0.00000  Uiso   1.00
N270   N     0.61906   0.49998   0.25001   0.00000  Uiso   1.00
O271   O     0.46179   0.56108   0.25001   0.00000  Uiso   1.00
O272   O     0.53823   0.56107   0.25001   0.00000  Uiso   1.00
O273   O     0.44280   0.50000   0.32681   0.00000  Uiso   1.00
O274   O     0.51924   0.49999   0.32681   0.00000  Uiso   1.00
O275   O     0.46177   0.43893   0.25000   0.00000  Uiso   1.00
O276   O     0.53821   0.43892   0.25000   0.00000  Uiso   1.00
O277   O     0.48076   0.50001   0.17319   0.00000  Uiso   1.00
O278   O     0.55720   0.50000   0.17319   0.00000  Uiso   1.00
Zn279  Zn    0.44896   0.50001   0.25000   0.00000  Uiso   1.00
Zn280  Zn    0.55104   0.49999   0.25000   0.00000  Uiso   1.00
C281   C     0.83325   0.57995   0.25044   0.00000  Uiso   1.00
C282   C     0.78821   0.50068   0.41239   0.00000  Uiso   1.00
C283   C     0.86346   0.64580   0.27287   0.00000  Uiso   1.00
C284   C     0.80644   0.50047   0.35249   0.00000  Uiso   1.00
C285   C     0.86314   0.35510   0.27293   0.00000  Uiso   1.00
C286   C     0.83364   0.37584   0.24954   0.00000  Uiso   1.00
C287   C     0.80431   0.35400   0.22627   0.00000  Uiso   1.00
C288   C     0.80408   0.64468   0.22717   0.00000  Uiso   1.00
C289   C     0.83352   0.62407   0.25044   0.00000  Uiso   1.00
C290   C     0.98699   0.47379   0.21545   0.00000  Uiso   1.00
C291   C     0.70131   0.47385   0.21577   0.00000  Uiso   1.00
C292   C     0.80880   0.50726   0.49449   0.00000  Uiso   1.00
C293   C     0.67967   0.52608   0.28466   0.00000  Uiso   1.00
C294   C     0.96544   0.52610   0.28421   0.00000  Uiso   1.00
C295   C     0.83347   0.42003   0.24964   0.00000  Uiso   1.00
C296   C     0.86010   0.50216   0.14778   0.00000  Uiso   1.00
C297   C     0.90576   0.56756   0.02263   0.00000  Uiso   1.00
C298   C     0.87640   0.51341   0.09020   0.00000  Uiso   1.00
C299   C     0.74853   0.47621   0.44039   0.00000  Uiso   1.00
C300   C     0.73635   0.47081   0.49654   0.00000  Uiso   1.00
C301   C     0.76642   0.48584   0.02367   0.00000  Uiso   1.00
C302   C     0.81414   0.52080   0.44170   0.00000  Uiso   1.00
C303   C     0.84416   0.51844   0.01720   0.00000  Uiso   1.00
C304   C     0.87450   0.55276   0.49585   0.00000  Uiso   1.00
C305   C     0.87256   0.57140   0.44827   0.00000  Uiso   1.00
C306   C     0.84379   0.55498   0.42069   0.00000  Uiso   1.00
C307   C     0.85157   0.49552   0.05892   0.00000  Uiso   1.00
C308   C     0.90512   0.54887   0.07153   0.00000  Uiso   1.00
F309   F     0.89079   0.37594   0.29692   0.00000  Uiso   1.00
F310   F     0.77676   0.37366   0.20179   0.00000  Uiso   1.00
F311   F     0.73454   0.44746   0.18194   0.00000  Uiso   1.00
F312   F     0.93241   0.55248   0.31810   0.00000  Uiso   1.00
F313   F     0.72193   0.45735   0.41349   0.00000  Uiso   1.00
F314   F     0.75176   0.48292   0.07897   0.00000  Uiso   1.00
F315   F     0.69621   0.44964   0.02432   0.00000  Uiso   1.00
F316   F     0.84133   0.57528   0.37647   0.00000  Uiso   1.00
F317   F     0.89234   0.62607   0.29554   0.00000  Uiso   1.00
H318   H     0.78160   0.62778   0.20888   0.00000  Uiso   1.00
H319   H     0.89372   0.59822   0.43096   0.00000  Uiso   1.00
I320   I     0.94693   0.57492   0.11696   0.00000  Uiso   1.00
I321   I     0.97214   0.43206   0.15933   0.00000  Uiso   1.00
I322   I     0.69427   0.56715   0.34158   0.00000  Uiso   1.00
I323   I     0.95104   0.62010   0.49227   0.00000  Uiso   1.00
I324   I     0.83893   0.42969   0.06713   0.00000  Uiso   1.00
N325   N     0.71426   0.50001   0.25002   0.00000  Uiso   1.00
N326   N     0.95239   0.49998   0.25001   0.00000  Uiso   1.00
O327   O     0.79512   0.56108   0.25001   0.00000  Uiso   1.00
O328   O     0.87157   0.56107   0.25001   0.00000  Uiso   1.00
O329   O     0.77613   0.50000   0.32681   0.00000  Uiso   1.00
O330   O     0.85258   0.49999   0.32681   0.00000  Uiso   1.00
O331   O     0.79510   0.43893   0.25000   0.00000  Uiso   1.00
O332   O     0.87154   0.43892   0.25000   0.00000  Uiso   1.00
O333   O     0.81409   0.50001   0.17319   0.00000  Uiso   1.00
O334   O     0.89053   0.50000   0.17319   0.00000  Uiso   1.00
Zn335  Zn    0.78229   0.50001   0.25000   0.00000  Uiso   1.00
Zn336  Zn    0.88438   0.49999   0.25000   0.00000  Uiso   1.00
C337   C     0.16659   0.91329   0.25044   0.00000  Uiso   1.00
C338   C     0.12154   0.83402   0.41239   0.00000  Uiso   1.00
C339   C     0.19679   0.97914   0.27287   0.00000  Uiso   1.00
C340   C     0.13977   0.83381   0.35249   0.00000  Uiso   1.00
C341   C     0.19648   0.68844   0.27293   0.00000  Uiso   1.00
C342   C     0.16697   0.70918   0.24954   0.00000  Uiso   1.00
C343   C     0.13765   0.68734   0.22627   0.00000  Uiso   1.00
C344   C     0.13741   0.97801   0.22717   0.00000  Uiso   1.00
C345   C     0.16685   0.95741   0.25044   0.00000  Uiso   1.00
C346   C     0.32032   0.80713   0.21545   0.00000  Uiso   1.00
C347   C     0.03465   0.80718   0.21577   0.00000  Uiso   1.00
C348   C     0.14214   0.84060   0.49449   0.00000  Uiso   1.00
C349   C     0.01301   0.85941   0.28466   0.00000  Uiso   1.00
C350   C     0.29877   0.85944   0.28421   0.00000  Uiso   1.00
C351   C     0.16680   0.75336   0.24964   0.00000  Uiso   1.00
C352   C     0.19344   0.83549   0.14778   0.00000  Uiso   1.00
C353   C     0.23909   0.90089   0.02263   0.00000  Uiso   1.00
C354   C     0.20974   0.84675   0.09020   0.00000  Uiso   1.00
C355   C     0.08187   0.80954   0.44039   0.00000  Uiso   1.00
C356   C     0.06969   0.80414   0.49654   0.00000  Uiso   1.00
C357   C     0.09976   0.81918   0.02367   0.00000  Uiso   1.00
C358   C     0.14748   0.85414   0.44170   0.00000  Uiso   1.00
C359   C     0.17749   0.85177   0.01720   0.00000  Uiso   1.00
C360   C     0.20784   0.88609   0.49585   0.00000  Uiso   1.00
C361   C     0.20589   0.90473   0.44827   0.00000  Uiso   1.00
C362   C     0.17712   0.88831   0.42069   0.00000  Uiso   1.00
C363   C     0.18491   0.82885   0.05892   0.00000  Uiso   1.00
C364   C     0.23845   0.88220   0.07153   0.00000  Uiso   1.00
F365   F     0.22413   0.70928   0.29692   0.00000  Uiso   1.00
F366   F     0.11010   0.70700   0.20179   0.00000  Uiso   1.00
F367   F     0.06788   0.78079   0.18194   0.00000  Uiso   1.00
F368   F     0.26575   0.88581   0.31810   0.00000  Uiso   1.00
F369   F     0.05526   0.79068   0.41349   0.00000  Uiso   1.00
F370   F     0.08510   0.81625   0.07897   0.00000  Uiso   1.00
F371   F     0.02954   0.78298   0.02432   0.00000  Uiso   1.00
F372   F     0.17467   0.90862   0.37647   0.00000  Uiso   1.00
F373   F     0.22567   0.95941   0.29554   0.00000  Uiso   1.00
H374   H     0.11494   0.96111   0.20888   0.00000  Uiso   1.00
H375   H     0.22705   0.93156   0.43096   0.00000  Uiso   1.00
I376   I     0.28026   0.90825   0.11696   0.00000  Uiso   1.00
I377   I     0.30547   0.76539   0.15933   0.00000  Uiso   1.00
I378   I     0.02761   0.90049   0.34158   0.00000  Uiso   1.00
I379   I     0.28437   0.95343   0.49227   0.00000  Uiso   1.00
I380   I     0.17227   0.76303   0.06713   0.00000  Uiso   1.00
N381   N     0.04760   0.83334   0.25002   0.00000  Uiso   1.00
N382   N     0.28573   0.83331   0.25001   0.00000  Uiso   1.00
O383   O     0.12846   0.89442   0.25001   0.00000  Uiso   1.00
O384   O     0.20490   0.89441   0.25001   0.00000  Uiso   1.00
O385   O     0.10947   0.83333   0.32681   0.00000  Uiso   1.00
O386   O     0.18591   0.83332   0.32681   0.00000  Uiso   1.00
O387   O     0.12843   0.77226   0.25000   0.00000  Uiso   1.00
O388   O     0.20488   0.77225   0.25000   0.00000  Uiso   1.00
O389   O     0.14742   0.83335   0.17319   0.00000  Uiso   1.00
O390   O     0.22387   0.83334   0.17319   0.00000  Uiso   1.00
Zn391  Zn    0.11562   0.83334   0.25000   0.00000  Uiso   1.00
Zn392  Zn    0.21771   0.83333   0.25000   0.00000  Uiso   1.00
C393   C     0.49992   0.91329   0.25044   0.00000  Uiso   1.00
C394   C     0.45488   0.83402   0.41239   0.00000  Uiso   1.00
C395   C     0.53013   0.97914   0.27287   0.00000  Uiso   1.00
C396   C     0.47310   0.83381   0.35249   0.00000  Uiso   1.00
C397   C     0.52981   0.68844   0.27293   0.00000  Uiso   1.00
C398   C     0.50031   0.70918   0.24954   0.00000  Uiso   1.00
C399   C     0.47098   0.68734   0.22627   0.00000  Uiso   1.00
C400   C     0.47075   0.97801   0.22717   0.00000  Uiso   1.00
C401   C     0.50019   0.95741   0.25044   0.00000  Uiso   1.00
C402   C     0.65365   0.80713   0.21545   0.00000  Uiso   1.00
C403   C     0.36798   0.80718   0.21577   0.00000  Uiso   1.00
C404   C     0.47547   0.84060   0.49449   0.00000  Uiso   1.00
C405   C     0.34634   0.85941   0.28466   0.00000  Uiso   1.00
C406   C     0.63211   0.85944   0.28421   0.00000  Uiso   1.00
C407   C     0.50013   0.75336   0.24964   0.00000  Uiso   1.00
C408   C     0.52677   0.83549   0.14778   0.00000  Uiso   1.00
C409   C     0.57243   0.90089   0.02263   0.00000  Uiso   1.00
C410   C     0.54307   0.84675   0.09020   0.00000  Uiso   1.00
C411   C     0.41520   0.80954   0.44039   0.00000  Uiso   1.00
C412   C     0.40302   0.80414   0.49654   0.00000  Uiso   1.00
C413   C     0.43309   0.81918   0.02367   0.00000  Uiso   1.00
C414   C     0.48081   0.85414   0.44170   0.00000  Uiso   1.00
C415   C     0.51083   0.85177   0.01720   0.00000  Uiso   1.00
C416   C     0.54117   0.88609   0.49585   0.00000  Uiso   1.00
C417   C     0.53922   0.90473   0.44827   0.00000  Uiso   1.00
C418   C     0.51046   0.88831   0.42069   0.00000  Uiso   1.00
C419   C     0.51824   0.82885   0.05892   0.00000  Uiso   1.00
C420   C     0.57179   0.88220   0.07153   0.00000  Uiso   1.00
F421   F     0.55746   0.70928   0.29692   0.00000  Uiso   1.00
F422   F     0.44343   0.70700   0.20179   0.00000  Uiso   1.00
F423   F     0.40121   0.78079   0.18194   0.00000  Uiso   1.00
F424   F     0.59908   0.88581   0.31810   0.00000  Uiso   1.00
F425   F     0.38859   0.79068   0.41349   0.00000  Uiso   1.00
F426   F     0.41843   0.81625   0.07897   0.00000  Uiso   1.00
F427   F     0.36288   0.78298   0.02432   0.00000  Uiso   1.00
F428   F     0.50800   0.90862   0.37647   0.00000  Uiso   1.00
F429   F     0.55900   0.95941   0.29554   0.00000  Uiso   1.00
H430   H     0.44827   0.96111   0.20888   0.00000  Uiso   1.00
H431   H     0.56039   0.93156   0.43096   0.00000  Uiso   1.00
I432   I     0.61359   0.90825   0.11696   0.00000  Uiso   1.00
I433   I     0.63881   0.76539   0.15933   0.00000  Uiso   1.00
I434   I     0.36094   0.90049   0.34158   0.00000  Uiso   1.00
I435   I     0.61771   0.95343   0.49227   0.00000  Uiso   1.00
I436   I     0.50560   0.76303   0.06713   0.00000  Uiso   1.00
N437   N     0.38093   0.83334   0.25002   0.00000  Uiso   1.00
N438   N     0.61906   0.83331   0.25001   0.00000  Uiso   1.00
O439   O     0.46179   0.89442   0.25001   0.00000  Uiso   1.00
O440   O     0.53823   0.89441   0.25001   0.00000  Uiso   1.00
O441   O     0.44280   0.83333   0.32681   0.00000  Uiso   1.00
O442   O     0.51924   0.83332   0.32681   0.00000  Uiso   1.00
O443   O     0.46177   0.77226   0.25000   0.00000  Uiso   1.00
O444   O     0.53821   0.77225   0.25000   0.00000  Uiso   1.00
O445   O     0.48076   0.83335   0.17319   0.00000  Uiso   1.00
O446   O     0.55720   0.83334   0.17319   0.00000  Uiso   1.00
Zn447  Zn    0.44896   0.83334   0.25000   0.00000  Uiso   1.00
Zn448  Zn    0.55104   0.83333   0.25000   0.00000  Uiso   1.00
C449   C     0.83325   0.91329   0.25044   0.00000  Uiso   1.00
C450   C     0.78821   0.83402   0.41239   0.00000  Uiso   1.00
C451   C     0.86346   0.97914   0.27287   0.00000  Uiso   1.00
C452   C     0.80644   0.83381   0.35249   0.00000  Uiso   1.00
C453   C     0.86314   0.68844   0.27293   0.00000  Uiso   1.00
C454   C     0.83364   0.70918   0.24954   0.00000  Uiso   1.00
C455   C     0.80431   0.68734   0.22627   0.00000  Uiso   1.00
C456   C     0.80408   0.97801   0.22717   0.00000  Uiso   1.00
C457   C     0.83352   0.95741   0.25044   0.00000  Uiso   1.00
C458   C     0.98699   0.80713   0.21545   0.00000  Uiso   1.00
C459   C     0.70131   0.80718   0.21577   0.00000  Uiso   1.00
C460   C     0.80880   0.84060   0.49449   0.00000  Uiso   1.00
C461   C     0.67967   0.85941   0.28466   0.00000  Uiso   1.00
C462   C     0.96544   0.85944   0.28421   0.00000  Uiso   1.00
C463   C     0.83347   0.75336   0.24964   0.00000  Uiso   1.00
C464   C     0.86010   0.83549   0.14778   0.00000  Uiso   1.00
C465   C     0.90576   0.90089   0.02263   0.00000  Uiso   1.00
C466   C     0.87640   0.84675   0.09020   0.00000  Uiso   1.00
C467   C     0.74853   0.80954   0.44039   0.00000  Uiso   1.00
C468   C     0.73635   0.80414   0.49654   0.00000  Uiso   1.00
C469   C     0.76642   0.81918   0.02367   0.00000  Uiso   1.00
C470   C     0.81414   0.85414   0.44170   0.00000  Uiso   1.00
C471   C     0.84416   0.85177   0.01720   0.00000  Uiso   1.00
C472   C     0.87450   0.88609   0.49585   0.00000  Uiso   1.00
C473   C     0.87256   0.90473   0.44827   0.00000  Uiso   1.00
C474   C     0.84379   0.88831   0.42069   0.00000  Uiso   1.00
C475   C     0.85157   0.82885   0.05892   0.00000  Uiso   1.00
C476   C     0.90512   0.88220   0.07153   0.00000  Uiso   1.00
F477   F     0.89079   0.70928   0.29692   0.00000  Uiso   1.00
F478   F     0.77676   0.70700   0.20179   0.00000  Uiso   1.00
F479   F     0.73454   0.78079   0.18194   0.00000  Uiso   1.00
F480   F     0.93241   0.88581   0.31810   0.00000  Uiso   1.00
F481   F     0.72193   0.79068   0.41349   0.00000  Uiso   1.00
F482   F     0.75176   0.81625   0.07897   0.00000  Uiso   1.00
F483   F     0.69621   0.78298   0.02432   0.00000  Uiso   1.00
F484   F     0.84133   0.90862   0.37647   0.00000  Uiso   1.00
F485   F     0.89234   0.95941   0.29554   0.00000  Uiso   1.00
H486   H     0.78160   0.96111   0.20888   0.00000  Uiso   1.00
H487   H     0.89372   0.93156   0.43096   0.00000  Uiso   1.00
I488   I     0.94693   0.90825   0.11696   0.00000  Uiso   1.00
I489   I     0.97214   0.76539   0.15933   0.00000  Uiso   1.00
I490   I     0.69427   0.90049   0.34158   0.00000  Uiso   1.00
I491   I     0.95104   0.95343   0.49227   0.00000  Uiso   1.00
I492   I     0.83893   0.76303   0.06713   0.00000  Uiso   1.00
N493   N     0.71426   0.83334   0.25002   0.00000  Uiso   1.00
N494   N     0.95239   0.83331   0.25001   0.00000  Uiso   1.00
O495   O     0.79512   0.89442   0.25001   0.00000  Uiso   1.00
O496   O     0.87157   0.89441   0.25001   0.00000  Uiso   1.00
O497   O     0.77613   0.83333   0.32681   0.00000  Uiso   1.00
O498   O     0.85258   0.83332   0.32681   0.00000  Uiso   1.00
O499   O     0.79510   0.77226   0.25000   0.00000  Uiso   1.00
O500   O     0.87154   0.77225   0.25000   0.00000  Uiso   1.00
O501   O     0.81409   0.83335   0.17319   0.00000  Uiso   1.00
O502   O     0.89053   0.83334   0.17319   0.00000  Uiso   1.00
Zn503  Zn    0.78229   0.83334   0.25000   0.00000  Uiso   1.00
Zn504  Zn    0.88438   0.83333   0.25000   0.00000  Uiso   1.00
C505   C     0.16659   0.24662   0.75044   0.00000  Uiso   1.00
C506   C     0.12154   0.16735   0.91239   0.00000  Uiso   1.00
C507   C     0.19679   0.31247   0.77287   0.00000  Uiso   1.00
C508   C     0.13977   0.16714   0.85249   0.00000  Uiso   1.00
C509   C     0.19648   0.02177   0.77293   0.00000  Uiso   1.00
C510   C     0.16697   0.04251   0.74954   0.00000  Uiso   1.00
C511   C     0.13765   0.02067   0.72627   0.00000  Uiso   1.00
C512   C     0.13741   0.31134   0.72717   0.00000  Uiso   1.00
C513   C     0.16685   0.29074   0.75044   0.00000  Uiso   1.00
C514   C     0.32032   0.14046   0.71545   0.00000  Uiso   1.00
C515   C     0.03465   0.14052   0.71577   0.00000  Uiso   1.00
C516   C     0.14214   0.17393   0.99449   0.00000  Uiso   1.00
C517   C     0.01301   0.19274   0.78466   0.00000  Uiso   1.00
C518   C     0.29877   0.19277   0.78421   0.00000  Uiso   1.00
C519   C     0.16680   0.08669   0.74964   0.00000  Uiso   1.00
C520   C     0.19344   0.16882   0.64778   0.00000  Uiso   1.00
C521   C     0.23909   0.23423   0.52263   0.00000  Uiso   1.00
C522   C     0.20974   0.18008   0.59020   0.00000  Uiso   1.00
C523   C     0.08187   0.14288   0.94039   0.00000  Uiso   1.00
C524   C     0.06969   0.13747   0.99654   0.00000  Uiso   1.00
C525   C     0.09976   0.15251   0.52367   0.00000  Uiso   1.00
C526   C     0.14748   0.18747   0.94170   0.00000  Uiso   1.00
C527   C     0.17749   0.18511   0.51720   0.00000  Uiso   1.00
C528   C     0.20784   0.21943   0.99585   0.00000  Uiso   1.00
C529   C     0.20589   0.23806   0.94827   0.00000  Uiso   1.00
C530   C     0.17712   0.22165   0.92069   0.00000  Uiso   1.00
C531   C     0.18491   0.16218   0.55892   0.00000  Uiso   1.00
C532   C     0.23845   0.21554   0.57153   0.00000  Uiso   1.00
F533   F     0.22413   0.04261   0.79692   0.00000  Uiso   1.00
F534   F     0.11010   0.04033   0.70179   0.00000  Uiso   1.00
F535   F     0.06788   0.11412   0.68194   0.00000  Uiso   1.00
F536   F     0.26575   0.21915   0.81810   0.00000  Uiso   1.00
F537   F     0.05526   0.12401   0.91349   0.00000  Uiso   1.00
F538   F     0.08510   0.14958   0.57897   0.00000  Uiso   1.00
F539   F     0.02954   0.11631   0.52432   0.00000  Uiso   1.00
F540   F     0.17467   0.24195   0.87647   0.00000  Uiso   1.00
F541   F     0.22567   0.29274   0.79554   0.00000  Uiso   1.00
H542   H     0.11494   0.29445   0.70888   0.00000  Uiso   1.00
H543   H     0.22705   0.26489   0.93096   0.00000  Uiso   1.00
I544   I     0.28026   0.24158   0.61696   0.00000  Uiso   1.00
I545   I     0.30547   0.09872   0.65933   0.00000  Uiso   1.00
I546   I     0.02761   0.23382   0.84158   0.00000  Uiso   1.00
I547   I     0.28437   0.28676   0.99227   0.00000  Uiso   1.00
I548   I     0.17227   0.09636   0.56713   0.00000  Uiso   1.00
N549   N     0.04760   0.16668   0.75002   0.00000  Uiso   1.00
N550   N     0.28573   0.16665   0.75001   0.00000  Uiso   1.00
O551   O     0.12846   0.22775   0.75001   0.00000  Uiso   1.00
O552   O     0.20490   0.22774   0.75001   0.00000  Uiso   1.00
O553   O     0.10947   0.16666   0.82681   0.00000  Uiso   1.00
O554   O     0.18591   0.16665   0.82681   0.00000  Uiso   1.00
O555   O     0.12843   0.10559   0.75000   0.00000  Uiso   1.00
O556   O     0.20488   0.10558   0.75000   0.00000  Uiso   1.00
O557   O     0.14742   0.16668   0.67319   0.00000  Uiso   1.00
O558   O     0.22387   0.16667   0.67319   0.00000  Uiso   1.00
Zn559  Zn    0.11562   0.16667   0.75000   0.00000  Uiso   1.00
Zn560  Zn    0.21771   0.16666   0.75000   0.00000  Uiso   1.00
C561   C     0.49992   0.24662   0.75044   0.00000  Uiso   1.00
C562   C     0.45488   0.16735   0.91239   0.00000  Uiso   1.00
C563   C     0.53013   0.31247   0.77287   0.00000  Uiso   1.00
C564   C     0.47310   0.16714   0.85249   0.00000  Uiso   1.00
C565   C     0.52981   0.02177   0.77293   0.00000  Uiso   1.00
C566   C     0.50031   0.04251   0.74954   0.00000  Uiso   1.00
C567   C     0.47098   0.02067   0.72627   0.00000  Uiso   1.00
C568   C     0.47075   0.31134   0.72717   0.00000  Uiso   1.00
C569   C     0.50019   0.29074   0.75044   0.00000  Uiso   1.00
C570   C     0.65365   0.14046   0.71545   0.00000  Uiso   1.00
C571   C     0.36798   0.14052   0.71577   0.00000  Uiso   1.00
C572   C     0.47547   0.17393   0.99449   0.00000  Uiso   1.00
C573   C     0.34634   0.19274   0.78466   0.00000  Uiso   1.00
C574   C     0.63211   0.19277   0.78421   0.00000  Uiso   1.00
C575   C     0.50013   0.08669   0.74964   0.00000  Uiso   1.00
C576   C     0.52677   0.16882   0.64778   0.00000  Uiso   1.00
C577   C     0.57243   0.23423   0.52263   0.00000  Uiso   1.00
C578   C     0.54307   0.18008   0.59020   0.00000  Uiso   1.00
C579   C     0.41520   0.14288   0.94039   0.00000  Uiso   1.00
C580   C     0.40302   0.13747   0.99654   0.00000  Uiso   1.00
C581   C     0.43309   0.15251   0.52367   0.00000  Uiso   1.00
C582   C     0.48081   0.18747   0.94170   0.00000  Uiso   1.00
C583   C     0.51083   0.18511   0.51720   0.00000  Uiso   1.00
C584   C     0.54117   0.21943   0.99585   0.00000  Uiso   1.00
C585   C     0.53922   0.23806   0.94827   0.00000  Uiso   1.00
C586   C     0.51046   0.22165   0.92069   0.00000  Uiso   1.00
C587   C     0.51824   0.16218   0.55892   0.00000  Uiso   1.00
C588   C     0.57179   0.21554   0.57153   0.00000  Uiso   1.00
F589   F     0.55746   0.04261   0.79692   0.00000  Uiso   1.00
F590   F     0.44343   0.04033   0.70179   0.00000  Uiso   1.00
F591   F     0.40121   0.11412   0.68194   0.00000  Uiso   1.00
F592   F     0.59908   0.21915   0.81810   0.00000  Uiso   1.00
F593   F     0.38859   0.12401   0.91349   0.00000  Uiso   1.00
F594   F     0.41843   0.14958   0.57897   0.00000  Uiso   1.00
F595   F     0.36288   0.11631   0.52432   0.00000  Uiso   1.00
F596   F     0.50800   0.24195   0.87647   0.00000  Uiso   1.00
F597   F     0.55900   0.29274   0.79554   0.00000  Uiso   1.00
H598   H     0.44827   0.29445   0.70888   0.00000  Uiso   1.00
H599   H     0.56039   0.26489   0.93096   0.00000  Uiso   1.00
I600   I     0.61359   0.24158   0.61696   0.00000  Uiso   1.00
I601   I     0.63881   0.09872   0.65933   0.00000  Uiso   1.00
I602   I     0.36094   0.23382   0.84158   0.00000  Uiso   1.00
I603   I     0.61771   0.28676   0.99227   0.00000  Uiso   1.00
I604   I     0.50560   0.09636   0.56713   0.00000  Uiso   1.00
N605   N     0.38093   0.16668   0.75002   0.00000  Uiso   1.00
N606   N     0.61906   0.16665   0.75001   0.00000  Uiso   1.00
O607   O     0.46179   0.22775   0.75001   0.00000  Uiso   1.00
O608   O     0.53823   0.22774   0.75001   0.00000  Uiso   1.00
O609   O     0.44280   0.16666   0.82681   0.00000  Uiso   1.00
O610   O     0.51924   0.16665   0.82681   0.00000  Uiso   1.00
O611   O     0.46177   0.10559   0.75000   0.00000  Uiso   1.00
O612   O     0.53821   0.10558   0.75000   0.00000  Uiso   1.00
O613   O     0.48076   0.16668   0.67319   0.00000  Uiso   1.00
O614   O     0.55720   0.16667   0.67319   0.00000  Uiso   1.00
Zn615  Zn    0.44896   0.16667   0.75000   0.00000  Uiso   1.00
Zn616  Zn    0.55104   0.16666   0.75000   0.00000  Uiso   1.00
C617   C     0.83325   0.24662   0.75044   0.00000  Uiso   1.00
C618   C     0.78821   0.16735   0.91239   0.00000  Uiso   1.00
C619   C     0.86346   0.31247   0.77287   0.00000  Uiso   1.00
C620   C     0.80644   0.16714   0.85249   0.00000  Uiso   1.00
C621   C     0.86314   0.02177   0.77293   0.00000  Uiso   1.00
C622   C     0.83364   0.04251   0.74954   0.00000  Uiso   1.00
C623   C     0.80431   0.02067   0.72627   0.00000  Uiso   1.00
C624   C     0.80408   0.31134   0.72717   0.00000  Uiso   1.00
C625   C     0.83352   0.29074   0.75044   0.00000  Uiso   1.00
C626   C     0.98699   0.14046   0.71545   0.00000  Uiso   1.00
C627   C     0.70131   0.14052   0.71577   0.00000  Uiso   1.00
C628   C     0.80880   0.17393   0.99449   0.00000  Uiso   1.00
C629   C     0.67967   0.19274   0.78466   0.00000  Uiso   1.00
C630   C     0.96544   0.19277   0.78421   0.00000  Uiso   1.00
C631   C     0.83347   0.08669   0.74964   0.00000  Uiso   1.00
C632   C     0.86010   0.16882   0.64778   0.00000  Uiso   1.00
C633   C     0.90576   0.23423   0.52263   0.00000  Uiso   1.00
C634   C     0.87640   0.18008   0.59020   0.00000  Uiso   1.00
C635   C     0.74853   0.14288   0.94039   0.00000  Uiso   1.00
C636   C     0.73635   0.13747   0.99654   0.00000  Uiso   1.00
C637   C     0.76642   0.15251   0.52367   0.00000  Uiso   1.00
C638   C     0.81414   0.18747   0.94170   0.00000  Uiso   1.00
C639   C     0.84416   0.18511   0.51720   0.00000  Uiso   1.00
C640   C     0.87450   0.21943   0.99585   0.00000  Uiso   1.00
C641   C     0.87256   0.23806   0.94827   0.00000  Uiso   1.00
C642   C     0.84379   0.22165   0.92069   0.00000  Uiso   1.00
C643   C     0.85157   0.16218   0.55892   0.00000  Uiso   1.00
C644   C     0.90512   0.21554   0.57153   0.00000  Uiso   1.00
F645   F     0.89079   0.04261   0.79692   0.00000  Uiso   1.00
F646   F     0.77676   0.04033   0.70179   0.00000  Uiso   1.00
F647   F     0.73454   0.11412   0.68194   0.00000  Uiso   1.00
F648   F     0.93241   0.21915   0.81810   0.00000  Uiso   1.00
F649   F     0.72193   0.12401   0.91349   0.00000  Uiso   1.00
F650   F     0.75176   0.14958   0.57897   0.00000  Uiso   1.00
F651   F     0.69621   0.11631   0.52432   0.00000  Uiso   1.00
F652   F     0.84133   0.24195   0.87647   0.00000  Uiso   1.00
F653   F     0.89234   0.29274   0.79554   0.00000  Uiso   1.00
H654   H     0.78160   0.29445   0.70888   0.00000  Uiso   1.00
H655   H     0.89372   0.26489   0.93096   0.00000  Uiso   1.00
I656   I     0.94693   0.24158   0.61696   0.00000  Uiso   1.00
I657   I     0.97214   0.09872   0.65933   0.00000  Uiso   1.00
I658   I     0.69427   0.23382   0.84158   0.00000  Uiso   1.00
I659   I     0.95104   0.28676   0.99227   0.00000  Uiso   1.00
I660   I     0.83893   0.09636   0.56713   0.00000  Uiso   1.00
N661   N     0.71426   0.16668   0.75002   0.00000  Uiso   1.00
N662   N     0.95239   0.16665   0.75001   0.00000  Uiso   1.00
O663   O     0.79512   0.22775   0.75001   0.00000  Uiso   1.00
O664   O     0.87157   0.22774   0.75001   0.00000  Uiso   1.00
O665   O     0.77613   0.16666   0.82681   0.00000  Uiso   1.00
O666   O     0.85258   0.16665   0.82681   0.00000  Uiso   1.00
O667   O     0.79510   0.10559   0.75000   0.00000  Uiso   1.00
O668   O     0.87154   0.10558   0.75000   0.00000  Uiso   1.00
O669   O     0.81409   0.16668   0.67319   0.00000  Uiso   1.00
O670   O     0.89053   0.16667   0.67319   0.00000  Uiso   1.00
Zn671  Zn    0.78229   0.16667   0.75000   0.00000  Uiso   1.00
Zn672  Zn    0.88438   0.16666   0.75000   0.00000  Uiso   1.00
C673   C     0.16659   0.57995   0.75044   0.00000  Uiso   1.00
C674   C     0.12154   0.50068   0.91239   0.00000  Uiso   1.00
C675   C     0.19679   0.64580   0.77287   0.00000  Uiso   1.00
C676   C     0.13977   0.50047   0.85249   0.00000  Uiso   1.00
C677   C     0.19648   0.35510   0.77293   0.00000  Uiso   1.00
C678   C     0.16697   0.37584   0.74954   0.00000  Uiso   1.00
C679   C     0.13765   0.35400   0.72627   0.00000  Uiso   1.00
C680   C     0.13741   0.64468   0.72717   0.00000  Uiso   1.00
C681   C     0.16685   0.62407   0.75044   0.00000  Uiso   1.00
C682   C     0.32032   0.47379   0.71545   0.00000  Uiso   1.00
C683   C     0.03465   0.47385   0.71577   0.00000  Uiso   1.00
C684   C     0.14214   0.50726   0.99449   0.00000  Uiso   1.00
C685   C     0.01301   0.52608   0.78466   0.00000  Uiso   1.00
C686   C     0.29877   0.52610   0.78421   0.00000  Uiso   1.00
C687   C     0.16680   0.42003   0.74964   0.00000  Uiso   1.00
C688   C     0.19344   0.50216   0.64778   0.00000  Uiso   1.00
C689   C     0.23909   0.56756   0.52263   0.00000  Uiso   1.00
C690   C     0.20974   0.51341   0.59020   0.00000  Uiso   1.00
C691   C     0.08187   0.47621   0.94039   0.00000  Uiso   1.00
C692   C     0.06969   0.47081   0.99654   0.00000  Uiso   1.00
C693   C     0.09976   0.48584   0.52367   0.00000  Uiso   1.00
C694   C     0.14748   0.52080   0.94170   0.00000  Uiso   1.00
C695   C     0.17749   0.51844   0.51720   0.00000  Uiso   1.00
C696   C     0.20784   0.55276   0.99585   0.00000  Uiso   1.00
C697   C     0.20589   0.57140   0.94827   0.00000  Uiso   1.00
C698   C     0.17712   0.55498   0.92069   0.00000  Uiso   1.00
C699   C     0.18491   0.49552   0.55892   0.00000  Uiso   1.00
C700   C     0.23845   0.54887   0.57153   0.00000  Uiso   1.00
F701   F     0.22413   0.37594   0.79692   0.00000  Uiso   1.00
F702   F     0.11010   0.37366   0.70179   0.00000  Uiso   1.00
F703   F     0.06788   0.44746   0.68194   0.00000  Uiso   1.00
F704   F     0.26575   0.55248   0.81810   0.00000  Uiso   1.00
F705   F     0.05526   0.45735   0.91349   0.00000  Uiso   1.00
F706   F     0.08510   0.48292   0.57897   0.00000  Uiso   1.00
F707   F     0.02954   0.44964   0.52432   0.00000  Uiso   1.00
F708   F     0.17467   0.57528   0.87647   0.00000  Uiso   1.00
F709   F     0.22567   0.62607   0.79554   0.00000  Uiso   1.00
H710   H     0.11494   0.62778   0.70888   0.00000  Uiso   1.00
H711   H     0.22705   0.59822   0.93096   0.00000  Uiso   1.00
I712   I     0.28026   0.57492   0.61696   0.00000  Uiso   1.00
I713   I     0.30547   0.43206   0.65933   0.00000  Uiso   1.00
I714   I     0.02761   0.56715   0.84158   0.00000  Uiso   1.00
I715   I     0.28437   0.62010   0.99227   0.00000  Uiso   1.00
I716   I     0.17227   0.42969   0.56713   0.00000  Uiso   1.00
N717   N     0.04760   0.50001   0.75002   0.00000  Uiso   1.00
N718   N     0.28573   0.49998   0.75001   0.00000  Uiso   1.00
O719   O     0.12846   0.56108   0.75001   0.00000  Uiso   1.00
O720   O     0.20490   0.56107   0.75001   0.00000  Uiso   1.00
O721   O     0.10947   0.50000   0.82681   0.00000  Uiso   1.00
O722   O     0.18591   0.49999   0.82681   0.00000  Uiso   1.00
O723   O     0.12843   0.43893   0.75000   0.00000  Uiso   1.00
O724   O     0.20488   0.43892   0.75000   0.00000  Uiso   1.00
O725   O     0.14742   0.50001   0.67319   0.00000  Uiso   1.00
O726   O     0.22387   0.50000   0.67319   0.00000  Uiso   1.00
Zn727  Zn    0.11562   0.50001   0.75000   0.00000  Uiso   1.00
Zn728  Zn    0.21771   0.49999   0.75000   0.00000  Uiso   1.00
C729   C     0.49992   0.57995   0.75044   0.00000  Uiso   1.00
C730   C     0.45488   0.50068   0.91239   0.00000  Uiso   1.00
C731   C     0.53013   0.64580   0.77287   0.00000  Uiso   1.00
C732   C     0.47310   0.50047   0.85249   0.00000  Uiso   1.00
C733   C     0.52981   0.35510   0.77293   0.00000  Uiso   1.00
C734   C     0.50031   0.37584   0.74954   0.00000  Uiso   1.00
C735   C     0.47098   0.35400   0.72627   0.00000  Uiso   1.00
C736   C     0.47075   0.64468   0.72717   0.00000  Uiso   1.00
C737   C     0.50019   0.62407   0.75044   0.00000  Uiso   1.00
C738   C     0.65365   0.47379   0.71545   0.00000  Uiso   1.00
C739   C     0.36798   0.47385   0.71577   0.00000  Uiso   1.00
C740   C     0.47547   0.50726   0.99449   0.00000  Uiso   1.00
C741   C     0.34634   0.52608   0.78466   0.00000  Uiso   1.00
C742   C     0.63211   0.52610   0.78421   0.00000  Uiso   1.00
C743   C     0.50013   0.42003   0.74964   0.00000  Uiso   1.00
C744   C     0.52677   0.50216   0.64778   0.00000  Uiso   1.00
C745   C     0.57243   0.56756   0.52263   0.00000  Uiso   1.00
C746   C     0.54307   0.51341   0.59020   0.00000  Uiso   1.00
C747   C     0.41520   0.47621   0.94039   0.00000  Uiso   1.00
C748   C     0.40302   0.47081   0.99654   0.00000  Uiso   1.00
C749   C     0.43309   0.48584   0.52367   0.00000  Uiso   1.00
C750   C     0.48081   0.52080   0.94170   0.00000  Uiso   1.00
C751   C     0.51083   0.51844   0.51720   0.00000  Uiso   1.00
C752   C     0.54117   0.55276   0.99585   0.00000  Uiso   1.00
C753   C     0.53922   0.57140   0.94827   0.00000  Uiso   1.00
C754   C     0.51046   0.55498   0.92069   0.00000  Uiso   1.00
C755   C     0.51824   0.49552   0.55892   0.00000  Uiso   1.00
C756   C     0.57179   0.54887   0.57153   0.00000  Uiso   1.00
F757   F     0.55746   0.37594   0.79692   0.00000  Uiso   1.00
F758   F     0.44343   0.37366   0.70179   0.00000  Uiso   1.00
F759   F     0.40121   0.44746   0.68194   0.00000  Uiso   1.00
F760   F     0.59908   0.55248   0.81810   0.00000  Uiso   1.00
F761   F     0.38859   0.45735   0.91349   0.00000  Uiso   1.00
F762   F     0.41843   0.48292   0.57897   0.00000  Uiso   1.00
F763   F     0.36288   0.44964   0.52432   0.00000  Uiso   1.00
F764   F     0.50800   0.57528   0.87647   0.00000  Uiso   1.00
F765   F     0.55900   0.62607   0.79554   0.00000  Uiso   1.00
H766   H     0.44827   0.62778   0.70888   0.00000  Uiso   1.00
H767   H     0.56039   0.59822   0.93096   0.00000  Uiso   1.00
I768   I     0.61359   0.57492   0.61696   0.00000  Uiso   1.00
I769   I     0.63881   0.43206   0.65933   0.00000  Uiso   1.00
I770   I     0.36094   0.56715   0.84158   0.00000  Uiso   1.00
I771   I     0.61771   0.62010   0.99227   0.00000  Uiso   1.00
I772   I     0.50560   0.42969   0.56713   0.00000  Uiso   1.00
N773   N     0.38093   0.50001   0.75002   0.00000  Uiso   1.00
N774   N     0.61906   0.49998   0.75001   0.00000  Uiso   1.00
O775   O     0.46179   0.56108   0.75001   0.00000  Uiso   1.00
O776   O     0.53823   0.56107   0.75001   0.00000  Uiso   1.00
O777   O     0.44280   0.50000   0.82681   0.00000  Uiso   1.00
O778   O     0.51924   0.49999   0.82681   0.00000  Uiso   1.00
O779   O     0.46177   0.43893   0.75000   0.00000  Uiso   1.00
O780   O     0.53821   0.43892   0.75000   0.00000  Uiso   1.00
O781   O     0.48076   0.50001   0.67319   0.00000  Uiso   1.00
O782   O     0.55720   0.50000   0.67319   0.00000  Uiso   1.00
Zn783  Zn    0.44896   0.50001   0.75000   0.00000  Uiso   1.00
Zn784  Zn    0.55104   0.49999   0.75000   0.00000  Uiso   1.00
C785   C     0.83325   0.57995   0.75044   0.00000  Uiso   1.00
C786   C     0.78821   0.50068   0.91239   0.00000  Uiso   1.00
C787   C     0.86346   0.64580   0.77287   0.00000  Uiso   1.00
C788   C     0.80644   0.50047   0.85249   0.00000  Uiso   1.00
C789   C     0.86314   0.35510   0.77293   0.00000  Uiso   1.00
C790   C     0.83364   0.37584   0.74954   0.00000  Uiso   1.00
C791   C     0.80431   0.35400   0.72627   0.00000  Uiso   1.00
C792   C     0.80408   0.64468   0.72717   0.00000  Uiso   1.00
C793   C     0.83352   0.62407   0.75044   0.00000  Uiso   1.00
C794   C     0.98699   0.47379   0.71545   0.00000  Uiso   1.00
C795   C     0.70131   0.47385   0.71577   0.00000  Uiso   1.00
C796   C     0.80880   0.50726   0.99449   0.00000  Uiso   1.00
C797   C     0.67967   0.52608   0.78466   0.00000  Uiso   1.00
C798   C     0.96544   0.52610   0.78421   0.00000  Uiso   1.00
C799   C     0.83347   0.42003   0.74964   0.00000  Uiso   1.00
C800   C     0.86010   0.50216   0.64778   0.00000  Uiso   1.00
C801   C     0.90576   0.56756   0.52263   0.00000  Uiso   1.00
C802   C     0.87640   0.51341   0.59020   0.00000  Uiso   1.00
C803   C     0.74853   0.47621   0.94039   0.00000  Uiso   1.00
C804   C     0.73635   0.47081   0.99654   0.00000  Uiso   1.00
C805   C     0.76642   0.48584   0.52367   0.00000  Uiso   1.00
C806   C     0.81414   0.52080   0.94170   0.00000  Uiso   1.00
C807   C     0.84416   0.51844   0.51720   0.00000  Uiso   1.00
C808   C     0.87450   0.55276   0.99585   0.00000  Uiso   1.00
C809   C     0.87256   0.57140   0.94827   0.00000  Uiso   1.00
C810   C     0.84379   0.55498   0.92069   0.00000  Uiso   1.00
C811   C     0.85157   0.49552   0.55892   0.00000  Uiso   1.00
C812   C     0.90512   0.54887   0.57153   0.00000  Uiso   1.00
F813   F     0.89079   0.37594   0.79692   0.00000  Uiso   1.00
F814   F     0.77676   0.37366   0.70179   0.00000  Uiso   1.00
F815   F     0.73454   0.44746   0.68194   0.00000  Uiso   1.00
F816   F     0.93241   0.55248   0.81810   0.00000  Uiso   1.00
F817   F     0.72193   0.45735   0.91349   0.00000  Uiso   1.00
F818   F     0.75176   0.48292   0.57897   0.00000  Uiso   1.00
F819   F     0.69621   0.44964   0.52432   0.00000  Uiso   1.00
F820   F     0.84133   0.57528   0.87647   0.00000  Uiso   1.00
F821   F     0.89234   0.62607   0.79554   0.00000  Uiso   1.00
H822   H     0.78160   0.62778   0.70888   0.00000  Uiso   1.00
H823   H     0.89372   0.59822   0.93096   0.00000  Uiso   1.00
I824   I     0.94693   0.57492   0.61696   0.00000  Uiso   1.00
I825   I     0.97214   0.43206   0.65933   0.00000  Uiso   1.00
I826   I     0.69427   0.56715   0.84158   0.00000  Uiso   1.00
I827   I     0.95104   0.62010   0.99227   0.00000  Uiso   1.00
I828   I     0.83893   0.42969   0.56713   0.00000  Uiso   1.00
N829   N     0.71426   0.50001   0.75002   0.00000  Uiso   1.00
N830   N     0.95239   0.49998   0.75001   0.00000  Uiso   1.00
O831   O     0.79512   0.56108   0.75001   0.00000  Uiso   1.00
O832   O     0.87157   0.56107   0.75001   0.00000  Uiso   1.00
O833   O     0.77613   0.50000   0.82681   0.00000  Uiso   1.00
O834   O     0.85258   0.49999   0.82681   0.00000  Uiso   1.00
O835   O     0.79510   0.43893   0.75000   0.00000  Uiso   1.00
O836   O     0.87154   0.43892   0.75000   0.00000  Uiso   1.00
O837   O     0.81409   0.50001   0.67319   0.00000  Uiso   1.00
O838   O     0.89053   0.50000   0.67319   0.00000  Uiso   1.00
Zn839  Zn    0.78229   0.50001   0.75000   0.00000  Uiso   1.00
Zn840  Zn    0.88438   0.49999   0.75000   0.00000  Uiso   1.00
C841   C     0.16659   0.91329   0.75044   0.00000  Uiso   1.00
C842   C     0.12154   0.83402   0.91239   0.00000  Uiso   1.00
C843   C     0.19679   0.97914   0.77287   0.00000  Uiso   1.00
C844   C     0.13977   0.83381   0.85249   0.00000  Uiso   1.00
C845   C     0.19648   0.68844   0.77293   0.00000  Uiso   1.00
C846   C     0.16697   0.70918   0.74954   0.00000  Uiso   1.00
C847   C     0.13765   0.68734   0.72627   0.00000  Uiso   1.00
C848   C     0.13741   0.97801   0.72717   0.00000  Uiso   1.00
C849   C     0.16685   0.95741   0.75044   0.00000  Uiso   1.00
C850   C     0.32032   0.80713   0.71545   0.00000  Uiso   1.00
C851   C     0.03465   0.80718   0.71577   0.00000  Uiso   1.00
C852   C     0.14214   0.84060   0.99449   0.00000  Uiso   1.00
C853   C     0.01301   0.85941   0.78466   0.00000  Uiso   1.00
C854   C     0.29877   0.85944   0.78421   0.00000  Uiso   1.00
C855   C     0.16680   0.75336   0.74964   0.00000  Uiso   1.00
C856   C     0.19344   0.83549   0.64778   0.00000  Uiso   1.00
C857   C     0.23909   0.90089   0.52263   0.00000  Uiso   1.00
C858   C     0.20974   0.84675   0.59020   0.00000  Uiso   1.00
C859   C     0.08187   0.80954   0.94039   0.00000  Uiso   1.00
C860   C     0.06969   0.80414   0.99654   0.00000  Uiso   1.00
C861   C     0.09976   0.81918   0.52367   0.00000  Uiso   1.00
C862   C     0.14748   0.85414   0.94170   0.00000  Uiso   1.00
C863   C     0.17749   0.85177   0.51720   0.00000  Uiso   1.00
C864   C     0.20784   0.88609   0.99585   0.00000  Uiso   1.00
C865   C     0.20589   0.90473   0.94827   0.00000  Uiso   1.00
C866   C     0.17712   0.88831   0.92069   0.00000  Uiso   1.00
C867   C     0.18491   0.82885   0.55892   0.00000  Uiso   1.00
C868   C     0.23845   0.88220   0.57153   0.00000  Uiso   1.00
F869   F     0.22413   0.70928   0.79692   0.00000  Uiso   1.00
F870   F     0.11010   0.70700   0.70179   0.00000  Uiso   1.00
F871   F     0.06788   0.78079   0.68194   0.00000  Uiso   1.00
F872   F     0.26575   0.88581   0.81810   0.00000  Uiso   1.00
F873   F     0.05526   0.79068   0.91349   0.00000  Uiso   1.00
F874   F     0.08510   0.81625   0.57897   0.00000  Uiso   1.00
F875   F     0.02954   0.78298   0.52432   0.00000  Uiso   1.00
F876   F     0.17467   0.90862   0.87647   0.00000  Uiso   1.00
F877   F     0.22567   0.95941   0.79554   0.00000  Uiso   1.00
H878   H     0.11494   0.96111   0.70888   0.00000  Uiso   1.00
H879   H     0.22705   0.93156   0.93096   0.00000  Uiso   1.00
I880   I     0.28026   0.90825   0.61696   0.00000  Uiso   1.00
I881   I     0.30547   0.76539   0.65933   0.00000  Uiso   1.00
I882   I     0.02761   0.90049   0.84158   0.00000  Uiso   1.00
I883   I     0.28437   0.95343   0.99227   0.00000  Uiso   1.00
I884   I     0.17227   0.76303   0.56713   0.00000  Uiso   1.00
N885   N     0.04760   0.83334   0.75002   0.00000  Uiso   1.00
N886   N     0.28573   0.83331   0.75001   0.00000  Uiso   1.00
O887   O     0.12846   0.89442   0.75001   0.00000  Uiso   1.00
O888   O     0.20490   0.89441   0.75001   0.00000  Uiso   1.00
O889   O     0.10947   0.83333   0.82681   0.00000  Uiso   1.00
O890   O     0.18591   0.83332   0.82681   0.00000  Uiso   1.00
O891   O     0.12843   0.77226   0.75000   0.00000  Uiso   1.00
O892   O     0.20488   0.77225   0.75000   0.00000  Uiso   1.00
O893   O     0.14742   0.83335   0.67319   0.00000  Uiso   1.00
O894   O     0.22387   0.83334   0.67319   0.00000  Uiso   1.00
Zn895  Zn    0.11562   0.83334   0.75000   0.00000  Uiso   1.00
Zn896  Zn    0.21771   0.83333   0.75000   0.00000  Uiso   1.00
C897   C     0.49992   0.91329   0.75044   0.00000  Uiso   1.00
C898   C     0.45488   0.83402   0.91239   0.00000  Uiso   1.00
C899   C     0.53013   0.97914   0.77287   0.00000  Uiso   1.00
C900   C     0.47310   0.83381   0.85249   0.00000  Uiso   1.00
C901   C     0.52981   0.68844   0.77293   0.00000  Uiso   1.00
C902   C     0.50031   0.70918   0.74954   0.00000  Uiso   1.00
C903   C     0.47098   0.68734   0.72627   0.00000  Uiso   1.00
C904   C     0.47075   0.97801   0.72717   0.00000  Uiso   1.00
C905   C     0.50019   0.95741   0.75044   0.00000  Uiso   1.00
C906   C     0.65365   0.80713   0.71545   0.00000  Uiso   1.00
C907   C     0.36798   0.80718   0.71577   0.00000  Uiso   1.00
C908   C     0.47547   0.84060   0.99449   0.00000  Uiso   1.00
C909   C     0.34634   0.85941   0.78466   0.00000  Uiso   1.00
C910   C     0.63211   0.85944   0.78421   0.00000  Uiso   1.00
C911   C     0.50013   0.75336   0.74964   0.00000  Uiso   1.00
C912   C     0.52677   0.83549   0.64778   0.00000  Uiso   1.00
C913   C     0.57243   0.90089   0.52263   0.00000  Uiso   1.00
C914   C     0.54307   0.84675   0.59020   0.00000  Uiso   1.00
C915   C     0.41520   0.80954   0.94039   0.00000  Uiso   1.00
C916   C     0.40302   0.80414   0.99654   0.00000  Uiso   1.00
C917   C     0.43309   0.81918   0.52367   0.00000  Uiso   1.00
C918   C     0.48081   0.85414   0.94170   0.00000  Uiso   1.00
C919   C     0.51083   0.85177   0.51720   0.00000  Uiso   1.00
C920   C     0.54117   0.88609   0.99585   0.00000  Uiso   1.00
C921   C     0.53922   0.90473   0.94827   0.00000  Uiso   1.00
C922   C     0.51046   0.88831   0.92069   0.00000  Uiso   1.00
C923   C     0.51824   0.82885   0.55892   0.00000  Uiso   1.00
C924   C     0.57179   0.88220   0.57153   0.00000  Uiso   1.00
F925   F     0.55746   0.70928   0.79692   0.00000  Uiso   1.00
F926   F     0.44343   0.70700   0.70179   0.00000  Uiso   1.00
F927   F     0.40121   0.78079   0.68194   0.00000  Uiso   1.00
F928   F     0.59908   0.88581   0.81810   0.00000  Uiso   1.00
F929   F     0.38859   0.79068   0.91349   0.00000  Uiso   1.00
F930   F     0.41843   0.81625   0.57897   0.00000  Uiso   1.00
F931   F     0.36288   0.78298   0.52432   0.00000  Uiso   1.00
F932   F     0.50800   0.90862   0.87647   0.00000  Uiso   1.00
F933   F     0.55900   0.95941   0.79554   0.00000  Uiso   1.00
H934   H     0.44827   0.96111   0.70888   0.00000  Uiso   1.00
H935   H     0.56039   0.93156   0.93096   0.00000  Uiso   1.00
I936   I     0.61359   0.90825   0.61696   0.00000  Uiso   1.00
I937   I     0.63881   0.76539   0.65933   0.00000  Uiso   1.00
I938   I     0.36094   0.90049   0.84158   0.00000  Uiso   1.00
I939   I     0.61771   0.95343   0.99227   0.00000  Uiso   1.00
I940   I     0.50560   0.76303   0.56713   0.00000  Uiso   1.00
N941   N     0.38093   0.83334   0.75002   0.00000  Uiso   1.00
N942   N     0.61906   0.83331   0.75001   0.00000  Uiso   1.00
O943   O     0.46179   0.89442   0.75001   0.00000  Uiso   1.00
O944   O     0.53823   0.89441   0.75001   0.00000  Uiso   1.00
O945   O     0.44280   0.83333   0.82681   0.00000  Uiso   1.00
O946   O     0.51924   0.83332   0.82681   0.00000  Uiso   1.00
O947   O     0.46177   0.77226   0.75000   0.00000  Uiso   1.00
O948   O     0.53821   0.77225   0.75000   0.00000  Uiso   1.00
O949   O     0.48076   0.83335   0.67319   0.00000  Uiso   1.00
O950   O     0.55720   0.83334   0.67319   0.00000  Uiso   1.00
Zn951  Zn    0.44896   0.83334   0.75000   0.00000  Uiso   1.00
Zn952  Zn    0.55104   0.83333   0.75000   0.00000  Uiso   1.00
C953   C     0.83325   0.91329   0.75044   0.00000  Uiso   1.00
C954   C     0.78821   0.83402   0.91239   0.00000  Uiso   1.00
C955   C     0.86346   0.97914   0.77287   0.00000  Uiso   1.00
C956   C     0.80644   0.83381   0.85249   0.00000  Uiso   1.00
C957   C     0.86314   0.68844   0.77293   0.00000  Uiso   1.00
C958   C     0.83364   0.70918   0.74954   0.00000  Uiso   1.00
C959   C     0.80431   0.68734   0.72627   0.00000  Uiso   1.00
C960   C     0.80408   0.97801   0.72717   0.00000  Uiso   1.00
C961   C     0.83352   0.95741   0.75044   0.00000  Uiso   1.00
C962   C     0.98699   0.80713   0.71545   0.00000  Uiso   1.00
C963   C     0.70131   0.80718   0.71577   0.00000  Uiso   1.00
C964   C     0.80880   0.84060   0.99449   0.00000  Uiso   1.00
C965   C     0.67967   0.85941   0.78466   0.00000  Uiso   1.00
C966   C     0.96544   0.85944   0.78421   0.00000  Uiso   1.00
C967   C     0.83347   0.75336   0.74964   0.00000  Uiso   1.00
C968   C     0.86010   0.83549   0.64778   0.00000  Uiso   1.00
C969   C     0.90576   0.90089   0.52263   0.00000  Uiso   1.00
C970   C     0.87640   0.84675   0.59020   0.00000  Uiso   1.00
C971   C     0.74853   0.80954   0.94039   0.00000  Uiso   1.00
C972   C     0.73635   0.80414   0.99654   0.00000  Uiso   1.00
C973   C     0.76642   0.81918   0.52367   0.00000  Uiso   1.00
C974   C     0.81414   0.85414   0.94170   0.00000  Uiso   1.00
C975   C     0.84416   0.85177   0.51720   0.00000  Uiso   1.00
C976   C     0.87450   0.88609   0.99585   0.00000  Uiso   1.00
C977   C     0.87256   0.90473   0.94827   0.00000  Uiso   1.00
C978   C     0.84379   0.88831   0.92069   0.00000  Uiso   1.00
C979   C     0.85157   0.82885   0.55892   0.00000  Uiso   1.00
C980   C     0.90512   0.88220   0.57153   0.00000  Uiso   1.00
F981   F     0.89079   0.70928   0.79692   0.00000  Uiso   1.00
F982   F     0.77676   0.70700   0.70179   0.00000  Uiso   1.00
F983   F     0.73454   0.78079   0.68194   0.00000  Uiso   1.00
F984   F     0.93241   0.88581   0.81810   0.00000  Uiso   1.00
F985   F     0.72193   0.79068   0.91349   0.00000  Uiso   1.00
F986   F     0.75176   0.81625   0.57897   0.00000  Uiso   1.00
F987   F     0.69621   0.78298   0.52432   0.00000  Uiso   1.00
F988   F     0.84133   0.90862   0.87647   0.00000  Uiso   1.00
F989   F     0.89234   0.95941   0.79554   0.00000  Uiso   1.00
H990   H     0.78160   0.96111   0.70888   0.00000  Uiso   1.00
H991   H     0.89372   0.93156   0.93096   0.00000  Uiso   1.00
I992   I     0.94693   0.90825   0.61696   0.00000  Uiso   1.00
I993   I     0.97214   0.76539   0.65933   0.00000  Uiso   1.00
I994   I     0.69427   0.90049   0.84158   0.00000  Uiso   1.00
I995   I     0.95104   0.95343   0.99227   0.00000  Uiso   1.00
I996   I     0.83893   0.76303   0.56713   0.00000  Uiso   1.00
N997   N     0.71426   0.83334   0.75002   0.00000  Uiso   1.00
N998   N     0.95239   0.83331   0.75001   0.00000  Uiso   1.00
O999   O     0.79512   0.89442   0.75001   0.00000  Uiso   1.00
O1000  O     0.87157   0.89441   0.75001   0.00000  Uiso   1.00
O1001  O     0.77613   0.83333   0.82681   0.00000  Uiso   1.00
O1002  O     0.85258   0.83332   0.82681   0.00000  Uiso   1.00
O1003  O     0.79510   0.77226   0.75000   0.00000  Uiso   1.00
O1004  O     0.87154   0.77225   0.75000   0.00000  Uiso   1.00
O1005  O     0.81409   0.83335   0.67319   0.00000  Uiso   1.00
O1006  O     0.89053   0.83334   0.67319   0.00000  Uiso   1.00
Zn1007 Zn    0.78229   0.83334   0.75000   0.00000  Uiso   1.00
Zn1008 Zn    0.88438   0.83333   0.75000   0.00000  Uiso   1.00
loop_
_geom_bond_atom_site_label_1
_geom_bond_atom_site_label_2
_geom_bond_distance
_geom_bond_site_symmetry_2
_ccdc_geom_bond_type
C1     O48     1.284   .     A
C1     C9      1.417   .     S
C1     O47     1.289   .     A
C2     C4      1.462   .     S
C2     C22     1.406   .     A
C2     C19     1.405   .     A
C3     C9      1.400   .     A
C3     F37     1.357   .     S
C3     C173    1.369   .     S
C4     O50     1.301   .     A
C4     O49     1.291   .     A
C5     F29     1.359   .     S
C5     C6      1.400   .     A
C5     C339    1.369   1_545 S
C6     C7      1.401   .     A
C6     C15     1.419   .     S
C7     F30     1.358   .     S
C7     C344    1.371   1_545 S
C8     H38     1.084   .     S
C8     C9      1.394   .     A
C8     C175    1.371   .     S
C10    N46     1.378   .     A
C10    I41     2.117   .     S
C10    C67     1.418   .     S
C11    F31     1.354   .     S
C11    N45     1.361   .     A
C11    C122    1.418   1_455 S
C12    C22     1.404   .     A
C12    C525    1.415   .     S
C12    C527    1.414   .     S
C13    N45     1.377   .     A
C13    I42     2.117   .     S
C13    C126    1.416   1_455 S
C14    N46     1.361   .     A
C14    F32     1.351   .     S
C14    C69     1.416   .     S
C15    O51     1.286   .     A
C15    O52     1.287   .     A
C16    O54     1.292   .     A
C16    O53     1.300   .     A
C16    C18     1.459   .     S
C17    C28     1.411   .     A
C17    C528    1.416   1_554 S
C17    I547    2.149   1_554 S
C18    C28     1.415   .     A
C18    C27     1.389   .     A
C19    C20     1.392   .     A
C19    F33     1.358   .     S
C20    C525    1.396   .     S
C20    F539    1.356   .     S
C21    F34     1.356   .     S
C21    C524    1.396   1_554 S
C21    C516    1.415   1_554 S
C22    C26     1.407   .     A
C23    C27     1.401   .     A
C23    C516    1.414   1_554 S
C23    C528    1.422   1_554 S
C24    C25     1.404   .     A
C24    C527    1.422   .     S
C24    C521    1.416   .     S
C25    C26     1.389   .     A
C25    H39     1.079   .     S
C26    F36     1.356   .     S
C27    I44     2.151   .     S
C28    I40     2.146   .     S
F35    C524    1.356   1_554 S
I43    C521    2.149   .     S
N45    Zn55    2.019   .     S
N46    Zn56    2.019   .     S
O47    Zn55    2.000   .     S
O48    Zn56    1.997   .     S
O49    Zn55    1.941   .     S
O50    Zn56    1.892   .     S
O51    Zn55    1.997   .     S
O52    Zn56    2.000   .     S
O53    Zn55    1.892   .     S
O54    Zn56    1.941   .     S
C57    O104    1.284   .     A
C57    C65     1.417   .     S
C57    O103    1.289   .     A
C58    C60     1.462   .     S
C58    C78     1.406   .     A
C58    C75     1.405   .     A
C59    C65     1.400   .     A
C59    F93     1.357   .     S
C59    C229    1.369   .     S
C60    O106    1.301   .     A
C60    O105    1.291   .     A
C61    F85     1.359   .     S
C61    C62     1.400   .     A
C61    C395    1.369   1_545 S
C62    C63     1.401   .     A
C62    C71     1.419   .     S
C63    F86     1.358   .     S
C63    C400    1.371   1_545 S
C64    H94     1.084   .     S
C64    C65     1.394   .     A
C64    C231    1.371   .     S
C66    N102    1.378   .     A
C66    I97     2.117   .     S
C66    C123    1.418   .     S
C67    F87     1.354   .     S
C67    N101    1.361   .     A
C68    C78     1.404   .     A
C68    C581    1.415   .     S
C68    C583    1.414   .     S
C69    N101    1.377   .     A
C69    I98     2.117   .     S
C70    N102    1.361   .     A
C70    F88     1.351   .     S
C70    C125    1.416   .     S
C71    O107    1.286   .     A
C71    O108    1.287   .     A
C72    O110    1.292   .     A
C72    O109    1.300   .     A
C72    C74     1.459   .     S
C73    C84     1.411   .     A
C73    C584    1.416   1_554 S
C73    I603    2.149   1_554 S
C74    C84     1.415   .     A
C74    C83     1.389   .     A
C75    C76     1.392   .     A
C75    F89     1.358   .     S
C76    C581    1.396   .     S
C76    F595    1.356   .     S
C77    F90     1.356   .     S
C77    C580    1.396   1_554 S
C77    C572    1.415   1_554 S
C78    C82     1.407   .     A
C79    C83     1.401   .     A
C79    C572    1.414   1_554 S
C79    C584    1.422   1_554 S
C80    C81     1.404   .     A
C80    C583    1.422   .     S
C80    C577    1.416   .     S
C81    C82     1.389   .     A
C81    H95     1.079   .     S
C82    F92     1.356   .     S
C83    I100    2.151   .     S
C84    I96     2.146   .     S
F91    C580    1.356   1_554 S
I99    C577    2.149   .     S
N101   Zn111   2.019   .     S
N102   Zn112   2.019   .     S
O103   Zn111   2.000   .     S
O104   Zn112   1.997   .     S
O105   Zn111   1.941   .     S
O106   Zn112   1.892   .     S
O107   Zn111   1.997   .     S
O108   Zn112   2.000   .     S
O109   Zn111   1.892   .     S
O110   Zn112   1.941   .     S
C113   O160    1.284   .     A
C113   C121    1.417   .     S
C113   O159    1.289   .     A
C114   C116    1.462   .     S
C114   C134    1.406   .     A
C114   C131    1.405   .     A
C115   C121    1.400   .     A
C115   F149    1.357   .     S
C115   C285    1.369   .     S
C116   O162    1.301   .     A
C116   O161    1.291   .     A
C117   F141    1.359   .     S
C117   C118    1.400   .     A
C117   C451    1.369   1_545 S
C118   C119    1.401   .     A
C118   C127    1.419   .     S
C119   F142    1.358   .     S
C119   C456    1.371   1_545 S
C120   H150    1.084   .     S
C120   C121    1.394   .     A
C120   C287    1.371   .     S
C122   N158    1.378   .     A
C122   I153    2.117   .     S
C122   C11     1.418   1_655 S
C123   F143    1.354   .     S
C123   N157    1.361   .     A
C124   C134    1.404   .     A
C124   C637    1.415   .     S
C124   C639    1.414   .     S
C125   N157    1.377   .     A
C125   I154    2.117   .     S
C126   N158    1.361   .     A
C126   F144    1.351   .     S
C126   C13     1.416   1_655 S
C127   O163    1.286   .     A
C127   O164    1.287   .     A
C128   O166    1.292   .     A
C128   O165    1.300   .     A
C128   C130    1.459   .     S
C129   C140    1.411   .     A
C129   C640    1.416   1_554 S
C129   I659    2.149   1_554 S
C130   C140    1.415   .     A
C130   C139    1.389   .     A
C131   C132    1.392   .     A
C131   F145    1.358   .     S
C132   C637    1.396   .     S
C132   F651    1.356   .     S
C133   F146    1.356   .     S
C133   C636    1.396   1_554 S
C133   C628    1.415   1_554 S
C134   C138    1.407   .     A
C135   C139    1.401   .     A
C135   C628    1.414   1_554 S
C135   C640    1.422   1_554 S
C136   C137    1.404   .     A
C136   C639    1.422   .     S
C136   C633    1.416   .     S
C137   C138    1.389   .     A
C137   H151    1.079   .     S
C138   F148    1.356   .     S
C139   I156    2.151   .     S
C140   I152    2.146   .     S
F147   C636    1.356   1_554 S
I155   C633    2.149   .     S
N157   Zn167   2.019   .     S
N158   Zn168   2.019   .     S
O159   Zn167   2.000   .     S
O160   Zn168   1.997   .     S
O161   Zn167   1.941   .     S
O162   Zn168   1.892   .     S
O163   Zn167   1.997   .     S
O164   Zn168   2.000   .     S
O165   Zn167   1.892   .     S
O166   Zn168   1.941   .     S
C169   O216    1.284   .     A
C169   C177    1.417   .     S
C169   O215    1.289   .     A
C170   C172    1.462   .     S
C170   C190    1.406   .     A
C170   C187    1.405   .     A
C171   C177    1.400   .     A
C171   F205    1.357   .     S
C171   C341    1.369   .     S
C172   O218    1.301   .     A
C172   O217    1.291   .     A
C173   F197    1.359   .     S
C173   C174    1.400   .     A
C174   C175    1.401   .     A
C174   C183    1.419   .     S
C175   F198    1.358   .     S
C176   H206    1.084   .     S
C176   C177    1.394   .     A
C176   C343    1.371   .     S
C178   N214    1.378   .     A
C178   I209    2.117   .     S
C178   C235    1.418   .     S
C179   F199    1.354   .     S
C179   N213    1.361   .     A
C179   C290    1.418   1_455 S
C180   C190    1.404   .     A
C180   C693    1.415   .     S
C180   C695    1.414   .     S
C181   N213    1.377   .     A
C181   I210    2.117   .     S
C181   C294    1.416   1_455 S
C182   N214    1.361   .     A
C182   F200    1.351   .     S
C182   C237    1.416   .     S
C183   O219    1.286   .     A
C183   O220    1.287   .     A
C184   O222    1.292   .     A
C184   O221    1.300   .     A
C184   C186    1.459   .     S
C185   C196    1.411   .     A
C185   C696    1.416   1_554 S
C185   I715    2.149   1_554 S
C186   C196    1.415   .     A
C186   C195    1.389   .     A
C187   C188    1.392   .     A
C187   F201    1.358   .     S
C188   C693    1.396   .     S
C188   F707    1.356   .     S
C189   F202    1.356   .     S
C189   C692    1.396   1_554 S
C189   C684    1.415   1_554 S
C190   C194    1.407   .     A
C191   C195    1.401   .     A
C191   C684    1.414   1_554 S
C191   C696    1.422   1_554 S
C192   C193    1.404   .     A
C192   C695    1.422   .     S
C192   C689    1.416   .     S
C193   C194    1.389   .     A
C193   H207    1.079   .     S
C194   F204    1.356   .     S
C195   I212    2.151   .     S
C196   I208    2.146   .     S
F203   C692    1.356   1_554 S
I211   C689    2.149   .     S
N213   Zn223   2.019   .     S
N214   Zn224   2.019   .     S
O215   Zn223   2.000   .     S
O216   Zn224   1.997   .     S
O217   Zn223   1.941   .     S
O218   Zn224   1.892   .     S
O219   Zn223   1.997   .     S
O220   Zn224   2.000   .     S
O221   Zn223   1.892   .     S
O222   Zn224   1.941   .     S
C225   O272    1.284   .     A
C225   C233    1.417   .     S
C225   O271    1.289   .     A
C226   C228    1.462   .     S
C226   C246    1.406   .     A
C226   C243    1.405   .     A
C227   C233    1.400   .     A
C227   F261    1.357   .     S
C227   C397    1.369   .     S
C228   O274    1.301   .     A
C228   O273    1.291   .     A
C229   F253    1.359   .     S
C229   C230    1.400   .     A
C230   C231    1.401   .     A
C230   C239    1.419   .     S
C231   F254    1.358   .     S
C232   H262    1.084   .     S
C232   C233    1.394   .     A
C232   C399    1.371   .     S
C234   N270    1.378   .     A
C234   I265    2.117   .     S
C234   C291    1.418   .     S
C235   F255    1.354   .     S
C235   N269    1.361   .     A
C236   C246    1.404   .     A
C236   C749    1.415   .     S
C236   C751    1.414   .     S
C237   N269    1.377   .     A
C237   I266    2.117   .     S
C238   N270    1.361   .     A
C238   F256    1.351   .     S
C238   C293    1.416   .     S
C239   O275    1.286   .     A
C239   O276    1.287   .     A
C240   O278    1.292   .     A
C240   O277    1.300   .     A
C240   C242    1.459   .     S
C241   C252    1.411   .     A
C241   C752    1.416   1_554 S
C241   I771    2.149   1_554 S
C242   C252    1.415   .     A
C242   C251    1.389   .     A
C243   C244    1.392   .     A
C243   F257    1.358   .     S
C244   C749    1.396   .     S
C244   F763    1.356   .     S
C245   F258    1.356   .     S
C245   C748    1.396   1_554 S
C245   C740    1.415   1_554 S
C246   C250    1.407   .     A
C247   C251    1.401   .     A
C247   C740    1.414   1_554 S
C247   C752    1.422   1_554 S
C248   C249    1.404   .     A
C248   C751    1.422   .     S
C248   C745    1.416   .     S
C249   C250    1.389   .     A
C249   H263    1.079   .     S
C250   F260    1.356   .     S
C251   I268    2.151   .     S
C252   I264    2.146   .     S
F259   C748    1.356   1_554 S
I267   C745    2.149   .     S
N269   Zn279   2.019   .     S
N270   Zn280   2.019   .     S
O271   Zn279   2.000   .     S
O272   Zn280   1.997   .     S
O273   Zn279   1.941   .     S
O274   Zn280   1.892   .     S
O275   Zn279   1.997   .     S
O276   Zn280   2.000   .     S
O277   Zn279   1.892   .     S
O278   Zn280   1.941   .     S
C281   O328    1.284   .     A
C281   C289    1.417   .     S
C281   O327    1.289   .     A
C282   C284    1.462   .     S
C282   C302    1.406   .     A
C282   C299    1.405   .     A
C283   C289    1.400   .     A
C283   F317    1.357   .     S
C283   C453    1.369   .     S
C284   O330    1.301   .     A
C284   O329    1.291   .     A
C285   F309    1.359   .     S
C285   C286    1.400   .     A
C286   C287    1.401   .     A
C286   C295    1.419   .     S
C287   F310    1.358   .     S
C288   H318    1.084   .     S
C288   C289    1.394   .     A
C288   C455    1.371   .     S
C290   N326    1.378   .     A
C290   I321    2.117   .     S
C290   C179    1.418   1_655 S
C291   F311    1.354   .     S
C291   N325    1.361   .     A
C292   C302    1.404   .     A
C292   C805    1.415   .     S
C292   C807    1.414   .     S
C293   N325    1.377   .     A
C293   I322    2.117   .     S
C294   N326    1.361   .     A
C294   F312    1.351   .     S
C294   C181    1.416   1_655 S
C295   O331    1.286   .     A
C295   O332    1.287   .     A
C296   O334    1.292   .     A
C296   O333    1.300   .     A
C296   C298    1.459   .     S
C297   C308    1.411   .     A
C297   C808    1.416   1_554 S
C297   I827    2.149   1_554 S
C298   C308    1.415   .     A
C298   C307    1.389   .     A
C299   C300    1.392   .     A
C299   F313    1.358   .     S
C300   C805    1.396   .     S
C300   F819    1.356   .     S
C301   F314    1.356   .     S
C301   C804    1.396   1_554 S
C301   C796    1.415   1_554 S
C302   C306    1.407   .     A
C303   C307    1.401   .     A
C303   C796    1.414   1_554 S
C303   C808    1.422   1_554 S
C304   C305    1.404   .     A
C304   C807    1.422   .     S
C304   C801    1.416   .     S
C305   C306    1.389   .     A
C305   H319    1.079   .     S
C306   F316    1.356   .     S
C307   I324    2.151   .     S
C308   I320    2.146   .     S
F315   C804    1.356   1_554 S
I323   C801    2.149   .     S
N325   Zn335   2.019   .     S
N326   Zn336   2.019   .     S
O327   Zn335   2.000   .     S
O328   Zn336   1.997   .     S
O329   Zn335   1.941   .     S
O330   Zn336   1.892   .     S
O331   Zn335   1.997   .     S
O332   Zn336   2.000   .     S
O333   Zn335   1.892   .     S
O334   Zn336   1.941   .     S
C337   O384    1.284   .     A
C337   C345    1.417   .     S
C337   O383    1.289   .     A
C338   C340    1.462   .     S
C338   C358    1.406   .     A
C338   C355    1.405   .     A
C339   C345    1.400   .     A
C339   F373    1.357   .     S
C339   C5      1.369   1_565 S
C340   O386    1.301   .     A
C340   O385    1.291   .     A
C341   F365    1.359   .     S
C341   C342    1.400   .     A
C342   C343    1.401   .     A
C342   C351    1.419   .     S
C343   F366    1.358   .     S
C344   H374    1.084   .     S
C344   C345    1.394   .     A
C344   C7      1.371   1_565 S
C346   N382    1.378   .     A
C346   I377    2.117   .     S
C346   C403    1.418   .     S
C347   F367    1.354   .     S
C347   N381    1.361   .     A
C347   C458    1.418   1_455 S
C348   C358    1.404   .     A
C348   C861    1.415   .     S
C348   C863    1.414   .     S
C349   N381    1.377   .     A
C349   I378    2.117   .     S
C349   C462    1.416   1_455 S
C350   N382    1.361   .     A
C350   F368    1.351   .     S
C350   C405    1.416   .     S
C351   O387    1.286   .     A
C351   O388    1.287   .     A
C352   O390    1.292   .     A
C352   O389    1.300   .     A
C352   C354    1.459   .     S
C353   C364    1.411   .     A
C353   C864    1.416   1_554 S
C353   I883    2.149   1_554 S
C354   C364    1.415   .     A
C354   C363    1.389   .     A
C355   C356    1.392   .     A
C355   F369    1.358   .     S
C356   C861    1.396   .     S
C356   F875    1.356   .     S
C357   F370    1.356   .     S
C357   C860    1.396   1_554 S
C357   C852    1.415   1_554 S
C358   C362    1.407   .     A
C359   C363    1.401   .     A
C359   C852    1.414   1_554 S
C359   C864    1.422   1_554 S
C360   C361    1.404   .     A
C360   C863    1.422   .     S
C360   C857    1.416   .     S
C361   C362    1.389   .     A
C361   H375    1.079   .     S
C362   F372    1.356   .     S
C363   I380    2.151   .     S
C364   I376    2.146   .     S
F371   C860    1.356   1_554 S
I379   C857    2.149   .     S
N381   Zn391   2.019   .     S
N382   Zn392   2.019   .     S
O383   Zn391   2.000   .     S
O384   Zn392   1.997   .     S
O385   Zn391   1.941   .     S
O386   Zn392   1.892   .     S
O387   Zn391   1.997   .     S
O388   Zn392   2.000   .     S
O389   Zn391   1.892   .     S
O390   Zn392   1.941   .     S
C393   O440    1.284   .     A
C393   C401    1.417   .     S
C393   O439    1.289   .     A
C394   C396    1.462   .     S
C394   C414    1.406   .     A
C394   C411    1.405   .     A
C395   C401    1.400   .     A
C395   F429    1.357   .     S
C395   C61     1.369   1_565 S
C396   O442    1.301   .     A
C396   O441    1.291   .     A
C397   F421    1.359   .     S
C397   C398    1.400   .     A
C398   C399    1.401   .     A
C398   C407    1.419   .     S
C399   F422    1.358   .     S
C400   H430    1.084   .     S
C400   C401    1.394   .     A
C400   C63     1.371   1_565 S
C402   N438    1.378   .     A
C402   I433    2.117   .     S
C402   C459    1.418   .     S
C403   F423    1.354   .     S
C403   N437    1.361   .     A
C404   C414    1.404   .     A
C404   C917    1.415   .     S
C404   C919    1.414   .     S
C405   N437    1.377   .     A
C405   I434    2.117   .     S
C406   N438    1.361   .     A
C406   F424    1.351   .     S
C406   C461    1.416   .     S
C407   O443    1.286   .     A
C407   O444    1.287   .     A
C408   O446    1.292   .     A
C408   O445    1.300   .     A
C408   C410    1.459   .     S
C409   C420    1.411   .     A
C409   C920    1.416   1_554 S
C409   I939    2.149   1_554 S
C410   C420    1.415   .     A
C410   C419    1.389   .     A
C411   C412    1.392   .     A
C411   F425    1.358   .     S
C412   C917    1.396   .     S
C412   F931    1.356   .     S
C413   F426    1.356   .     S
C413   C916    1.396   1_554 S
C413   C908    1.415   1_554 S
C414   C418    1.407   .     A
C415   C419    1.401   .     A
C415   C908    1.414   1_554 S
C415   C920    1.422   1_554 S
C416   C417    1.404   .     A
C416   C919    1.422   .     S
C416   C913    1.416   .     S
C417   C418    1.389   .     A
C417   H431    1.079   .     S
C418   F428    1.356   .     S
C419   I436    2.151   .     S
C420   I432    2.146   .     S
F427   C916    1.356   1_554 S
I435   C913    2.149   .     S
N437   Zn447   2.019   .     S
N438   Zn448   2.019   .     S
O439   Zn447   2.000   .     S
O440   Zn448   1.997   .     S
O441   Zn447   1.941   .     S
O442   Zn448   1.892   .     S
O443   Zn447   1.997   .     S
O444   Zn448   2.000   .     S
O445   Zn447   1.892   .     S
O446   Zn448   1.941   .     S
C449   O496    1.284   .     A
C449   C457    1.417   .     S
C449   O495    1.289   .     A
C450   C452    1.462   .     S
C450   C470    1.406   .     A
C450   C467    1.405   .     A
C451   C457    1.400   .     A
C451   F485    1.357   .     S
C451   C117    1.369   1_565 S
C452   O498    1.301   .     A
C452   O497    1.291   .     A
C453   F477    1.359   .     S
C453   C454    1.400   .     A
C454   C455    1.401   .     A
C454   C463    1.419   .     S
C455   F478    1.358   .     S
C456   H486    1.084   .     S
C456   C457    1.394   .     A
C456   C119    1.371   1_565 S
C458   N494    1.378   .     A
C458   I489    2.117   .     S
C458   C347    1.418   1_655 S
C459   F479    1.354   .     S
C459   N493    1.361   .     A
C460   C470    1.404   .     A
C460   C973    1.415   .     S
C460   C975    1.414   .     S
C461   N493    1.377   .     A
C461   I490    2.117   .     S
C462   N494    1.361   .     A
C462   F480    1.351   .     S
C462   C349    1.416   1_655 S
C463   O499    1.286   .     A
C463   O500    1.287   .     A
C464   O502    1.292   .     A
C464   O501    1.300   .     A
C464   C466    1.459   .     S
C465   C476    1.411   .     A
C465   C976    1.416   1_554 S
C465   I995    2.149   1_554 S
C466   C476    1.415   .     A
C466   C475    1.389   .     A
C467   C468    1.392   .     A
C467   F481    1.358   .     S
C468   C973    1.396   .     S
C468   F987    1.356   .     S
C469   F482    1.356   .     S
C469   C972    1.396   1_554 S
C469   C964    1.415   1_554 S
C470   C474    1.407   .     A
C471   C475    1.401   .     A
C471   C964    1.414   1_554 S
C471   C976    1.422   1_554 S
C472   C473    1.404   .     A
C472   C975    1.422   .     S
C472   C969    1.416   .     S
C473   C474    1.389   .     A
C473   H487    1.079   .     S
C474   F484    1.356   .     S
C475   I492    2.151   .     S
C476   I488    2.146   .     S
F483   C972    1.356   1_554 S
I491   C969    2.149   .     S
N493   Zn503   2.019   .     S
N494   Zn504   2.019   .     S
O495   Zn503   2.000   .     S
O496   Zn504   1.997   .     S
O497   Zn503   1.941   .     S
O498   Zn504   1.892   .     S
O499   Zn503   1.997   .     S
O500   Zn504   2.000   .     S
O501   Zn503   1.892   .     S
O502   Zn504   1.941   .     S
C505   O552    1.284   .     A
C505   C513    1.417   .     S
C505   O551    1.289   .     A
C506   C508    1.462   .     S
C506   C526    1.406   .     A
C506   C523    1.405   .     A
C507   C513    1.400   .     A
C507   F541    1.357   .     S
C507   C677    1.369   .     S
C508   O554    1.301   .     A
C508   O553    1.291   .     A
C509   F533    1.359   .     S
C509   C510    1.400   .     A
C509   C843    1.369   1_545 S
C510   C511    1.401   .     A
C510   C519    1.419   .     S
C511   F534    1.358   .     S
C511   C848    1.371   1_545 S
C512   H542    1.084   .     S
C512   C513    1.394   .     A
C512   C679    1.371   .     S
C514   N550    1.378   .     A
C514   I545    2.117   .     S
C514   C571    1.418   .     S
C515   F535    1.354   .     S
C515   N549    1.361   .     A
C515   C626    1.418   1_455 S
C516   C526    1.404   .     A
C516   C21     1.415   1_556 S
C516   C23     1.414   1_556 S
C517   N549    1.377   .     A
C517   I546    2.117   .     S
C517   C630    1.416   1_455 S
C518   N550    1.361   .     A
C518   F536    1.351   .     S
C518   C573    1.416   .     S
C519   O555    1.286   .     A
C519   O556    1.287   .     A
C520   O558    1.292   .     A
C520   O557    1.300   .     A
C520   C522    1.459   .     S
C521   C532    1.411   .     A
C522   C532    1.415   .     A
C522   C531    1.389   .     A
C523   C524    1.392   .     A
C523   F537    1.358   .     S
C524   C21     1.396   1_556 S
C524   F35     1.356   1_556 S
C525   F538    1.356   .     S
C526   C530    1.407   .     A
C527   C531    1.401   .     A
C528   C529    1.404   .     A
C528   C23     1.422   1_556 S
C528   C17     1.416   1_556 S
C529   C530    1.389   .     A
C529   H543    1.079   .     S
C530   F540    1.356   .     S
C531   I548    2.151   .     S
C532   I544    2.146   .     S
I547   C17     2.149   1_556 S
N549   Zn559   2.019   .     S
N550   Zn560   2.019   .     S
O551   Zn559   2.000   .     S
O552   Zn560   1.997   .     S
O553   Zn559   1.941   .     S
O554   Zn560   1.892   .     S
O555   Zn559   1.997   .     S
O556   Zn560   2.000   .     S
O557   Zn559   1.892   .     S
O558   Zn560   1.941   .     S
C561   O608    1.284   .     A
C561   C569    1.417   .     S
C561   O607    1.289   .     A
C562   C564    1.462   .     S
C562   C582    1.406   .     A
C562   C579    1.405   .     A
C563   C569    1.400   .     A
C563   F597    1.357   .     S
C563   C733    1.369   .     S
C564   O610    1.301   .     A
C564   O609    1.291   .     A
C565   F589    1.359   .     S
C565   C566    1.400   .     A
C565   C899    1.369   1_545 S
C566   C567    1.401   .     A
C566   C575    1.419   .     S
C567   F590    1.358   .     S
C567   C904    1.371   1_545 S
C568   H598    1.084   .     S
C568   C569    1.394   .     A
C568   C735    1.371   .     S
C570   N606    1.378   .     A
C570   I601    2.117   .     S
C570   C627    1.418   .     S
C571   F591    1.354   .     S
C571   N605    1.361   .     A
C572   C582    1.404   .     A
C572   C77     1.415   1_556 S
C572   C79     1.414   1_556 S
C573   N605    1.377   .     A
C573   I602    2.117   .     S
C574   N606    1.361   .     A
C574   F592    1.351   .     S
C574   C629    1.416   .     S
C575   O611    1.286   .     A
C575   O612    1.287   .     A
C576   O614    1.292   .     A
C576   O613    1.300   .     A
C576   C578    1.459   .     S
C577   C588    1.411   .     A
C578   C588    1.415   .     A
C578   C587    1.389   .     A
C579   C580    1.392   .     A
C579   F593    1.358   .     S
C580   C77     1.396   1_556 S
C580   F91     1.356   1_556 S
C581   F594    1.356   .     S
C582   C586    1.407   .     A
C583   C587    1.401   .     A
C584   C585    1.404   .     A
C584   C79     1.422   1_556 S
C584   C73     1.416   1_556 S
C585   C586    1.389   .     A
C585   H599    1.079   .     S
C586   F596    1.356   .     S
C587   I604    2.151   .     S
C588   I600    2.146   .     S
I603   C73     2.149   1_556 S
N605   Zn615   2.019   .     S
N606   Zn616   2.019   .     S
O607   Zn615   2.000   .     S
O608   Zn616   1.997   .     S
O609   Zn615   1.941   .     S
O610   Zn616   1.892   .     S
O611   Zn615   1.997   .     S
O612   Zn616   2.000   .     S
O613   Zn615   1.892   .     S
O614   Zn616   1.941   .     S
C617   O664    1.284   .     A
C617   C625    1.417   .     S
C617   O663    1.289   .     A
C618   C620    1.462   .     S
C618   C638    1.406   .     A
C618   C635    1.405   .     A
C619   C625    1.400   .     A
C619   F653    1.357   .     S
C619   C789    1.369   .     S
C620   O666    1.301   .     A
C620   O665    1.291   .     A
C621   F645    1.359   .     S
C621   C622    1.400   .     A
C621   C955    1.369   1_545 S
C622   C623    1.401   .     A
C622   C631    1.419   .     S
C623   F646    1.358   .     S
C623   C960    1.371   1_545 S
C624   H654    1.084   .     S
C624   C625    1.394   .     A
C624   C791    1.371   .     S
C626   N662    1.378   .     A
C626   I657    2.117   .     S
C626   C515    1.418   1_655 S
C627   F647    1.354   .     S
C627   N661    1.361   .     A
C628   C638    1.404   .     A
C628   C133    1.415   1_556 S
C628   C135    1.414   1_556 S
C629   N661    1.377   .     A
C629   I658    2.117   .     S
C630   N662    1.361   .     A
C630   F648    1.351   .     S
C630   C517    1.416   1_655 S
C631   O667    1.286   .     A
C631   O668    1.287   .     A
C632   O670    1.292   .     A
C632   O669    1.300   .     A
C632   C634    1.459   .     S
C633   C644    1.411   .     A
C634   C644    1.415   .     A
C634   C643    1.389   .     A
C635   C636    1.392   .     A
C635   F649    1.358   .     S
C636   C133    1.396   1_556 S
C636   F147    1.356   1_556 S
C637   F650    1.356   .     S
C638   C642    1.407   .     A
C639   C643    1.401   .     A
C640   C641    1.404   .     A
C640   C135    1.422   1_556 S
C640   C129    1.416   1_556 S
C641   C642    1.389   .     A
C641   H655    1.079   .     S
C642   F652    1.356   .     S
C643   I660    2.151   .     S
C644   I656    2.146   .     S
I659   C129    2.149   1_556 S
N661   Zn671   2.019   .     S
N662   Zn672   2.019   .     S
O663   Zn671   2.000   .     S
O664   Zn672   1.997   .     S
O665   Zn671   1.941   .     S
O666   Zn672   1.892   .     S
O667   Zn671   1.997   .     S
O668   Zn672   2.000   .     S
O669   Zn671   1.892   .     S
O670   Zn672   1.941   .     S
C673   O720    1.284   .     A
C673   C681    1.417   .     S
C673   O719    1.289   .     A
C674   C676    1.462   .     S
C674   C694    1.406   .     A
C674   C691    1.405   .     A
C675   C681    1.400   .     A
C675   F709    1.357   .     S
C675   C845    1.369   .     S
C676   O722    1.301   .     A
C676   O721    1.291   .     A
C677   F701    1.359   .     S
C677   C678    1.400   .     A
C678   C679    1.401   .     A
C678   C687    1.419   .     S
C679   F702    1.358   .     S
C680   H710    1.084   .     S
C680   C681    1.394   .     A
C680   C847    1.371   .     S
C682   N718    1.378   .     A
C682   I713    2.117   .     S
C682   C739    1.418   .     S
C683   F703    1.354   .     S
C683   N717    1.361   .     A
C683   C794    1.418   1_455 S
C684   C694    1.404   .     A
C684   C189    1.415   1_556 S
C684   C191    1.414   1_556 S
C685   N717    1.377   .     A
C685   I714    2.117   .     S
C685   C798    1.416   1_455 S
C686   N718    1.361   .     A
C686   F704    1.351   .     S
C686   C741    1.416   .     S
C687   O723    1.286   .     A
C687   O724    1.287   .     A
C688   O726    1.292   .     A
C688   O725    1.300   .     A
C688   C690    1.459   .     S
C689   C700    1.411   .     A
C690   C700    1.415   .     A
C690   C699    1.389   .     A
C691   C692    1.392   .     A
C691   F705    1.358   .     S
C692   C189    1.396   1_556 S
C692   F203    1.356   1_556 S
C693   F706    1.356   .     S
C694   C698    1.407   .     A
C695   C699    1.401   .     A
C696   C697    1.404   .     A
C696   C191    1.422   1_556 S
C696   C185    1.416   1_556 S
C697   C698    1.389   .     A
C697   H711    1.079   .     S
C698   F708    1.356   .     S
C699   I716    2.151   .     S
C700   I712    2.146   .     S
I715   C185    2.149   1_556 S
N717   Zn727   2.019   .     S
N718   Zn728   2.019   .     S
O719   Zn727   2.000   .     S
O720   Zn728   1.997   .     S
O721   Zn727   1.941   .     S
O722   Zn728   1.892   .     S
O723   Zn727   1.997   .     S
O724   Zn728   2.000   .     S
O725   Zn727   1.892   .     S
O726   Zn728   1.941   .     S
C729   O776    1.284   .     A
C729   C737    1.417   .     S
C729   O775    1.289   .     A
C730   C732    1.462   .     S
C730   C750    1.406   .     A
C730   C747    1.405   .     A
C731   C737    1.400   .     A
C731   F765    1.357   .     S
C731   C901    1.369   .     S
C732   O778    1.301   .     A
C732   O777    1.291   .     A
C733   F757    1.359   .     S
C733   C734    1.400   .     A
C734   C735    1.401   .     A
C734   C743    1.419   .     S
C735   F758    1.358   .     S
C736   H766    1.084   .     S
C736   C737    1.394   .     A
C736   C903    1.371   .     S
C738   N774    1.378   .     A
C738   I769    2.117   .     S
C738   C795    1.418   .     S
C739   F759    1.354   .     S
C739   N773    1.361   .     A
C740   C750    1.404   .     A
C740   C245    1.415   1_556 S
C740   C247    1.414   1_556 S
C741   N773    1.377   .     A
C741   I770    2.117   .     S
C742   N774    1.361   .     A
C742   F760    1.351   .     S
C742   C797    1.416   .     S
C743   O779    1.286   .     A
C743   O780    1.287   .     A
C744   O782    1.292   .     A
C744   O781    1.300   .     A
C744   C746    1.459   .     S
C745   C756    1.411   .     A
C746   C756    1.415   .     A
C746   C755    1.389   .     A
C747   C748    1.392   .     A
C747   F761    1.358   .     S
C748   C245    1.396   1_556 S
C748   F259    1.356   1_556 S
C749   F762    1.356   .     S
C750   C754    1.407   .     A
C751   C755    1.401   .     A
C752   C753    1.404   .     A
C752   C247    1.422   1_556 S
C752   C241    1.416   1_556 S
C753   C754    1.389   .     A
C753   H767    1.079   .     S
C754   F764    1.356   .     S
C755   I772    2.151   .     S
C756   I768    2.146   .     S
I771   C241    2.149   1_556 S
N773   Zn783   2.019   .     S
N774   Zn784   2.019   .     S
O775   Zn783   2.000   .     S
O776   Zn784   1.997   .     S
O777   Zn783   1.941   .     S
O778   Zn784   1.892   .     S
O779   Zn783   1.997   .     S
O780   Zn784   2.000   .     S
O781   Zn783   1.892   .     S
O782   Zn784   1.941   .     S
C785   O832    1.284   .     A
C785   C793    1.417   .     S
C785   O831    1.289   .     A
C786   C788    1.462   .     S
C786   C806    1.406   .     A
C786   C803    1.405   .     A
C787   C793    1.400   .     A
C787   F821    1.357   .     S
C787   C957    1.369   .     S
C788   O834    1.301   .     A
C788   O833    1.291   .     A
C789   F813    1.359   .     S
C789   C790    1.400   .     A
C790   C791    1.401   .     A
C790   C799    1.419   .     S
C791   F814    1.358   .     S
C792   H822    1.084   .     S
C792   C793    1.394   .     A
C792   C959    1.371   .     S
C794   N830    1.378   .     A
C794   I825    2.117   .     S
C794   C683    1.418   1_655 S
C795   F815    1.354   .     S
C795   N829    1.361   .     A
C796   C806    1.404   .     A
C796   C301    1.415   1_556 S
C796   C303    1.414   1_556 S
C797   N829    1.377   .     A
C797   I826    2.117   .     S
C798   N830    1.361   .     A
C798   F816    1.351   .     S
C798   C685    1.416   1_655 S
C799   O835    1.286   .     A
C799   O836    1.287   .     A
C800   O838    1.292   .     A
C800   O837    1.300   .     A
C800   C802    1.459   .     S
C801   C812    1.411   .     A
C802   C812    1.415   .     A
C802   C811    1.389   .     A
C803   C804    1.392   .     A
C803   F817    1.358   .     S
C804   C301    1.396   1_556 S
C804   F315    1.356   1_556 S
C805   F818    1.356   .     S
C806   C810    1.407   .     A
C807   C811    1.401   .     A
C808   C809    1.404   .     A
C808   C303    1.422   1_556 S
C808   C297    1.416   1_556 S
C809   C810    1.389   .     A
C809   H823    1.079   .     S
C810   F820    1.356   .     S
C811   I828    2.151   .     S
C812   I824    2.146   .     S
I827   C297    2.149   1_556 S
N829   Zn839   2.019   .     S
N830   Zn840   2.019   .     S
O831   Zn839   2.000   .     S
O832   Zn840   1.997   .     S
O833   Zn839   1.941   .     S
O834   Zn840   1.892   .     S
O835   Zn839   1.997   .     S
O836   Zn840   2.000   .     S
O837   Zn839   1.892   .     S
O838   Zn840   1.941   .     S
C841   O888    1.284   .     A
C841   C849    1.417   .     S
C841   O887    1.289   .     A
C842   C844    1.462   .     S
C842   C862    1.406   .     A
C842   C859    1.405   .     A
C843   C849    1.400   .     A
C843   F877    1.357   .     S
C843   C509    1.369   1_565 S
C844   O890    1.301   .     A
C844   O889    1.291   .     A
C845   F869    1.359   .     S
C845   C846    1.400   .     A
C846   C847    1.401   .     A
C846   C855    1.419   .     S
C847   F870    1.358   .     S
C848   H878    1.084   .     S
C848   C849    1.394   .     A
C848   C511    1.371   1_565 S
C850   N886    1.378   .     A
C850   I881    2.117   .     S
C850   C907    1.418   .     S
C851   F871    1.354   .     S
C851   N885    1.361   .     A
C851   C962    1.418   1_455 S
C852   C862    1.404   .     A
C852   C357    1.415   1_556 S
C852   C359    1.414   1_556 S
C853   N885    1.377   .     A
C853   I882    2.117   .     S
C853   C966    1.416   1_455 S
C854   N886    1.361   .     A
C854   F872    1.351   .     S
C854   C909    1.416   .     S
C855   O891    1.286   .     A
C855   O892    1.287   .     A
C856   O894    1.292   .     A
C856   O893    1.300   .     A
C856   C858    1.459   .     S
C857   C868    1.411   .     A
C858   C868    1.415   .     A
C858   C867    1.389   .     A
C859   C860    1.392   .     A
C859   F873    1.358   .     S
C860   C357    1.396   1_556 S
C860   F371    1.356   1_556 S
C861   F874    1.356   .     S
C862   C866    1.407   .     A
C863   C867    1.401   .     A
C864   C865    1.404   .     A
C864   C359    1.422   1_556 S
C864   C353    1.416   1_556 S
C865   C866    1.389   .     A
C865   H879    1.079   .     S
C866   F876    1.356   .     S
C867   I884    2.151   .     S
C868   I880    2.146   .     S
I883   C353    2.149   1_556 S
N885   Zn895   2.019   .     S
N886   Zn896   2.019   .     S
O887   Zn895   2.000   .     S
O888   Zn896   1.997   .     S
O889   Zn895   1.941   .     S
O890   Zn896   1.892   .     S
O891   Zn895   1.997   .     S
O892   Zn896   2.000   .     S
O893   Zn895   1.892   .     S
O894   Zn896   1.941   .     S
C897   O944    1.284   .     A
C897   C905    1.417   .     S
C897   O943    1.289   .     A
C898   C900    1.462   .     S
C898   C918    1.406   .     A
C898   C915    1.405   .     A
C899   C905    1.400   .     A
C899   F933    1.357   .     S
C899   C565    1.369   1_565 S
C900   O946    1.301   .     A
C900   O945    1.291   .     A
C901   F925    1.359   .     S
C901   C902    1.400   .     A
C902   C903    1.401   .     A
C902   C911    1.419   .     S
C903   F926    1.358   .     S
C904   H934    1.084   .     S
C904   C905    1.394   .     A
C904   C567    1.371   1_565 S
C906   N942    1.378   .     A
C906   I937    2.117   .     S
C906   C963    1.418   .     S
C907   F927    1.354   .     S
C907   N941    1.361   .     A
C908   C918    1.404   .     A
C908   C413    1.415   1_556 S
C908   C415    1.414   1_556 S
C909   N941    1.377   .     A
C909   I938    2.117   .     S
C910   N942    1.361   .     A
C910   F928    1.351   .     S
C910   C965    1.416   .     S
C911   O947    1.286   .     A
C911   O948    1.287   .     A
C912   O950    1.292   .     A
C912   O949    1.300   .     A
C912   C914    1.459   .     S
C913   C924    1.411   .     A
C914   C924    1.415   .     A
C914   C923    1.389   .     A
C915   C916    1.392   .     A
C915   F929    1.358   .     S
C916   C413    1.396   1_556 S
C916   F427    1.356   1_556 S
C917   F930    1.356   .     S
C918   C922    1.407   .     A
C919   C923    1.401   .     A
C920   C921    1.404   .     A
C920   C415    1.422   1_556 S
C920   C409    1.416   1_556 S
C921   C922    1.389   .     A
C921   H935    1.079   .     S
C922   F932    1.356   .     S
C923   I940    2.151   .     S
C924   I936    2.146   .     S
I939   C409    2.149   1_556 S
N941   Zn951   2.019   .     S
N942   Zn952   2.019   .     S
O943   Zn951   2.000   .     S
O944   Zn952   1.997   .     S
O945   Zn951   1.941   .     S
O946   Zn952   1.892   .     S
O947   Zn951   1.997   .     S
O948   Zn952   2.000   .     S
O949   Zn951   1.892   .     S
O950   Zn952   1.941   .     S
C953   O1000   1.284   .     A
C953   C961    1.417   .     S
C953   O999    1.289   .     A
C954   C956    1.462   .     S
C954   C974    1.406   .     A
C954   C971    1.405   .     A
C955   C961    1.400   .     A
C955   F989    1.357   .     S
C955   C621    1.369   1_565 S
C956   O1002   1.301   .     A
C956   O1001   1.291   .     A
C957   F981    1.359   .     S
C957   C958    1.400   .     A
C958   C959    1.401   .     A
C958   C967    1.419   .     S
C959   F982    1.358   .     S
C960   H990    1.084   .     S
C960   C961    1.394   .     A
C960   C623    1.371   1_565 S
C962   N998    1.378   .     A
C962   I993    2.117   .     S
C962   C851    1.418   1_655 S
C963   F983    1.354   .     S
C963   N997    1.361   .     A
C964   C974    1.404   .     A
C964   C469    1.415   1_556 S
C964   C471    1.414   1_556 S
C965   N997    1.377   .     A
C965   I994    2.117   .     S
C966   N998    1.361   .     A
C966   F984    1.351   .     S
C966   C853    1.416   1_655 S
C967   O1003   1.286   .     A
C967   O1004   1.287   .     A
C968   O1006   1.292   .     A
C968   O1005   1.300   .     A
C968   C970    1.459   .     S
C969   C980    1.411   .     A
C970   C980    1.415   .     A
C970   C979    1.389   .     A
C971   C972    1.392   .     A
C971   F985    1.358   .     S
C972   C469    1.396   1_556 S
C972   F483    1.356   1_556 S
C973   F986    1.356   .     S
C974   C978    1.407   .     A
C975   C979    1.401   .     A
C976   C977    1.404   .     A
C976   C471    1.422   1_556 S
C976   C465    1.416   1_556 S
C977   C978    1.389   .     A
C977   H991    1.079   .     S
C978   F988    1.356   .     S
C979   I996    2.151   .     S
C980   I992    2.146   .     S
I995   C465    2.149   1_556 S
N997   Zn1007  2.019   .     S
N998   Zn1008  2.019   .     S
O999   Zn1007  2.000   .     S
O1000  Zn1008  1.997   .     S
O1001  Zn1007  1.941   .     S
O1002  Zn1008  1.892   .     S
O1003  Zn1007  1.997   .     S
O1004  Zn1008  2.000   .     S
O1005  Zn1007  1.892   .     S
O1006  Zn1008  1.941   .     S
