data_str_m1_o10_o18_pcu_sym.228
_audit_creation_date              2020-01-03
_audit_creation_method            'Materials Studio'
_symmetry_space_group_name_H-M    'P1'
_symmetry_Int_Tables_number       1
_symmetry_cell_setting            triclinic
loop_
_symmetry_equiv_pos_as_xyz
  x,y,z
_cell_length_a                    32.6464
_cell_length_b                    32.6223
_cell_length_c                    35.3021
_cell_angle_alpha                 98.7913
_cell_angle_beta                  73.2794
_cell_angle_gamma                 98.6541
loop_
_atom_site_label
_atom_site_type_symbol
_atom_site_fract_x
_atom_site_fract_y
_atom_site_fract_z
_atom_site_U_iso_or_equiv
_atom_site_adp_type
_atom_site_occupancy
C1     C     0.05266   0.15975   0.25854   0.00000  Uiso   1.00
C2     C     0.12978   0.10345   0.48437   0.00000  Uiso   1.00
C3     C     0.15206   0.08014   0.00044   0.00000  Uiso   1.00
C4     C     0.28097   0.17369   0.24156   0.00000  Uiso   1.00
C5     C     0.17256   0.09993   0.03001   0.00000  Uiso   1.00
C6     C     0.16541   0.14221   0.04594   0.00000  Uiso   1.00
C7     C     0.19607   0.07827   0.04733   0.00000  Uiso   1.00
C8     C     0.20382   0.09472   0.08369   0.00000  Uiso   1.00
C9     C     0.18079   0.16028   0.07948   0.00000  Uiso   1.00
C10    C     0.32642   0.17840   0.24056   0.00000  Uiso   1.00
C11    C     0.00706   0.15541   0.26212   0.00000  Uiso   1.00
C12    C     0.11476   0.23244   0.42028   0.00000  Uiso   1.00
C13    C     0.18038   0.32252   0.23925   0.00000  Uiso   1.00
C14    C     0.14940   0.01214   0.26257   0.00000  Uiso   1.00
C15    C     0.15540   0.05628   0.25913   0.00000  Uiso   1.00
C16    C     0.17675   0.27773   0.24160   0.00000  Uiso   1.00
C17    C     0.18792   0.14500   0.14372   0.00000  Uiso   1.00
C18    C     0.14486   0.18766   0.35669   0.00000  Uiso   1.00
C19    C     0.13078   0.19442   0.40111   0.00000  Uiso   1.00
C20    C     0.19435   0.13469   0.10072   0.00000  Uiso   1.00
C21    C     0.10090   0.23958   0.46173   0.00000  Uiso   1.00
C22    C     0.32492   0.11322   0.31336   0.00000  Uiso   1.00
C23    C     0.13136   0.16288   0.42474   0.00000  Uiso   1.00
C24    C     0.28881   0.08409   0.33669   0.00000  Uiso   1.00
C25    C     0.21456   0.00118   0.17513   0.00000  Uiso   1.00
C26    C     0.25146   0.02758   0.14946   0.00000  Uiso   1.00
C27    C     0.07595   0.01278   0.29388   0.00000  Uiso   1.00
C28    C     0.03732   0.32019   0.31805   0.00000  Uiso   1.00
C29    C     0.22082   0.22353   0.07289   0.00000  Uiso   1.00
C30    C     0.21467   0.26870   0.07219   0.00000  Uiso   1.00
C31    C     0.03643   0.26534   0.48358   0.00000  Uiso   1.00
C32    C     0.01439   0.30475   0.49955   0.00000  Uiso   1.00
C33    C     0.11563   0.09987   0.38865   0.00000  Uiso   1.00
C34    C     0.12433   0.17332   0.46699   0.00000  Uiso   1.00
C35    C     0.12759   0.05533   0.37856   0.00000  Uiso   1.00
C36    C     0.11081   0.21304   0.48508   0.00000  Uiso   1.00
C37    C     0.13438   0.14712   0.49137   0.00000  Uiso   1.00
C38    C     0.14322   0.16459   0.02767   0.00000  Uiso   1.00
C39    C     0.12540   0.20156   0.04610   0.00000  Uiso   1.00
C40    C     0.10871   0.22527   0.02585   0.00000  Uiso   1.00
Cl41   Cl    0.09007   0.27204   0.05333   0.00000  Uiso   1.00
Cl42   Cl    0.21812   0.03125   0.02568   0.00000  Uiso   1.00
Cl43   Cl    0.02822   0.21598   0.21171   0.00000  Uiso   1.00
Cl44   Cl    0.14568   0.02536   0.48792   0.00000  Uiso   1.00
Cl45   Cl    0.11399   0.27448   0.39403   0.00000  Uiso   1.00
Cl46   Cl    0.08033   0.07915   0.47658   0.00000  Uiso   1.00
H47    H     0.21665   0.07585   0.09931   0.00000  Uiso   1.00
H48    H     0.28274   0.02000   0.15152   0.00000  Uiso   1.00
H49    H     0.25052   0.02109   0.11790   0.00000  Uiso   1.00
H50    H     0.24867   0.06125   0.15962   0.00000  Uiso   1.00
H51    H     0.07064   0.01380   0.26426   0.00000  Uiso   1.00
H52    H     0.07789   0.04487   0.30987   0.00000  Uiso   1.00
H53    H     0.04128   0.31856   0.34797   0.00000  Uiso   1.00
H54    H     0.00754   0.00134   0.32163   0.00000  Uiso   1.00
H55    H     0.03416   0.28805   0.30254   0.00000  Uiso   1.00
H56    H     0.23347   0.20985   0.04134   0.00000  Uiso   1.00
H57    H     0.24517   0.22292   0.08922   0.00000  Uiso   1.00
H58    H     0.12174   0.21176   0.07725   0.00000  Uiso   1.00
H59    H     0.19839   0.28267   0.10245   0.00000  Uiso   1.00
H60    H     0.24638   0.28705   0.06139   0.00000  Uiso   1.00
H61    H     0.19458   0.27022   0.05196   0.00000  Uiso   1.00
H62    H     0.02268   0.24201   0.00522   0.00000  Uiso   1.00
H63    H     0.02925   0.25281   0.45470   0.00000  Uiso   1.00
H64    H     0.02691   0.32821   0.47808   0.00000  Uiso   1.00
H65    H     0.31250   0.29734   0.00371   0.00000  Uiso   1.00
H66    H     0.02046   0.31801   0.02860   0.00000  Uiso   1.00
H67    H     0.11491   0.11032   0.36055   0.00000  Uiso   1.00
H68    H     0.08220   0.09997   0.40816   0.00000  Uiso   1.00
H69    H     0.32988   0.14217   0.33360   0.00000  Uiso   1.00
H70    H     0.13275   0.04404   0.40473   0.00000  Uiso   1.00
H71    H     0.10142   0.03427   0.36917   0.00000  Uiso   1.00
H72    H     0.15775   0.05408   0.35399   0.00000  Uiso   1.00
H73    H     0.02131   0.09720   0.30345   0.00000  Uiso   1.00
H74    H     0.28332   0.05467   0.31745   0.00000  Uiso   1.00
H75    H     0.29760   0.07654   0.36277   0.00000  Uiso   1.00
H76    H     0.25863   0.09929   0.34735   0.00000  Uiso   1.00
H77    H     0.18374   0.00985   0.17265   0.00000  Uiso   1.00
H78    H     0.21747   0.30119   0.16330   0.00000  Uiso   1.00
O79    O     0.16667   0.16667   0.25000   0.00000  Uiso   1.00
O80    O     0.15693   0.12393   0.16625   0.00000  Uiso   1.00
O81    O     0.12687   0.20646   0.33749   0.00000  Uiso   1.00
O82    O     0.21088   0.17493   0.15877   0.00000  Uiso   1.00
O83    O     0.17198   0.16135   0.33749   0.00000  Uiso   1.00
O84    O     0.31338   0.12219   0.28010   0.00000  Uiso   1.00
O85    O     0.21728   0.00848   0.21483   0.00000  Uiso   1.00
O86    O     0.11360   0.32747   0.28983   0.00000  Uiso   1.00
O87    O     0.18125   0.20236   0.09287   0.00000  Uiso   1.00
O88    O     0.08118   0.27513   0.47874   0.00000  Uiso   1.00
O89    O     0.14627   0.12503   0.40642   0.00000  Uiso   1.00
O90    O     0.17849   0.08101   0.27820   0.00000  Uiso   1.00
O91    O     0.14581   0.26136   0.26767   0.00000  Uiso   1.00
O92    O     0.07452   0.13251   0.23607   0.00000  Uiso   1.00
O93    O     0.26785   0.19179   0.21805   0.00000  Uiso   1.00
O94    O     0.06990   0.18960   0.27820   0.00000  Uiso   1.00
O95    O     0.25440   0.15277   0.26767   0.00000  Uiso   1.00
O96    O     0.13800   0.06903   0.23607   0.00000  Uiso   1.00
O97    O     0.20437   0.25527   0.21805   0.00000  Uiso   1.00
Zn98   Zn    0.19244   0.14090   0.28277   0.00000  Uiso   1.00
Zn99   Zn    0.13459   0.12378   0.22257   0.00000  Uiso   1.00
Zn100  Zn    0.21166   0.19664   0.21188   0.00000  Uiso   1.00
Zn101  Zn    0.12798   0.20535   0.28277   0.00000  Uiso   1.00
C102   C     0.38599   0.15975   0.25854   0.00000  Uiso   1.00
C103   C     0.46311   0.10345   0.48437   0.00000  Uiso   1.00
C104   C     0.48539   0.08014   0.00044   0.00000  Uiso   1.00
C105   C     0.61430   0.17369   0.24156   0.00000  Uiso   1.00
C106   C     0.50589   0.09993   0.03001   0.00000  Uiso   1.00
C107   C     0.49875   0.14221   0.04594   0.00000  Uiso   1.00
C108   C     0.52941   0.07827   0.04733   0.00000  Uiso   1.00
C109   C     0.53715   0.09472   0.08369   0.00000  Uiso   1.00
C110   C     0.51413   0.16028   0.07948   0.00000  Uiso   1.00
C111   C     0.65975   0.17840   0.24056   0.00000  Uiso   1.00
C112   C     0.34040   0.15541   0.26212   0.00000  Uiso   1.00
C113   C     0.44810   0.23244   0.42028   0.00000  Uiso   1.00
C114   C     0.51371   0.32252   0.23925   0.00000  Uiso   1.00
C115   C     0.48273   0.01214   0.26257   0.00000  Uiso   1.00
C116   C     0.48874   0.05628   0.25913   0.00000  Uiso   1.00
C117   C     0.51008   0.27773   0.24160   0.00000  Uiso   1.00
C118   C     0.52125   0.14500   0.14372   0.00000  Uiso   1.00
C119   C     0.47819   0.18766   0.35669   0.00000  Uiso   1.00
C120   C     0.46412   0.19442   0.40111   0.00000  Uiso   1.00
C121   C     0.52768   0.13469   0.10072   0.00000  Uiso   1.00
C122   C     0.43423   0.23958   0.46173   0.00000  Uiso   1.00
C123   C     0.65826   0.11322   0.31336   0.00000  Uiso   1.00
C124   C     0.46469   0.16288   0.42474   0.00000  Uiso   1.00
C125   C     0.62215   0.08409   0.33669   0.00000  Uiso   1.00
C126   C     0.54789   0.00118   0.17513   0.00000  Uiso   1.00
C127   C     0.58479   0.02758   0.14946   0.00000  Uiso   1.00
C128   C     0.40928   0.01278   0.29388   0.00000  Uiso   1.00
C129   C     0.37066   0.32019   0.31805   0.00000  Uiso   1.00
C130   C     0.55415   0.22353   0.07289   0.00000  Uiso   1.00
C131   C     0.54800   0.26870   0.07219   0.00000  Uiso   1.00
C132   C     0.36976   0.26534   0.48358   0.00000  Uiso   1.00
C133   C     0.34773   0.30475   0.49955   0.00000  Uiso   1.00
C134   C     0.44897   0.09987   0.38865   0.00000  Uiso   1.00
C135   C     0.45767   0.17332   0.46699   0.00000  Uiso   1.00
C136   C     0.46093   0.05533   0.37856   0.00000  Uiso   1.00
C137   C     0.44415   0.21304   0.48508   0.00000  Uiso   1.00
C138   C     0.46772   0.14712   0.49137   0.00000  Uiso   1.00
C139   C     0.47656   0.16459   0.02767   0.00000  Uiso   1.00
C140   C     0.45873   0.20156   0.04610   0.00000  Uiso   1.00
C141   C     0.44204   0.22527   0.02585   0.00000  Uiso   1.00
Cl142  Cl    0.42341   0.27204   0.05333   0.00000  Uiso   1.00
Cl143  Cl    0.55145   0.03125   0.02568   0.00000  Uiso   1.00
Cl144  Cl    0.36156   0.21598   0.21171   0.00000  Uiso   1.00
Cl145  Cl    0.47901   0.02536   0.48792   0.00000  Uiso   1.00
Cl146  Cl    0.44732   0.27448   0.39403   0.00000  Uiso   1.00
Cl147  Cl    0.41366   0.07915   0.47658   0.00000  Uiso   1.00
H148   H     0.54998   0.07585   0.09931   0.00000  Uiso   1.00
H149   H     0.61607   0.02000   0.15152   0.00000  Uiso   1.00
H150   H     0.58385   0.02109   0.11790   0.00000  Uiso   1.00
H151   H     0.58200   0.06125   0.15962   0.00000  Uiso   1.00
H152   H     0.40397   0.01380   0.26426   0.00000  Uiso   1.00
H153   H     0.41123   0.04487   0.30987   0.00000  Uiso   1.00
H154   H     0.37461   0.31856   0.34797   0.00000  Uiso   1.00
H155   H     0.34088   0.00134   0.32163   0.00000  Uiso   1.00
H156   H     0.36749   0.28805   0.30254   0.00000  Uiso   1.00
H157   H     0.56680   0.20985   0.04134   0.00000  Uiso   1.00
H158   H     0.57850   0.22292   0.08922   0.00000  Uiso   1.00
H159   H     0.45507   0.21176   0.07725   0.00000  Uiso   1.00
H160   H     0.53172   0.28267   0.10245   0.00000  Uiso   1.00
H161   H     0.57972   0.28705   0.06139   0.00000  Uiso   1.00
H162   H     0.52791   0.27022   0.05196   0.00000  Uiso   1.00
H163   H     0.35602   0.24201   0.00522   0.00000  Uiso   1.00
H164   H     0.36258   0.25281   0.45470   0.00000  Uiso   1.00
H165   H     0.36025   0.32821   0.47808   0.00000  Uiso   1.00
H166   H     0.64584   0.29734   0.00371   0.00000  Uiso   1.00
H167   H     0.35379   0.31801   0.02860   0.00000  Uiso   1.00
H168   H     0.44824   0.11032   0.36055   0.00000  Uiso   1.00
H169   H     0.41554   0.09997   0.40816   0.00000  Uiso   1.00
H170   H     0.66321   0.14217   0.33360   0.00000  Uiso   1.00
H171   H     0.46608   0.04404   0.40473   0.00000  Uiso   1.00
H172   H     0.43476   0.03427   0.36917   0.00000  Uiso   1.00
H173   H     0.49108   0.05408   0.35399   0.00000  Uiso   1.00
H174   H     0.35465   0.09720   0.30345   0.00000  Uiso   1.00
H175   H     0.61665   0.05467   0.31745   0.00000  Uiso   1.00
H176   H     0.63094   0.07654   0.36277   0.00000  Uiso   1.00
H177   H     0.59197   0.09929   0.34735   0.00000  Uiso   1.00
H178   H     0.51707   0.00985   0.17265   0.00000  Uiso   1.00
H179   H     0.55080   0.30119   0.16330   0.00000  Uiso   1.00
O180   O     0.50000   0.16667   0.25000   0.00000  Uiso   1.00
O181   O     0.49027   0.12393   0.16625   0.00000  Uiso   1.00
O182   O     0.46020   0.20646   0.33749   0.00000  Uiso   1.00
O183   O     0.54421   0.17493   0.15877   0.00000  Uiso   1.00
O184   O     0.50532   0.16135   0.33749   0.00000  Uiso   1.00
O185   O     0.64671   0.12219   0.28010   0.00000  Uiso   1.00
O186   O     0.55061   0.00848   0.21483   0.00000  Uiso   1.00
O187   O     0.44694   0.32747   0.28983   0.00000  Uiso   1.00
O188   O     0.51458   0.20236   0.09287   0.00000  Uiso   1.00
O189   O     0.41451   0.27513   0.47874   0.00000  Uiso   1.00
O190   O     0.47960   0.12503   0.40642   0.00000  Uiso   1.00
O191   O     0.51182   0.08101   0.27820   0.00000  Uiso   1.00
O192   O     0.47914   0.26136   0.26767   0.00000  Uiso   1.00
O193   O     0.40785   0.13251   0.23607   0.00000  Uiso   1.00
O194   O     0.60119   0.19179   0.21805   0.00000  Uiso   1.00
O195   O     0.40323   0.18960   0.27820   0.00000  Uiso   1.00
O196   O     0.58773   0.15277   0.26767   0.00000  Uiso   1.00
O197   O     0.47133   0.06903   0.23607   0.00000  Uiso   1.00
O198   O     0.53771   0.25527   0.21805   0.00000  Uiso   1.00
Zn199  Zn    0.52577   0.14090   0.28277   0.00000  Uiso   1.00
Zn200  Zn    0.46792   0.12378   0.22257   0.00000  Uiso   1.00
Zn201  Zn    0.54500   0.19664   0.21188   0.00000  Uiso   1.00
Zn202  Zn    0.46131   0.20535   0.28277   0.00000  Uiso   1.00
C203   C     0.71932   0.15975   0.25854   0.00000  Uiso   1.00
C204   C     0.79644   0.10345   0.48437   0.00000  Uiso   1.00
C205   C     0.81873   0.08014   0.00044   0.00000  Uiso   1.00
C206   C     0.94764   0.17369   0.24156   0.00000  Uiso   1.00
C207   C     0.83922   0.09993   0.03001   0.00000  Uiso   1.00
C208   C     0.83208   0.14221   0.04594   0.00000  Uiso   1.00
C209   C     0.86274   0.07827   0.04733   0.00000  Uiso   1.00
C210   C     0.87049   0.09472   0.08369   0.00000  Uiso   1.00
C211   C     0.84746   0.16028   0.07948   0.00000  Uiso   1.00
C212   C     0.99308   0.17840   0.24056   0.00000  Uiso   1.00
C213   C     0.67373   0.15541   0.26212   0.00000  Uiso   1.00
C214   C     0.78143   0.23244   0.42028   0.00000  Uiso   1.00
C215   C     0.84705   0.32252   0.23925   0.00000  Uiso   1.00
C216   C     0.81607   0.01214   0.26257   0.00000  Uiso   1.00
C217   C     0.82207   0.05628   0.25913   0.00000  Uiso   1.00
C218   C     0.84341   0.27773   0.24160   0.00000  Uiso   1.00
C219   C     0.85459   0.14500   0.14372   0.00000  Uiso   1.00
C220   C     0.81153   0.18766   0.35669   0.00000  Uiso   1.00
C221   C     0.79745   0.19442   0.40111   0.00000  Uiso   1.00
C222   C     0.86102   0.13469   0.10072   0.00000  Uiso   1.00
C223   C     0.76756   0.23958   0.46173   0.00000  Uiso   1.00
C224   C     0.99159   0.11322   0.31336   0.00000  Uiso   1.00
C225   C     0.79803   0.16288   0.42474   0.00000  Uiso   1.00
C226   C     0.95548   0.08409   0.33669   0.00000  Uiso   1.00
C227   C     0.88122   0.00118   0.17513   0.00000  Uiso   1.00
C228   C     0.91813   0.02758   0.14946   0.00000  Uiso   1.00
C229   C     0.74262   0.01278   0.29388   0.00000  Uiso   1.00
C230   C     0.70399   0.32019   0.31805   0.00000  Uiso   1.00
C231   C     0.88748   0.22353   0.07289   0.00000  Uiso   1.00
C232   C     0.88134   0.26870   0.07219   0.00000  Uiso   1.00
C233   C     0.70310   0.26534   0.48358   0.00000  Uiso   1.00
C234   C     0.68106   0.30475   0.49955   0.00000  Uiso   1.00
C235   C     0.78230   0.09987   0.38865   0.00000  Uiso   1.00
C236   C     0.79100   0.17332   0.46699   0.00000  Uiso   1.00
C237   C     0.79426   0.05533   0.37856   0.00000  Uiso   1.00
C238   C     0.77748   0.21304   0.48508   0.00000  Uiso   1.00
C239   C     0.80105   0.14712   0.49137   0.00000  Uiso   1.00
C240   C     0.80989   0.16459   0.02767   0.00000  Uiso   1.00
C241   C     0.79207   0.20156   0.04610   0.00000  Uiso   1.00
C242   C     0.77538   0.22527   0.02585   0.00000  Uiso   1.00
Cl243  Cl    0.75674   0.27204   0.05333   0.00000  Uiso   1.00
Cl244  Cl    0.88479   0.03125   0.02568   0.00000  Uiso   1.00
Cl245  Cl    0.69489   0.21598   0.21171   0.00000  Uiso   1.00
Cl246  Cl    0.81235   0.02536   0.48792   0.00000  Uiso   1.00
Cl247  Cl    0.78066   0.27448   0.39403   0.00000  Uiso   1.00
Cl248  Cl    0.74700   0.07915   0.47658   0.00000  Uiso   1.00
H249   H     0.88332   0.07585   0.09931   0.00000  Uiso   1.00
H250   H     0.94940   0.02000   0.15152   0.00000  Uiso   1.00
H251   H     0.91718   0.02109   0.11790   0.00000  Uiso   1.00
H252   H     0.91534   0.06125   0.15962   0.00000  Uiso   1.00
H253   H     0.73731   0.01380   0.26426   0.00000  Uiso   1.00
H254   H     0.74456   0.04487   0.30987   0.00000  Uiso   1.00
H255   H     0.70795   0.31856   0.34797   0.00000  Uiso   1.00
H256   H     0.67421   0.00134   0.32163   0.00000  Uiso   1.00
H257   H     0.70082   0.28805   0.30254   0.00000  Uiso   1.00
H258   H     0.90014   0.20985   0.04134   0.00000  Uiso   1.00
H259   H     0.91184   0.22292   0.08922   0.00000  Uiso   1.00
H260   H     0.78840   0.21176   0.07725   0.00000  Uiso   1.00
H261   H     0.86505   0.28267   0.10245   0.00000  Uiso   1.00
H262   H     0.91305   0.28705   0.06139   0.00000  Uiso   1.00
H263   H     0.86125   0.27022   0.05196   0.00000  Uiso   1.00
H264   H     0.68935   0.24201   0.00522   0.00000  Uiso   1.00
H265   H     0.69591   0.25281   0.45470   0.00000  Uiso   1.00
H266   H     0.69358   0.32821   0.47808   0.00000  Uiso   1.00
H267   H     0.97917   0.29734   0.00371   0.00000  Uiso   1.00
H268   H     0.68713   0.31801   0.02860   0.00000  Uiso   1.00
H269   H     0.78158   0.11032   0.36055   0.00000  Uiso   1.00
H270   H     0.74887   0.09997   0.40816   0.00000  Uiso   1.00
H271   H     0.99654   0.14217   0.33360   0.00000  Uiso   1.00
H272   H     0.79941   0.04404   0.40473   0.00000  Uiso   1.00
H273   H     0.76809   0.03427   0.36917   0.00000  Uiso   1.00
H274   H     0.82441   0.05408   0.35399   0.00000  Uiso   1.00
H275   H     0.68798   0.09720   0.30345   0.00000  Uiso   1.00
H276   H     0.94999   0.05467   0.31745   0.00000  Uiso   1.00
H277   H     0.96427   0.07654   0.36277   0.00000  Uiso   1.00
H278   H     0.92530   0.09929   0.34735   0.00000  Uiso   1.00
H279   H     0.85040   0.00985   0.17265   0.00000  Uiso   1.00
H280   H     0.88413   0.30119   0.16330   0.00000  Uiso   1.00
O281   O     0.83333   0.16667   0.25000   0.00000  Uiso   1.00
O282   O     0.82360   0.12393   0.16625   0.00000  Uiso   1.00
O283   O     0.79354   0.20646   0.33749   0.00000  Uiso   1.00
O284   O     0.87755   0.17493   0.15877   0.00000  Uiso   1.00
O285   O     0.83865   0.16135   0.33749   0.00000  Uiso   1.00
O286   O     0.98004   0.12219   0.28010   0.00000  Uiso   1.00
O287   O     0.88395   0.00848   0.21483   0.00000  Uiso   1.00
O288   O     0.78027   0.32747   0.28983   0.00000  Uiso   1.00
O289   O     0.84792   0.20236   0.09287   0.00000  Uiso   1.00
O290   O     0.74784   0.27513   0.47874   0.00000  Uiso   1.00
O291   O     0.81293   0.12503   0.40642   0.00000  Uiso   1.00
O292   O     0.84515   0.08101   0.27820   0.00000  Uiso   1.00
O293   O     0.81247   0.26136   0.26767   0.00000  Uiso   1.00
O294   O     0.74119   0.13251   0.23607   0.00000  Uiso   1.00
O295   O     0.93452   0.19179   0.21805   0.00000  Uiso   1.00
O296   O     0.73656   0.18960   0.27820   0.00000  Uiso   1.00
O297   O     0.92106   0.15277   0.26767   0.00000  Uiso   1.00
O298   O     0.80467   0.06903   0.23607   0.00000  Uiso   1.00
O299   O     0.87104   0.25527   0.21805   0.00000  Uiso   1.00
Zn300  Zn    0.85910   0.14090   0.28277   0.00000  Uiso   1.00
Zn301  Zn    0.80125   0.12378   0.22257   0.00000  Uiso   1.00
Zn302  Zn    0.87833   0.19664   0.21188   0.00000  Uiso   1.00
Zn303  Zn    0.79465   0.20535   0.28277   0.00000  Uiso   1.00
C304   C     0.05266   0.49308   0.25854   0.00000  Uiso   1.00
C305   C     0.12978   0.43678   0.48437   0.00000  Uiso   1.00
C306   C     0.15206   0.41348   0.00044   0.00000  Uiso   1.00
C307   C     0.28097   0.50703   0.24156   0.00000  Uiso   1.00
C308   C     0.17256   0.43326   0.03001   0.00000  Uiso   1.00
C309   C     0.16541   0.47554   0.04594   0.00000  Uiso   1.00
C310   C     0.19607   0.41161   0.04733   0.00000  Uiso   1.00
C311   C     0.20382   0.42806   0.08369   0.00000  Uiso   1.00
C312   C     0.18079   0.49362   0.07948   0.00000  Uiso   1.00
C313   C     0.32642   0.51173   0.24056   0.00000  Uiso   1.00
C314   C     0.00706   0.48874   0.26212   0.00000  Uiso   1.00
C315   C     0.11476   0.56577   0.42028   0.00000  Uiso   1.00
C316   C     0.18038   0.65586   0.23925   0.00000  Uiso   1.00
C317   C     0.14940   0.34547   0.26257   0.00000  Uiso   1.00
C318   C     0.15540   0.38961   0.25913   0.00000  Uiso   1.00
C319   C     0.17675   0.61106   0.24160   0.00000  Uiso   1.00
C320   C     0.18792   0.47833   0.14372   0.00000  Uiso   1.00
C321   C     0.14486   0.52099   0.35669   0.00000  Uiso   1.00
C322   C     0.13078   0.52776   0.40111   0.00000  Uiso   1.00
C323   C     0.19435   0.46802   0.10072   0.00000  Uiso   1.00
C324   C     0.10090   0.57292   0.46173   0.00000  Uiso   1.00
C325   C     0.32492   0.44655   0.31336   0.00000  Uiso   1.00
C326   C     0.13136   0.49621   0.42474   0.00000  Uiso   1.00
C327   C     0.28881   0.41743   0.33669   0.00000  Uiso   1.00
C328   C     0.21456   0.33451   0.17513   0.00000  Uiso   1.00
C329   C     0.25146   0.36092   0.14946   0.00000  Uiso   1.00
C330   C     0.07595   0.34611   0.29388   0.00000  Uiso   1.00
C331   C     0.03732   0.65353   0.31805   0.00000  Uiso   1.00
C332   C     0.22082   0.55686   0.07289   0.00000  Uiso   1.00
C333   C     0.21467   0.60203   0.07219   0.00000  Uiso   1.00
C334   C     0.03643   0.59867   0.48358   0.00000  Uiso   1.00
C335   C     0.01439   0.63808   0.49955   0.00000  Uiso   1.00
C336   C     0.11563   0.43320   0.38865   0.00000  Uiso   1.00
C337   C     0.12433   0.50665   0.46699   0.00000  Uiso   1.00
C338   C     0.12759   0.38866   0.37856   0.00000  Uiso   1.00
C339   C     0.11081   0.54638   0.48508   0.00000  Uiso   1.00
C340   C     0.13438   0.48045   0.49137   0.00000  Uiso   1.00
C341   C     0.14322   0.49792   0.02767   0.00000  Uiso   1.00
C342   C     0.12540   0.53489   0.04610   0.00000  Uiso   1.00
C343   C     0.10871   0.55861   0.02585   0.00000  Uiso   1.00
Cl344  Cl    0.09007   0.60537   0.05333   0.00000  Uiso   1.00
Cl345  Cl    0.21812   0.36459   0.02568   0.00000  Uiso   1.00
Cl346  Cl    0.02822   0.54932   0.21171   0.00000  Uiso   1.00
Cl347  Cl    0.14568   0.35869   0.48792   0.00000  Uiso   1.00
Cl348  Cl    0.11399   0.60781   0.39403   0.00000  Uiso   1.00
Cl349  Cl    0.08033   0.41248   0.47658   0.00000  Uiso   1.00
H350   H     0.21665   0.40918   0.09931   0.00000  Uiso   1.00
H351   H     0.28274   0.35333   0.15152   0.00000  Uiso   1.00
H352   H     0.25052   0.35442   0.11790   0.00000  Uiso   1.00
H353   H     0.24867   0.39459   0.15962   0.00000  Uiso   1.00
H354   H     0.07064   0.34714   0.26426   0.00000  Uiso   1.00
H355   H     0.07789   0.37821   0.30987   0.00000  Uiso   1.00
H356   H     0.04128   0.65190   0.34797   0.00000  Uiso   1.00
H357   H     0.00754   0.33467   0.32163   0.00000  Uiso   1.00
H358   H     0.03416   0.62138   0.30254   0.00000  Uiso   1.00
H359   H     0.23347   0.54318   0.04134   0.00000  Uiso   1.00
H360   H     0.24517   0.55626   0.08922   0.00000  Uiso   1.00
H361   H     0.12174   0.54509   0.07725   0.00000  Uiso   1.00
H362   H     0.19839   0.61600   0.10245   0.00000  Uiso   1.00
H363   H     0.24638   0.62039   0.06139   0.00000  Uiso   1.00
H364   H     0.19458   0.60355   0.05196   0.00000  Uiso   1.00
H365   H     0.02268   0.57535   0.00522   0.00000  Uiso   1.00
H366   H     0.02925   0.58614   0.45470   0.00000  Uiso   1.00
H367   H     0.02691   0.66155   0.47808   0.00000  Uiso   1.00
H368   H     0.31250   0.63067   0.00371   0.00000  Uiso   1.00
H369   H     0.02046   0.65135   0.02860   0.00000  Uiso   1.00
H370   H     0.11491   0.44366   0.36055   0.00000  Uiso   1.00
H371   H     0.08220   0.43331   0.40816   0.00000  Uiso   1.00
H372   H     0.32988   0.47550   0.33360   0.00000  Uiso   1.00
H373   H     0.13275   0.37737   0.40473   0.00000  Uiso   1.00
H374   H     0.10142   0.36760   0.36917   0.00000  Uiso   1.00
H375   H     0.15775   0.38742   0.35399   0.00000  Uiso   1.00
H376   H     0.02131   0.43054   0.30345   0.00000  Uiso   1.00
H377   H     0.28332   0.38800   0.31745   0.00000  Uiso   1.00
H378   H     0.29760   0.40988   0.36277   0.00000  Uiso   1.00
H379   H     0.25863   0.43262   0.34735   0.00000  Uiso   1.00
H380   H     0.18374   0.34319   0.17265   0.00000  Uiso   1.00
H381   H     0.21747   0.63453   0.16330   0.00000  Uiso   1.00
O382   O     0.16667   0.50000   0.25000   0.00000  Uiso   1.00
O383   O     0.15693   0.45726   0.16625   0.00000  Uiso   1.00
O384   O     0.12687   0.53979   0.33749   0.00000  Uiso   1.00
O385   O     0.21088   0.50826   0.15877   0.00000  Uiso   1.00
O386   O     0.17198   0.49468   0.33749   0.00000  Uiso   1.00
O387   O     0.31338   0.45552   0.28010   0.00000  Uiso   1.00
O388   O     0.21728   0.34182   0.21483   0.00000  Uiso   1.00
O389   O     0.11360   0.66081   0.28983   0.00000  Uiso   1.00
O390   O     0.18125   0.53569   0.09287   0.00000  Uiso   1.00
O391   O     0.08118   0.60846   0.47874   0.00000  Uiso   1.00
O392   O     0.14627   0.45836   0.40642   0.00000  Uiso   1.00
O393   O     0.17849   0.41434   0.27820   0.00000  Uiso   1.00
O394   O     0.14581   0.59469   0.26767   0.00000  Uiso   1.00
O395   O     0.07452   0.46584   0.23607   0.00000  Uiso   1.00
O396   O     0.26785   0.52512   0.21805   0.00000  Uiso   1.00
O397   O     0.06990   0.52293   0.27820   0.00000  Uiso   1.00
O398   O     0.25440   0.48610   0.26767   0.00000  Uiso   1.00
O399   O     0.13800   0.40236   0.23607   0.00000  Uiso   1.00
O400   O     0.20437   0.58860   0.21805   0.00000  Uiso   1.00
Zn401  Zn    0.19244   0.47423   0.28277   0.00000  Uiso   1.00
Zn402  Zn    0.13459   0.45711   0.22257   0.00000  Uiso   1.00
Zn403  Zn    0.21166   0.52997   0.21188   0.00000  Uiso   1.00
Zn404  Zn    0.12798   0.53868   0.28277   0.00000  Uiso   1.00
C405   C     0.38599   0.49308   0.25854   0.00000  Uiso   1.00
C406   C     0.46311   0.43678   0.48437   0.00000  Uiso   1.00
C407   C     0.48539   0.41348   0.00044   0.00000  Uiso   1.00
C408   C     0.61430   0.50703   0.24156   0.00000  Uiso   1.00
C409   C     0.50589   0.43326   0.03001   0.00000  Uiso   1.00
C410   C     0.49875   0.47554   0.04594   0.00000  Uiso   1.00
C411   C     0.52941   0.41161   0.04733   0.00000  Uiso   1.00
C412   C     0.53715   0.42806   0.08369   0.00000  Uiso   1.00
C413   C     0.51413   0.49362   0.07948   0.00000  Uiso   1.00
C414   C     0.65975   0.51173   0.24056   0.00000  Uiso   1.00
C415   C     0.34040   0.48874   0.26212   0.00000  Uiso   1.00
C416   C     0.44810   0.56577   0.42028   0.00000  Uiso   1.00
C417   C     0.51371   0.65586   0.23925   0.00000  Uiso   1.00
C418   C     0.48273   0.34547   0.26257   0.00000  Uiso   1.00
C419   C     0.48874   0.38961   0.25913   0.00000  Uiso   1.00
C420   C     0.51008   0.61106   0.24160   0.00000  Uiso   1.00
C421   C     0.52125   0.47833   0.14372   0.00000  Uiso   1.00
C422   C     0.47819   0.52099   0.35669   0.00000  Uiso   1.00
C423   C     0.46412   0.52776   0.40111   0.00000  Uiso   1.00
C424   C     0.52768   0.46802   0.10072   0.00000  Uiso   1.00
C425   C     0.43423   0.57292   0.46173   0.00000  Uiso   1.00
C426   C     0.65826   0.44655   0.31336   0.00000  Uiso   1.00
C427   C     0.46469   0.49621   0.42474   0.00000  Uiso   1.00
C428   C     0.62215   0.41743   0.33669   0.00000  Uiso   1.00
C429   C     0.54789   0.33451   0.17513   0.00000  Uiso   1.00
C430   C     0.58479   0.36092   0.14946   0.00000  Uiso   1.00
C431   C     0.40928   0.34611   0.29388   0.00000  Uiso   1.00
C432   C     0.37066   0.65353   0.31805   0.00000  Uiso   1.00
C433   C     0.55415   0.55686   0.07289   0.00000  Uiso   1.00
C434   C     0.54800   0.60203   0.07219   0.00000  Uiso   1.00
C435   C     0.36976   0.59867   0.48358   0.00000  Uiso   1.00
C436   C     0.34773   0.63808   0.49955   0.00000  Uiso   1.00
C437   C     0.44897   0.43320   0.38865   0.00000  Uiso   1.00
C438   C     0.45767   0.50665   0.46699   0.00000  Uiso   1.00
C439   C     0.46093   0.38866   0.37856   0.00000  Uiso   1.00
C440   C     0.44415   0.54638   0.48508   0.00000  Uiso   1.00
C441   C     0.46772   0.48045   0.49137   0.00000  Uiso   1.00
C442   C     0.47656   0.49792   0.02767   0.00000  Uiso   1.00
C443   C     0.45873   0.53489   0.04610   0.00000  Uiso   1.00
C444   C     0.44204   0.55861   0.02585   0.00000  Uiso   1.00
Cl445  Cl    0.42341   0.60537   0.05333   0.00000  Uiso   1.00
Cl446  Cl    0.55145   0.36459   0.02568   0.00000  Uiso   1.00
Cl447  Cl    0.36156   0.54932   0.21171   0.00000  Uiso   1.00
Cl448  Cl    0.47901   0.35869   0.48792   0.00000  Uiso   1.00
Cl449  Cl    0.44732   0.60781   0.39403   0.00000  Uiso   1.00
Cl450  Cl    0.41366   0.41248   0.47658   0.00000  Uiso   1.00
H451   H     0.54998   0.40918   0.09931   0.00000  Uiso   1.00
H452   H     0.61607   0.35333   0.15152   0.00000  Uiso   1.00
H453   H     0.58385   0.35442   0.11790   0.00000  Uiso   1.00
H454   H     0.58200   0.39459   0.15962   0.00000  Uiso   1.00
H455   H     0.40397   0.34714   0.26426   0.00000  Uiso   1.00
H456   H     0.41123   0.37821   0.30987   0.00000  Uiso   1.00
H457   H     0.37461   0.65190   0.34797   0.00000  Uiso   1.00
H458   H     0.34088   0.33467   0.32163   0.00000  Uiso   1.00
H459   H     0.36749   0.62138   0.30254   0.00000  Uiso   1.00
H460   H     0.56680   0.54318   0.04134   0.00000  Uiso   1.00
H461   H     0.57850   0.55626   0.08922   0.00000  Uiso   1.00
H462   H     0.45507   0.54509   0.07725   0.00000  Uiso   1.00
H463   H     0.53172   0.61600   0.10245   0.00000  Uiso   1.00
H464   H     0.57972   0.62039   0.06139   0.00000  Uiso   1.00
H465   H     0.52791   0.60355   0.05196   0.00000  Uiso   1.00
H466   H     0.35602   0.57535   0.00522   0.00000  Uiso   1.00
H467   H     0.36258   0.58614   0.45470   0.00000  Uiso   1.00
H468   H     0.36025   0.66155   0.47808   0.00000  Uiso   1.00
H469   H     0.64584   0.63067   0.00371   0.00000  Uiso   1.00
H470   H     0.35379   0.65135   0.02860   0.00000  Uiso   1.00
H471   H     0.44824   0.44366   0.36055   0.00000  Uiso   1.00
H472   H     0.41554   0.43331   0.40816   0.00000  Uiso   1.00
H473   H     0.66321   0.47550   0.33360   0.00000  Uiso   1.00
H474   H     0.46608   0.37737   0.40473   0.00000  Uiso   1.00
H475   H     0.43476   0.36760   0.36917   0.00000  Uiso   1.00
H476   H     0.49108   0.38742   0.35399   0.00000  Uiso   1.00
H477   H     0.35465   0.43054   0.30345   0.00000  Uiso   1.00
H478   H     0.61665   0.38800   0.31745   0.00000  Uiso   1.00
H479   H     0.63094   0.40988   0.36277   0.00000  Uiso   1.00
H480   H     0.59197   0.43262   0.34735   0.00000  Uiso   1.00
H481   H     0.51707   0.34319   0.17265   0.00000  Uiso   1.00
H482   H     0.55080   0.63453   0.16330   0.00000  Uiso   1.00
O483   O     0.50000   0.50000   0.25000   0.00000  Uiso   1.00
O484   O     0.49027   0.45726   0.16625   0.00000  Uiso   1.00
O485   O     0.46020   0.53979   0.33749   0.00000  Uiso   1.00
O486   O     0.54421   0.50826   0.15877   0.00000  Uiso   1.00
O487   O     0.50532   0.49468   0.33749   0.00000  Uiso   1.00
O488   O     0.64671   0.45552   0.28010   0.00000  Uiso   1.00
O489   O     0.55061   0.34182   0.21483   0.00000  Uiso   1.00
O490   O     0.44694   0.66081   0.28983   0.00000  Uiso   1.00
O491   O     0.51458   0.53569   0.09287   0.00000  Uiso   1.00
O492   O     0.41451   0.60846   0.47874   0.00000  Uiso   1.00
O493   O     0.47960   0.45836   0.40642   0.00000  Uiso   1.00
O494   O     0.51182   0.41434   0.27820   0.00000  Uiso   1.00
O495   O     0.47914   0.59469   0.26767   0.00000  Uiso   1.00
O496   O     0.40785   0.46584   0.23607   0.00000  Uiso   1.00
O497   O     0.60119   0.52512   0.21805   0.00000  Uiso   1.00
O498   O     0.40323   0.52293   0.27820   0.00000  Uiso   1.00
O499   O     0.58773   0.48610   0.26767   0.00000  Uiso   1.00
O500   O     0.47133   0.40236   0.23607   0.00000  Uiso   1.00
O501   O     0.53771   0.58860   0.21805   0.00000  Uiso   1.00
Zn502  Zn    0.52577   0.47423   0.28277   0.00000  Uiso   1.00
Zn503  Zn    0.46792   0.45711   0.22257   0.00000  Uiso   1.00
Zn504  Zn    0.54500   0.52997   0.21188   0.00000  Uiso   1.00
Zn505  Zn    0.46131   0.53868   0.28277   0.00000  Uiso   1.00
C506   C     0.71932   0.49308   0.25854   0.00000  Uiso   1.00
C507   C     0.79644   0.43678   0.48437   0.00000  Uiso   1.00
C508   C     0.81873   0.41348   0.00044   0.00000  Uiso   1.00
C509   C     0.94764   0.50703   0.24156   0.00000  Uiso   1.00
C510   C     0.83922   0.43326   0.03001   0.00000  Uiso   1.00
C511   C     0.83208   0.47554   0.04594   0.00000  Uiso   1.00
C512   C     0.86274   0.41161   0.04733   0.00000  Uiso   1.00
C513   C     0.87049   0.42806   0.08369   0.00000  Uiso   1.00
C514   C     0.84746   0.49362   0.07948   0.00000  Uiso   1.00
C515   C     0.99308   0.51173   0.24056   0.00000  Uiso   1.00
C516   C     0.67373   0.48874   0.26212   0.00000  Uiso   1.00
C517   C     0.78143   0.56577   0.42028   0.00000  Uiso   1.00
C518   C     0.84705   0.65586   0.23925   0.00000  Uiso   1.00
C519   C     0.81607   0.34547   0.26257   0.00000  Uiso   1.00
C520   C     0.82207   0.38961   0.25913   0.00000  Uiso   1.00
C521   C     0.84341   0.61106   0.24160   0.00000  Uiso   1.00
C522   C     0.85459   0.47833   0.14372   0.00000  Uiso   1.00
C523   C     0.81153   0.52099   0.35669   0.00000  Uiso   1.00
C524   C     0.79745   0.52776   0.40111   0.00000  Uiso   1.00
C525   C     0.86102   0.46802   0.10072   0.00000  Uiso   1.00
C526   C     0.76756   0.57292   0.46173   0.00000  Uiso   1.00
C527   C     0.99159   0.44655   0.31336   0.00000  Uiso   1.00
C528   C     0.79803   0.49621   0.42474   0.00000  Uiso   1.00
C529   C     0.95548   0.41743   0.33669   0.00000  Uiso   1.00
C530   C     0.88122   0.33451   0.17513   0.00000  Uiso   1.00
C531   C     0.91813   0.36092   0.14946   0.00000  Uiso   1.00
C532   C     0.74262   0.34611   0.29388   0.00000  Uiso   1.00
C533   C     0.70399   0.65353   0.31805   0.00000  Uiso   1.00
C534   C     0.88748   0.55686   0.07289   0.00000  Uiso   1.00
C535   C     0.88134   0.60203   0.07219   0.00000  Uiso   1.00
C536   C     0.70310   0.59867   0.48358   0.00000  Uiso   1.00
C537   C     0.68106   0.63808   0.49955   0.00000  Uiso   1.00
C538   C     0.78230   0.43320   0.38865   0.00000  Uiso   1.00
C539   C     0.79100   0.50665   0.46699   0.00000  Uiso   1.00
C540   C     0.79426   0.38866   0.37856   0.00000  Uiso   1.00
C541   C     0.77748   0.54638   0.48508   0.00000  Uiso   1.00
C542   C     0.80105   0.48045   0.49137   0.00000  Uiso   1.00
C543   C     0.80989   0.49792   0.02767   0.00000  Uiso   1.00
C544   C     0.79207   0.53489   0.04610   0.00000  Uiso   1.00
C545   C     0.77538   0.55861   0.02585   0.00000  Uiso   1.00
Cl546  Cl    0.75674   0.60537   0.05333   0.00000  Uiso   1.00
Cl547  Cl    0.88479   0.36459   0.02568   0.00000  Uiso   1.00
Cl548  Cl    0.69489   0.54932   0.21171   0.00000  Uiso   1.00
Cl549  Cl    0.81235   0.35869   0.48792   0.00000  Uiso   1.00
Cl550  Cl    0.78066   0.60781   0.39403   0.00000  Uiso   1.00
Cl551  Cl    0.74700   0.41248   0.47658   0.00000  Uiso   1.00
H552   H     0.88332   0.40918   0.09931   0.00000  Uiso   1.00
H553   H     0.94940   0.35333   0.15152   0.00000  Uiso   1.00
H554   H     0.91718   0.35442   0.11790   0.00000  Uiso   1.00
H555   H     0.91534   0.39459   0.15962   0.00000  Uiso   1.00
H556   H     0.73731   0.34714   0.26426   0.00000  Uiso   1.00
H557   H     0.74456   0.37821   0.30987   0.00000  Uiso   1.00
H558   H     0.70795   0.65190   0.34797   0.00000  Uiso   1.00
H559   H     0.67421   0.33467   0.32163   0.00000  Uiso   1.00
H560   H     0.70082   0.62138   0.30254   0.00000  Uiso   1.00
H561   H     0.90014   0.54318   0.04134   0.00000  Uiso   1.00
H562   H     0.91184   0.55626   0.08922   0.00000  Uiso   1.00
H563   H     0.78840   0.54509   0.07725   0.00000  Uiso   1.00
H564   H     0.86505   0.61600   0.10245   0.00000  Uiso   1.00
H565   H     0.91305   0.62039   0.06139   0.00000  Uiso   1.00
H566   H     0.86125   0.60355   0.05196   0.00000  Uiso   1.00
H567   H     0.68935   0.57535   0.00522   0.00000  Uiso   1.00
H568   H     0.69591   0.58614   0.45470   0.00000  Uiso   1.00
H569   H     0.69358   0.66155   0.47808   0.00000  Uiso   1.00
H570   H     0.97917   0.63067   0.00371   0.00000  Uiso   1.00
H571   H     0.68713   0.65135   0.02860   0.00000  Uiso   1.00
H572   H     0.78158   0.44366   0.36055   0.00000  Uiso   1.00
H573   H     0.74887   0.43331   0.40816   0.00000  Uiso   1.00
H574   H     0.99654   0.47550   0.33360   0.00000  Uiso   1.00
H575   H     0.79941   0.37737   0.40473   0.00000  Uiso   1.00
H576   H     0.76809   0.36760   0.36917   0.00000  Uiso   1.00
H577   H     0.82441   0.38742   0.35399   0.00000  Uiso   1.00
H578   H     0.68798   0.43054   0.30345   0.00000  Uiso   1.00
H579   H     0.94999   0.38800   0.31745   0.00000  Uiso   1.00
H580   H     0.96427   0.40988   0.36277   0.00000  Uiso   1.00
H581   H     0.92530   0.43262   0.34735   0.00000  Uiso   1.00
H582   H     0.85040   0.34319   0.17265   0.00000  Uiso   1.00
H583   H     0.88413   0.63453   0.16330   0.00000  Uiso   1.00
O584   O     0.83333   0.50000   0.25000   0.00000  Uiso   1.00
O585   O     0.82360   0.45726   0.16625   0.00000  Uiso   1.00
O586   O     0.79354   0.53979   0.33749   0.00000  Uiso   1.00
O587   O     0.87755   0.50826   0.15877   0.00000  Uiso   1.00
O588   O     0.83865   0.49468   0.33749   0.00000  Uiso   1.00
O589   O     0.98004   0.45552   0.28010   0.00000  Uiso   1.00
O590   O     0.88395   0.34182   0.21483   0.00000  Uiso   1.00
O591   O     0.78027   0.66081   0.28983   0.00000  Uiso   1.00
O592   O     0.84792   0.53569   0.09287   0.00000  Uiso   1.00
O593   O     0.74784   0.60846   0.47874   0.00000  Uiso   1.00
O594   O     0.81293   0.45836   0.40642   0.00000  Uiso   1.00
O595   O     0.84515   0.41434   0.27820   0.00000  Uiso   1.00
O596   O     0.81247   0.59469   0.26767   0.00000  Uiso   1.00
O597   O     0.74119   0.46584   0.23607   0.00000  Uiso   1.00
O598   O     0.93452   0.52512   0.21805   0.00000  Uiso   1.00
O599   O     0.73656   0.52293   0.27820   0.00000  Uiso   1.00
O600   O     0.92106   0.48610   0.26767   0.00000  Uiso   1.00
O601   O     0.80467   0.40236   0.23607   0.00000  Uiso   1.00
O602   O     0.87104   0.58860   0.21805   0.00000  Uiso   1.00
Zn603  Zn    0.85910   0.47423   0.28277   0.00000  Uiso   1.00
Zn604  Zn    0.80125   0.45711   0.22257   0.00000  Uiso   1.00
Zn605  Zn    0.87833   0.52997   0.21188   0.00000  Uiso   1.00
Zn606  Zn    0.79465   0.53868   0.28277   0.00000  Uiso   1.00
C607   C     0.05266   0.82641   0.25854   0.00000  Uiso   1.00
C608   C     0.12978   0.77011   0.48437   0.00000  Uiso   1.00
C609   C     0.15206   0.74681   0.00044   0.00000  Uiso   1.00
C610   C     0.28097   0.84036   0.24156   0.00000  Uiso   1.00
C611   C     0.17256   0.76660   0.03001   0.00000  Uiso   1.00
C612   C     0.16541   0.80887   0.04594   0.00000  Uiso   1.00
C613   C     0.19607   0.74494   0.04733   0.00000  Uiso   1.00
C614   C     0.20382   0.76139   0.08369   0.00000  Uiso   1.00
C615   C     0.18079   0.82695   0.07948   0.00000  Uiso   1.00
C616   C     0.32642   0.84506   0.24056   0.00000  Uiso   1.00
C617   C     0.00706   0.82207   0.26212   0.00000  Uiso   1.00
C618   C     0.11476   0.89911   0.42028   0.00000  Uiso   1.00
C619   C     0.18038   0.98919   0.23925   0.00000  Uiso   1.00
C620   C     0.14940   0.67881   0.26257   0.00000  Uiso   1.00
C621   C     0.15540   0.72295   0.25913   0.00000  Uiso   1.00
C622   C     0.17675   0.94440   0.24160   0.00000  Uiso   1.00
C623   C     0.18792   0.81167   0.14372   0.00000  Uiso   1.00
C624   C     0.14486   0.85432   0.35669   0.00000  Uiso   1.00
C625   C     0.13078   0.86109   0.40111   0.00000  Uiso   1.00
C626   C     0.19435   0.80135   0.10072   0.00000  Uiso   1.00
C627   C     0.10090   0.90625   0.46173   0.00000  Uiso   1.00
C628   C     0.32492   0.77989   0.31336   0.00000  Uiso   1.00
C629   C     0.13136   0.82955   0.42474   0.00000  Uiso   1.00
C630   C     0.28881   0.75076   0.33669   0.00000  Uiso   1.00
C631   C     0.21456   0.66785   0.17513   0.00000  Uiso   1.00
C632   C     0.25146   0.69425   0.14946   0.00000  Uiso   1.00
C633   C     0.07595   0.67945   0.29388   0.00000  Uiso   1.00
C634   C     0.03732   0.98686   0.31805   0.00000  Uiso   1.00
C635   C     0.22082   0.89019   0.07289   0.00000  Uiso   1.00
C636   C     0.21467   0.93537   0.07219   0.00000  Uiso   1.00
C637   C     0.03643   0.93201   0.48358   0.00000  Uiso   1.00
C638   C     0.01439   0.97142   0.49955   0.00000  Uiso   1.00
C639   C     0.11563   0.76654   0.38865   0.00000  Uiso   1.00
C640   C     0.12433   0.83999   0.46699   0.00000  Uiso   1.00
C641   C     0.12759   0.72200   0.37856   0.00000  Uiso   1.00
C642   C     0.11081   0.87971   0.48508   0.00000  Uiso   1.00
C643   C     0.13438   0.81378   0.49137   0.00000  Uiso   1.00
C644   C     0.14322   0.83126   0.02767   0.00000  Uiso   1.00
C645   C     0.12540   0.86823   0.04610   0.00000  Uiso   1.00
C646   C     0.10871   0.89194   0.02585   0.00000  Uiso   1.00
Cl647  Cl    0.09007   0.93870   0.05333   0.00000  Uiso   1.00
Cl648  Cl    0.21812   0.69792   0.02568   0.00000  Uiso   1.00
Cl649  Cl    0.02822   0.88265   0.21171   0.00000  Uiso   1.00
Cl650  Cl    0.14568   0.69203   0.48792   0.00000  Uiso   1.00
Cl651  Cl    0.11399   0.94114   0.39403   0.00000  Uiso   1.00
Cl652  Cl    0.08033   0.74582   0.47658   0.00000  Uiso   1.00
H653   H     0.21665   0.74251   0.09931   0.00000  Uiso   1.00
H654   H     0.28274   0.68666   0.15152   0.00000  Uiso   1.00
H655   H     0.25052   0.68775   0.11790   0.00000  Uiso   1.00
H656   H     0.24867   0.72792   0.15962   0.00000  Uiso   1.00
H657   H     0.07064   0.68047   0.26426   0.00000  Uiso   1.00
H658   H     0.07789   0.71154   0.30987   0.00000  Uiso   1.00
H659   H     0.04128   0.98523   0.34797   0.00000  Uiso   1.00
H660   H     0.00754   0.66800   0.32163   0.00000  Uiso   1.00
H661   H     0.03416   0.95472   0.30254   0.00000  Uiso   1.00
H662   H     0.23347   0.87652   0.04134   0.00000  Uiso   1.00
H663   H     0.24517   0.88959   0.08922   0.00000  Uiso   1.00
H664   H     0.12174   0.87842   0.07725   0.00000  Uiso   1.00
H665   H     0.19839   0.94933   0.10245   0.00000  Uiso   1.00
H666   H     0.24638   0.95372   0.06139   0.00000  Uiso   1.00
H667   H     0.19458   0.93689   0.05196   0.00000  Uiso   1.00
H668   H     0.02268   0.90868   0.00522   0.00000  Uiso   1.00
H669   H     0.02925   0.91948   0.45470   0.00000  Uiso   1.00
H670   H     0.02691   0.99488   0.47808   0.00000  Uiso   1.00
H671   H     0.31250   0.96401   0.00371   0.00000  Uiso   1.00
H672   H     0.02046   0.98468   0.02860   0.00000  Uiso   1.00
H673   H     0.11491   0.77699   0.36055   0.00000  Uiso   1.00
H674   H     0.08220   0.76664   0.40816   0.00000  Uiso   1.00
H675   H     0.32988   0.80884   0.33360   0.00000  Uiso   1.00
H676   H     0.13275   0.71071   0.40473   0.00000  Uiso   1.00
H677   H     0.10142   0.70094   0.36917   0.00000  Uiso   1.00
H678   H     0.15775   0.72075   0.35399   0.00000  Uiso   1.00
H679   H     0.02131   0.76387   0.30345   0.00000  Uiso   1.00
H680   H     0.28332   0.72134   0.31745   0.00000  Uiso   1.00
H681   H     0.29760   0.74321   0.36277   0.00000  Uiso   1.00
H682   H     0.25863   0.76595   0.34735   0.00000  Uiso   1.00
H683   H     0.18374   0.67652   0.17265   0.00000  Uiso   1.00
H684   H     0.21747   0.96786   0.16330   0.00000  Uiso   1.00
O685   O     0.16667   0.83333   0.25000   0.00000  Uiso   1.00
O686   O     0.15693   0.79060   0.16625   0.00000  Uiso   1.00
O687   O     0.12687   0.87313   0.33749   0.00000  Uiso   1.00
O688   O     0.21088   0.84159   0.15877   0.00000  Uiso   1.00
O689   O     0.17198   0.82802   0.33749   0.00000  Uiso   1.00
O690   O     0.31338   0.78886   0.28010   0.00000  Uiso   1.00
O691   O     0.21728   0.67515   0.21483   0.00000  Uiso   1.00
O692   O     0.11360   0.99414   0.28983   0.00000  Uiso   1.00
O693   O     0.18125   0.86903   0.09287   0.00000  Uiso   1.00
O694   O     0.08118   0.94179   0.47874   0.00000  Uiso   1.00
O695   O     0.14627   0.79170   0.40642   0.00000  Uiso   1.00
O696   O     0.17849   0.74768   0.27820   0.00000  Uiso   1.00
O697   O     0.14581   0.92803   0.26767   0.00000  Uiso   1.00
O698   O     0.07452   0.79917   0.23607   0.00000  Uiso   1.00
O699   O     0.26785   0.85845   0.21805   0.00000  Uiso   1.00
O700   O     0.06990   0.85627   0.27820   0.00000  Uiso   1.00
O701   O     0.25440   0.81944   0.26767   0.00000  Uiso   1.00
O702   O     0.13800   0.73570   0.23607   0.00000  Uiso   1.00
O703   O     0.20437   0.92193   0.21805   0.00000  Uiso   1.00
Zn704  Zn    0.19244   0.80756   0.28277   0.00000  Uiso   1.00
Zn705  Zn    0.13459   0.79044   0.22257   0.00000  Uiso   1.00
Zn706  Zn    0.21166   0.86331   0.21188   0.00000  Uiso   1.00
Zn707  Zn    0.12798   0.87202   0.28277   0.00000  Uiso   1.00
C708   C     0.38599   0.82641   0.25854   0.00000  Uiso   1.00
C709   C     0.46311   0.77011   0.48437   0.00000  Uiso   1.00
C710   C     0.48539   0.74681   0.00044   0.00000  Uiso   1.00
C711   C     0.61430   0.84036   0.24156   0.00000  Uiso   1.00
C712   C     0.50589   0.76660   0.03001   0.00000  Uiso   1.00
C713   C     0.49875   0.80887   0.04594   0.00000  Uiso   1.00
C714   C     0.52941   0.74494   0.04733   0.00000  Uiso   1.00
C715   C     0.53715   0.76139   0.08369   0.00000  Uiso   1.00
C716   C     0.51413   0.82695   0.07948   0.00000  Uiso   1.00
C717   C     0.65975   0.84506   0.24056   0.00000  Uiso   1.00
C718   C     0.34040   0.82207   0.26212   0.00000  Uiso   1.00
C719   C     0.44810   0.89911   0.42028   0.00000  Uiso   1.00
C720   C     0.51371   0.98919   0.23925   0.00000  Uiso   1.00
C721   C     0.48273   0.67881   0.26257   0.00000  Uiso   1.00
C722   C     0.48874   0.72295   0.25913   0.00000  Uiso   1.00
C723   C     0.51008   0.94440   0.24160   0.00000  Uiso   1.00
C724   C     0.52125   0.81167   0.14372   0.00000  Uiso   1.00
C725   C     0.47819   0.85432   0.35669   0.00000  Uiso   1.00
C726   C     0.46412   0.86109   0.40111   0.00000  Uiso   1.00
C727   C     0.52768   0.80135   0.10072   0.00000  Uiso   1.00
C728   C     0.43423   0.90625   0.46173   0.00000  Uiso   1.00
C729   C     0.65826   0.77989   0.31336   0.00000  Uiso   1.00
C730   C     0.46469   0.82955   0.42474   0.00000  Uiso   1.00
C731   C     0.62215   0.75076   0.33669   0.00000  Uiso   1.00
C732   C     0.54789   0.66785   0.17513   0.00000  Uiso   1.00
C733   C     0.58479   0.69425   0.14946   0.00000  Uiso   1.00
C734   C     0.40928   0.67945   0.29388   0.00000  Uiso   1.00
C735   C     0.37066   0.98686   0.31805   0.00000  Uiso   1.00
C736   C     0.55415   0.89019   0.07289   0.00000  Uiso   1.00
C737   C     0.54800   0.93537   0.07219   0.00000  Uiso   1.00
C738   C     0.36976   0.93201   0.48358   0.00000  Uiso   1.00
C739   C     0.34773   0.97142   0.49955   0.00000  Uiso   1.00
C740   C     0.44897   0.76654   0.38865   0.00000  Uiso   1.00
C741   C     0.45767   0.83999   0.46699   0.00000  Uiso   1.00
C742   C     0.46093   0.72200   0.37856   0.00000  Uiso   1.00
C743   C     0.44415   0.87971   0.48508   0.00000  Uiso   1.00
C744   C     0.46772   0.81378   0.49137   0.00000  Uiso   1.00
C745   C     0.47656   0.83126   0.02767   0.00000  Uiso   1.00
C746   C     0.45873   0.86823   0.04610   0.00000  Uiso   1.00
C747   C     0.44204   0.89194   0.02585   0.00000  Uiso   1.00
Cl748  Cl    0.42341   0.93870   0.05333   0.00000  Uiso   1.00
Cl749  Cl    0.55145   0.69792   0.02568   0.00000  Uiso   1.00
Cl750  Cl    0.36156   0.88265   0.21171   0.00000  Uiso   1.00
Cl751  Cl    0.47901   0.69203   0.48792   0.00000  Uiso   1.00
Cl752  Cl    0.44732   0.94114   0.39403   0.00000  Uiso   1.00
Cl753  Cl    0.41366   0.74582   0.47658   0.00000  Uiso   1.00
H754   H     0.54998   0.74251   0.09931   0.00000  Uiso   1.00
H755   H     0.61607   0.68666   0.15152   0.00000  Uiso   1.00
H756   H     0.58385   0.68775   0.11790   0.00000  Uiso   1.00
H757   H     0.58200   0.72792   0.15962   0.00000  Uiso   1.00
H758   H     0.40397   0.68047   0.26426   0.00000  Uiso   1.00
H759   H     0.41123   0.71154   0.30987   0.00000  Uiso   1.00
H760   H     0.37461   0.98523   0.34797   0.00000  Uiso   1.00
H761   H     0.34088   0.66800   0.32163   0.00000  Uiso   1.00
H762   H     0.36749   0.95472   0.30254   0.00000  Uiso   1.00
H763   H     0.56680   0.87652   0.04134   0.00000  Uiso   1.00
H764   H     0.57850   0.88959   0.08922   0.00000  Uiso   1.00
H765   H     0.45507   0.87842   0.07725   0.00000  Uiso   1.00
H766   H     0.53172   0.94933   0.10245   0.00000  Uiso   1.00
H767   H     0.57972   0.95372   0.06139   0.00000  Uiso   1.00
H768   H     0.52791   0.93689   0.05196   0.00000  Uiso   1.00
H769   H     0.35602   0.90868   0.00522   0.00000  Uiso   1.00
H770   H     0.36258   0.91948   0.45470   0.00000  Uiso   1.00
H771   H     0.36025   0.99488   0.47808   0.00000  Uiso   1.00
H772   H     0.64584   0.96401   0.00371   0.00000  Uiso   1.00
H773   H     0.35379   0.98468   0.02860   0.00000  Uiso   1.00
H774   H     0.44824   0.77699   0.36055   0.00000  Uiso   1.00
H775   H     0.41554   0.76664   0.40816   0.00000  Uiso   1.00
H776   H     0.66321   0.80884   0.33360   0.00000  Uiso   1.00
H777   H     0.46608   0.71071   0.40473   0.00000  Uiso   1.00
H778   H     0.43476   0.70094   0.36917   0.00000  Uiso   1.00
H779   H     0.49108   0.72075   0.35399   0.00000  Uiso   1.00
H780   H     0.35465   0.76387   0.30345   0.00000  Uiso   1.00
H781   H     0.61665   0.72134   0.31745   0.00000  Uiso   1.00
H782   H     0.63094   0.74321   0.36277   0.00000  Uiso   1.00
H783   H     0.59197   0.76595   0.34735   0.00000  Uiso   1.00
H784   H     0.51707   0.67652   0.17265   0.00000  Uiso   1.00
H785   H     0.55080   0.96786   0.16330   0.00000  Uiso   1.00
O786   O     0.50000   0.83333   0.25000   0.00000  Uiso   1.00
O787   O     0.49027   0.79060   0.16625   0.00000  Uiso   1.00
O788   O     0.46020   0.87313   0.33749   0.00000  Uiso   1.00
O789   O     0.54421   0.84159   0.15877   0.00000  Uiso   1.00
O790   O     0.50532   0.82802   0.33749   0.00000  Uiso   1.00
O791   O     0.64671   0.78886   0.28010   0.00000  Uiso   1.00
O792   O     0.55061   0.67515   0.21483   0.00000  Uiso   1.00
O793   O     0.44694   0.99414   0.28983   0.00000  Uiso   1.00
O794   O     0.51458   0.86903   0.09287   0.00000  Uiso   1.00
O795   O     0.41451   0.94179   0.47874   0.00000  Uiso   1.00
O796   O     0.47960   0.79170   0.40642   0.00000  Uiso   1.00
O797   O     0.51182   0.74768   0.27820   0.00000  Uiso   1.00
O798   O     0.47914   0.92803   0.26767   0.00000  Uiso   1.00
O799   O     0.40785   0.79917   0.23607   0.00000  Uiso   1.00
O800   O     0.60119   0.85845   0.21805   0.00000  Uiso   1.00
O801   O     0.40323   0.85627   0.27820   0.00000  Uiso   1.00
O802   O     0.58773   0.81944   0.26767   0.00000  Uiso   1.00
O803   O     0.47133   0.73570   0.23607   0.00000  Uiso   1.00
O804   O     0.53771   0.92193   0.21805   0.00000  Uiso   1.00
Zn805  Zn    0.52577   0.80756   0.28277   0.00000  Uiso   1.00
Zn806  Zn    0.46792   0.79044   0.22257   0.00000  Uiso   1.00
Zn807  Zn    0.54500   0.86331   0.21188   0.00000  Uiso   1.00
Zn808  Zn    0.46131   0.87202   0.28277   0.00000  Uiso   1.00
C809   C     0.71932   0.82641   0.25854   0.00000  Uiso   1.00
C810   C     0.79644   0.77011   0.48437   0.00000  Uiso   1.00
C811   C     0.81873   0.74681   0.00044   0.00000  Uiso   1.00
C812   C     0.94764   0.84036   0.24156   0.00000  Uiso   1.00
C813   C     0.83922   0.76660   0.03001   0.00000  Uiso   1.00
C814   C     0.83208   0.80887   0.04594   0.00000  Uiso   1.00
C815   C     0.86274   0.74494   0.04733   0.00000  Uiso   1.00
C816   C     0.87049   0.76139   0.08369   0.00000  Uiso   1.00
C817   C     0.84746   0.82695   0.07948   0.00000  Uiso   1.00
C818   C     0.99308   0.84506   0.24056   0.00000  Uiso   1.00
C819   C     0.67373   0.82207   0.26212   0.00000  Uiso   1.00
C820   C     0.78143   0.89911   0.42028   0.00000  Uiso   1.00
C821   C     0.84705   0.98919   0.23925   0.00000  Uiso   1.00
C822   C     0.81607   0.67881   0.26257   0.00000  Uiso   1.00
C823   C     0.82207   0.72295   0.25913   0.00000  Uiso   1.00
C824   C     0.84341   0.94440   0.24160   0.00000  Uiso   1.00
C825   C     0.85459   0.81167   0.14372   0.00000  Uiso   1.00
C826   C     0.81153   0.85432   0.35669   0.00000  Uiso   1.00
C827   C     0.79745   0.86109   0.40111   0.00000  Uiso   1.00
C828   C     0.86102   0.80135   0.10072   0.00000  Uiso   1.00
C829   C     0.76756   0.90625   0.46173   0.00000  Uiso   1.00
C830   C     0.99159   0.77989   0.31336   0.00000  Uiso   1.00
C831   C     0.79803   0.82955   0.42474   0.00000  Uiso   1.00
C832   C     0.95548   0.75076   0.33669   0.00000  Uiso   1.00
C833   C     0.88122   0.66785   0.17513   0.00000  Uiso   1.00
C834   C     0.91813   0.69425   0.14946   0.00000  Uiso   1.00
C835   C     0.74262   0.67945   0.29388   0.00000  Uiso   1.00
C836   C     0.70399   0.98686   0.31805   0.00000  Uiso   1.00
C837   C     0.88748   0.89019   0.07289   0.00000  Uiso   1.00
C838   C     0.88134   0.93537   0.07219   0.00000  Uiso   1.00
C839   C     0.70310   0.93201   0.48358   0.00000  Uiso   1.00
C840   C     0.68106   0.97142   0.49955   0.00000  Uiso   1.00
C841   C     0.78230   0.76654   0.38865   0.00000  Uiso   1.00
C842   C     0.79100   0.83999   0.46699   0.00000  Uiso   1.00
C843   C     0.79426   0.72200   0.37856   0.00000  Uiso   1.00
C844   C     0.77748   0.87971   0.48508   0.00000  Uiso   1.00
C845   C     0.80105   0.81378   0.49137   0.00000  Uiso   1.00
C846   C     0.80989   0.83126   0.02767   0.00000  Uiso   1.00
C847   C     0.79207   0.86823   0.04610   0.00000  Uiso   1.00
C848   C     0.77538   0.89194   0.02585   0.00000  Uiso   1.00
Cl849  Cl    0.75674   0.93870   0.05333   0.00000  Uiso   1.00
Cl850  Cl    0.88479   0.69792   0.02568   0.00000  Uiso   1.00
Cl851  Cl    0.69489   0.88265   0.21171   0.00000  Uiso   1.00
Cl852  Cl    0.81235   0.69203   0.48792   0.00000  Uiso   1.00
Cl853  Cl    0.78066   0.94114   0.39403   0.00000  Uiso   1.00
Cl854  Cl    0.74700   0.74582   0.47658   0.00000  Uiso   1.00
H855   H     0.88332   0.74251   0.09931   0.00000  Uiso   1.00
H856   H     0.94940   0.68666   0.15152   0.00000  Uiso   1.00
H857   H     0.91718   0.68775   0.11790   0.00000  Uiso   1.00
H858   H     0.91534   0.72792   0.15962   0.00000  Uiso   1.00
H859   H     0.73731   0.68047   0.26426   0.00000  Uiso   1.00
H860   H     0.74456   0.71154   0.30987   0.00000  Uiso   1.00
H861   H     0.70795   0.98523   0.34797   0.00000  Uiso   1.00
H862   H     0.67421   0.66800   0.32163   0.00000  Uiso   1.00
H863   H     0.70082   0.95472   0.30254   0.00000  Uiso   1.00
H864   H     0.90014   0.87652   0.04134   0.00000  Uiso   1.00
H865   H     0.91184   0.88959   0.08922   0.00000  Uiso   1.00
H866   H     0.78840   0.87842   0.07725   0.00000  Uiso   1.00
H867   H     0.86505   0.94933   0.10245   0.00000  Uiso   1.00
H868   H     0.91305   0.95372   0.06139   0.00000  Uiso   1.00
H869   H     0.86125   0.93689   0.05196   0.00000  Uiso   1.00
H870   H     0.68935   0.90868   0.00522   0.00000  Uiso   1.00
H871   H     0.69591   0.91948   0.45470   0.00000  Uiso   1.00
H872   H     0.69358   0.99488   0.47808   0.00000  Uiso   1.00
H873   H     0.97917   0.96401   0.00371   0.00000  Uiso   1.00
H874   H     0.68713   0.98468   0.02860   0.00000  Uiso   1.00
H875   H     0.78158   0.77699   0.36055   0.00000  Uiso   1.00
H876   H     0.74887   0.76664   0.40816   0.00000  Uiso   1.00
H877   H     0.99654   0.80884   0.33360   0.00000  Uiso   1.00
H878   H     0.79941   0.71071   0.40473   0.00000  Uiso   1.00
H879   H     0.76809   0.70094   0.36917   0.00000  Uiso   1.00
H880   H     0.82441   0.72075   0.35399   0.00000  Uiso   1.00
H881   H     0.68798   0.76387   0.30345   0.00000  Uiso   1.00
H882   H     0.94999   0.72134   0.31745   0.00000  Uiso   1.00
H883   H     0.96427   0.74321   0.36277   0.00000  Uiso   1.00
H884   H     0.92530   0.76595   0.34735   0.00000  Uiso   1.00
H885   H     0.85040   0.67652   0.17265   0.00000  Uiso   1.00
H886   H     0.88413   0.96786   0.16330   0.00000  Uiso   1.00
O887   O     0.83333   0.83333   0.25000   0.00000  Uiso   1.00
O888   O     0.82360   0.79060   0.16625   0.00000  Uiso   1.00
O889   O     0.79354   0.87313   0.33749   0.00000  Uiso   1.00
O890   O     0.87755   0.84159   0.15877   0.00000  Uiso   1.00
O891   O     0.83865   0.82802   0.33749   0.00000  Uiso   1.00
O892   O     0.98004   0.78886   0.28010   0.00000  Uiso   1.00
O893   O     0.88395   0.67515   0.21483   0.00000  Uiso   1.00
O894   O     0.78027   0.99414   0.28983   0.00000  Uiso   1.00
O895   O     0.84792   0.86903   0.09287   0.00000  Uiso   1.00
O896   O     0.74784   0.94179   0.47874   0.00000  Uiso   1.00
O897   O     0.81293   0.79170   0.40642   0.00000  Uiso   1.00
O898   O     0.84515   0.74768   0.27820   0.00000  Uiso   1.00
O899   O     0.81247   0.92803   0.26767   0.00000  Uiso   1.00
O900   O     0.74119   0.79917   0.23607   0.00000  Uiso   1.00
O901   O     0.93452   0.85845   0.21805   0.00000  Uiso   1.00
O902   O     0.73656   0.85627   0.27820   0.00000  Uiso   1.00
O903   O     0.92106   0.81944   0.26767   0.00000  Uiso   1.00
O904   O     0.80467   0.73570   0.23607   0.00000  Uiso   1.00
O905   O     0.87104   0.92193   0.21805   0.00000  Uiso   1.00
Zn906  Zn    0.85910   0.80756   0.28277   0.00000  Uiso   1.00
Zn907  Zn    0.80125   0.79044   0.22257   0.00000  Uiso   1.00
Zn908  Zn    0.87833   0.86331   0.21188   0.00000  Uiso   1.00
Zn909  Zn    0.79465   0.87202   0.28277   0.00000  Uiso   1.00
C910   C     0.05266   0.15975   0.75854   0.00000  Uiso   1.00
C911   C     0.12978   0.10345   0.98437   0.00000  Uiso   1.00
C912   C     0.15206   0.08014   0.50044   0.00000  Uiso   1.00
C913   C     0.28097   0.17369   0.74156   0.00000  Uiso   1.00
C914   C     0.17256   0.09993   0.53001   0.00000  Uiso   1.00
C915   C     0.16541   0.14221   0.54594   0.00000  Uiso   1.00
C916   C     0.19607   0.07827   0.54733   0.00000  Uiso   1.00
C917   C     0.20382   0.09472   0.58369   0.00000  Uiso   1.00
C918   C     0.18079   0.16028   0.57948   0.00000  Uiso   1.00
C919   C     0.32642   0.17840   0.74056   0.00000  Uiso   1.00
C920   C     0.00706   0.15541   0.76212   0.00000  Uiso   1.00
C921   C     0.11476   0.23244   0.92028   0.00000  Uiso   1.00
C922   C     0.18038   0.32252   0.73925   0.00000  Uiso   1.00
C923   C     0.14940   0.01214   0.76257   0.00000  Uiso   1.00
C924   C     0.15540   0.05628   0.75913   0.00000  Uiso   1.00
C925   C     0.17675   0.27773   0.74160   0.00000  Uiso   1.00
C926   C     0.18792   0.14500   0.64372   0.00000  Uiso   1.00
C927   C     0.14486   0.18766   0.85669   0.00000  Uiso   1.00
C928   C     0.13078   0.19442   0.90111   0.00000  Uiso   1.00
C929   C     0.19435   0.13469   0.60072   0.00000  Uiso   1.00
C930   C     0.10090   0.23958   0.96173   0.00000  Uiso   1.00
C931   C     0.32492   0.11322   0.81336   0.00000  Uiso   1.00
C932   C     0.13136   0.16288   0.92474   0.00000  Uiso   1.00
C933   C     0.28881   0.08409   0.83669   0.00000  Uiso   1.00
C934   C     0.21456   0.00118   0.67513   0.00000  Uiso   1.00
C935   C     0.25146   0.02758   0.64946   0.00000  Uiso   1.00
C936   C     0.07595   0.01278   0.79388   0.00000  Uiso   1.00
C937   C     0.03732   0.32019   0.81805   0.00000  Uiso   1.00
C938   C     0.22082   0.22353   0.57289   0.00000  Uiso   1.00
C939   C     0.21467   0.26870   0.57219   0.00000  Uiso   1.00
C940   C     0.03643   0.26534   0.98358   0.00000  Uiso   1.00
C941   C     0.01439   0.30475   0.99955   0.00000  Uiso   1.00
C942   C     0.11563   0.09987   0.88865   0.00000  Uiso   1.00
C943   C     0.12433   0.17332   0.96699   0.00000  Uiso   1.00
C944   C     0.12759   0.05533   0.87856   0.00000  Uiso   1.00
C945   C     0.11081   0.21304   0.98508   0.00000  Uiso   1.00
C946   C     0.13438   0.14712   0.99137   0.00000  Uiso   1.00
C947   C     0.14322   0.16459   0.52767   0.00000  Uiso   1.00
C948   C     0.12540   0.20156   0.54610   0.00000  Uiso   1.00
C949   C     0.10871   0.22527   0.52585   0.00000  Uiso   1.00
Cl950  Cl    0.09007   0.27204   0.55333   0.00000  Uiso   1.00
Cl951  Cl    0.21812   0.03125   0.52568   0.00000  Uiso   1.00
Cl952  Cl    0.02822   0.21598   0.71171   0.00000  Uiso   1.00
Cl953  Cl    0.14568   0.02536   0.98792   0.00000  Uiso   1.00
Cl954  Cl    0.11399   0.27448   0.89403   0.00000  Uiso   1.00
Cl955  Cl    0.08033   0.07915   0.97658   0.00000  Uiso   1.00
H956   H     0.21665   0.07585   0.59931   0.00000  Uiso   1.00
H957   H     0.28274   0.02000   0.65152   0.00000  Uiso   1.00
H958   H     0.25052   0.02109   0.61790   0.00000  Uiso   1.00
H959   H     0.24867   0.06125   0.65962   0.00000  Uiso   1.00
H960   H     0.07064   0.01380   0.76426   0.00000  Uiso   1.00
H961   H     0.07789   0.04487   0.80987   0.00000  Uiso   1.00
H962   H     0.04128   0.31856   0.84797   0.00000  Uiso   1.00
H963   H     0.00754   0.00134   0.82163   0.00000  Uiso   1.00
H964   H     0.03416   0.28805   0.80254   0.00000  Uiso   1.00
H965   H     0.23347   0.20985   0.54134   0.00000  Uiso   1.00
H966   H     0.24517   0.22292   0.58922   0.00000  Uiso   1.00
H967   H     0.12174   0.21176   0.57725   0.00000  Uiso   1.00
H968   H     0.19839   0.28267   0.60245   0.00000  Uiso   1.00
H969   H     0.24638   0.28705   0.56139   0.00000  Uiso   1.00
H970   H     0.19458   0.27022   0.55196   0.00000  Uiso   1.00
H971   H     0.02268   0.24201   0.50522   0.00000  Uiso   1.00
H972   H     0.02925   0.25281   0.95470   0.00000  Uiso   1.00
H973   H     0.02691   0.32821   0.97808   0.00000  Uiso   1.00
H974   H     0.31250   0.29734   0.50371   0.00000  Uiso   1.00
H975   H     0.02046   0.31801   0.52860   0.00000  Uiso   1.00
H976   H     0.11491   0.11032   0.86055   0.00000  Uiso   1.00
H977   H     0.08220   0.09997   0.90816   0.00000  Uiso   1.00
H978   H     0.32988   0.14217   0.83360   0.00000  Uiso   1.00
H979   H     0.13275   0.04404   0.90473   0.00000  Uiso   1.00
H980   H     0.10142   0.03427   0.86917   0.00000  Uiso   1.00
H981   H     0.15775   0.05408   0.85399   0.00000  Uiso   1.00
H982   H     0.02131   0.09720   0.80345   0.00000  Uiso   1.00
H983   H     0.28332   0.05467   0.81745   0.00000  Uiso   1.00
H984   H     0.29760   0.07654   0.86277   0.00000  Uiso   1.00
H985   H     0.25863   0.09929   0.84735   0.00000  Uiso   1.00
H986   H     0.18374   0.00985   0.67265   0.00000  Uiso   1.00
H987   H     0.21747   0.30119   0.66330   0.00000  Uiso   1.00
O988   O     0.16667   0.16667   0.75000   0.00000  Uiso   1.00
O989   O     0.15693   0.12393   0.66625   0.00000  Uiso   1.00
O990   O     0.12687   0.20646   0.83749   0.00000  Uiso   1.00
O991   O     0.21088   0.17493   0.65877   0.00000  Uiso   1.00
O992   O     0.17198   0.16135   0.83749   0.00000  Uiso   1.00
O993   O     0.31338   0.12219   0.78010   0.00000  Uiso   1.00
O994   O     0.21728   0.00848   0.71483   0.00000  Uiso   1.00
O995   O     0.11360   0.32747   0.78983   0.00000  Uiso   1.00
O996   O     0.18125   0.20236   0.59287   0.00000  Uiso   1.00
O997   O     0.08118   0.27513   0.97874   0.00000  Uiso   1.00
O998   O     0.14627   0.12503   0.90642   0.00000  Uiso   1.00
O999   O     0.17849   0.08101   0.77820   0.00000  Uiso   1.00
O1000  O     0.14581   0.26136   0.76767   0.00000  Uiso   1.00
O1001  O     0.07452   0.13251   0.73607   0.00000  Uiso   1.00
O1002  O     0.26785   0.19179   0.71805   0.00000  Uiso   1.00
O1003  O     0.06990   0.18960   0.77820   0.00000  Uiso   1.00
O1004  O     0.25440   0.15277   0.76767   0.00000  Uiso   1.00
O1005  O     0.13800   0.06903   0.73607   0.00000  Uiso   1.00
O1006  O     0.20437   0.25527   0.71805   0.00000  Uiso   1.00
Zn1007 Zn    0.19244   0.14090   0.78277   0.00000  Uiso   1.00
Zn1008 Zn    0.13459   0.12378   0.72257   0.00000  Uiso   1.00
Zn1009 Zn    0.21166   0.19664   0.71188   0.00000  Uiso   1.00
Zn1010 Zn    0.12798   0.20535   0.78277   0.00000  Uiso   1.00
C1011  C     0.38599   0.15975   0.75854   0.00000  Uiso   1.00
C1012  C     0.46311   0.10345   0.98437   0.00000  Uiso   1.00
C1013  C     0.48539   0.08014   0.50044   0.00000  Uiso   1.00
C1014  C     0.61430   0.17369   0.74156   0.00000  Uiso   1.00
C1015  C     0.50589   0.09993   0.53001   0.00000  Uiso   1.00
C1016  C     0.49875   0.14221   0.54594   0.00000  Uiso   1.00
C1017  C     0.52941   0.07827   0.54733   0.00000  Uiso   1.00
C1018  C     0.53715   0.09472   0.58369   0.00000  Uiso   1.00
C1019  C     0.51413   0.16028   0.57948   0.00000  Uiso   1.00
C1020  C     0.65975   0.17840   0.74056   0.00000  Uiso   1.00
C1021  C     0.34040   0.15541   0.76212   0.00000  Uiso   1.00
C1022  C     0.44810   0.23244   0.92028   0.00000  Uiso   1.00
C1023  C     0.51371   0.32252   0.73925   0.00000  Uiso   1.00
C1024  C     0.48273   0.01214   0.76257   0.00000  Uiso   1.00
C1025  C     0.48874   0.05628   0.75913   0.00000  Uiso   1.00
C1026  C     0.51008   0.27773   0.74160   0.00000  Uiso   1.00
C1027  C     0.52125   0.14500   0.64372   0.00000  Uiso   1.00
C1028  C     0.47819   0.18766   0.85669   0.00000  Uiso   1.00
C1029  C     0.46412   0.19442   0.90111   0.00000  Uiso   1.00
C1030  C     0.52768   0.13469   0.60072   0.00000  Uiso   1.00
C1031  C     0.43423   0.23958   0.96173   0.00000  Uiso   1.00
C1032  C     0.65826   0.11322   0.81336   0.00000  Uiso   1.00
C1033  C     0.46469   0.16288   0.92474   0.00000  Uiso   1.00
C1034  C     0.62215   0.08409   0.83669   0.00000  Uiso   1.00
C1035  C     0.54789   0.00118   0.67513   0.00000  Uiso   1.00
C1036  C     0.58479   0.02758   0.64946   0.00000  Uiso   1.00
C1037  C     0.40928   0.01278   0.79388   0.00000  Uiso   1.00
C1038  C     0.37066   0.32019   0.81805   0.00000  Uiso   1.00
C1039  C     0.55415   0.22353   0.57289   0.00000  Uiso   1.00
C1040  C     0.54800   0.26870   0.57219   0.00000  Uiso   1.00
C1041  C     0.36976   0.26534   0.98358   0.00000  Uiso   1.00
C1042  C     0.34773   0.30475   0.99955   0.00000  Uiso   1.00
C1043  C     0.44897   0.09987   0.88865   0.00000  Uiso   1.00
C1044  C     0.45767   0.17332   0.96699   0.00000  Uiso   1.00
C1045  C     0.46093   0.05533   0.87856   0.00000  Uiso   1.00
C1046  C     0.44415   0.21304   0.98508   0.00000  Uiso   1.00
C1047  C     0.46772   0.14712   0.99137   0.00000  Uiso   1.00
C1048  C     0.47656   0.16459   0.52767   0.00000  Uiso   1.00
C1049  C     0.45873   0.20156   0.54610   0.00000  Uiso   1.00
C1050  C     0.44204   0.22527   0.52585   0.00000  Uiso   1.00
Cl1051 Cl    0.42341   0.27204   0.55333   0.00000  Uiso   1.00
Cl1052 Cl    0.55145   0.03125   0.52568   0.00000  Uiso   1.00
Cl1053 Cl    0.36156   0.21598   0.71171   0.00000  Uiso   1.00
Cl1054 Cl    0.47901   0.02536   0.98792   0.00000  Uiso   1.00
Cl1055 Cl    0.44732   0.27448   0.89403   0.00000  Uiso   1.00
Cl1056 Cl    0.41366   0.07915   0.97658   0.00000  Uiso   1.00
H1057  H     0.54998   0.07585   0.59931   0.00000  Uiso   1.00
H1058  H     0.61607   0.02000   0.65152   0.00000  Uiso   1.00
H1059  H     0.58385   0.02109   0.61790   0.00000  Uiso   1.00
H1060  H     0.58200   0.06125   0.65962   0.00000  Uiso   1.00
H1061  H     0.40397   0.01380   0.76426   0.00000  Uiso   1.00
H1062  H     0.41123   0.04487   0.80987   0.00000  Uiso   1.00
H1063  H     0.37461   0.31856   0.84797   0.00000  Uiso   1.00
H1064  H     0.34088   0.00134   0.82163   0.00000  Uiso   1.00
H1065  H     0.36749   0.28805   0.80254   0.00000  Uiso   1.00
H1066  H     0.56680   0.20985   0.54134   0.00000  Uiso   1.00
H1067  H     0.57850   0.22292   0.58922   0.00000  Uiso   1.00
H1068  H     0.45507   0.21176   0.57725   0.00000  Uiso   1.00
H1069  H     0.53172   0.28267   0.60245   0.00000  Uiso   1.00
H1070  H     0.57972   0.28705   0.56139   0.00000  Uiso   1.00
H1071  H     0.52791   0.27022   0.55196   0.00000  Uiso   1.00
H1072  H     0.35602   0.24201   0.50522   0.00000  Uiso   1.00
H1073  H     0.36258   0.25281   0.95470   0.00000  Uiso   1.00
H1074  H     0.36025   0.32821   0.97808   0.00000  Uiso   1.00
H1075  H     0.64584   0.29734   0.50371   0.00000  Uiso   1.00
H1076  H     0.35379   0.31801   0.52860   0.00000  Uiso   1.00
H1077  H     0.44824   0.11032   0.86055   0.00000  Uiso   1.00
H1078  H     0.41554   0.09997   0.90816   0.00000  Uiso   1.00
H1079  H     0.66321   0.14217   0.83360   0.00000  Uiso   1.00
H1080  H     0.46608   0.04404   0.90473   0.00000  Uiso   1.00
H1081  H     0.43476   0.03427   0.86917   0.00000  Uiso   1.00
H1082  H     0.49108   0.05408   0.85399   0.00000  Uiso   1.00
H1083  H     0.35465   0.09720   0.80345   0.00000  Uiso   1.00
H1084  H     0.61665   0.05467   0.81745   0.00000  Uiso   1.00
H1085  H     0.63094   0.07654   0.86277   0.00000  Uiso   1.00
H1086  H     0.59197   0.09929   0.84735   0.00000  Uiso   1.00
H1087  H     0.51707   0.00985   0.67265   0.00000  Uiso   1.00
H1088  H     0.55080   0.30119   0.66330   0.00000  Uiso   1.00
O1089  O     0.50000   0.16667   0.75000   0.00000  Uiso   1.00
O1090  O     0.49027   0.12393   0.66625   0.00000  Uiso   1.00
O1091  O     0.46020   0.20646   0.83749   0.00000  Uiso   1.00
O1092  O     0.54421   0.17493   0.65877   0.00000  Uiso   1.00
O1093  O     0.50532   0.16135   0.83749   0.00000  Uiso   1.00
O1094  O     0.64671   0.12219   0.78010   0.00000  Uiso   1.00
O1095  O     0.55061   0.00848   0.71483   0.00000  Uiso   1.00
O1096  O     0.44694   0.32747   0.78983   0.00000  Uiso   1.00
O1097  O     0.51458   0.20236   0.59287   0.00000  Uiso   1.00
O1098  O     0.41451   0.27513   0.97874   0.00000  Uiso   1.00
O1099  O     0.47960   0.12503   0.90642   0.00000  Uiso   1.00
O1100  O     0.51182   0.08101   0.77820   0.00000  Uiso   1.00
O1101  O     0.47914   0.26136   0.76767   0.00000  Uiso   1.00
O1102  O     0.40785   0.13251   0.73607   0.00000  Uiso   1.00
O1103  O     0.60119   0.19179   0.71805   0.00000  Uiso   1.00
O1104  O     0.40323   0.18960   0.77820   0.00000  Uiso   1.00
O1105  O     0.58773   0.15277   0.76767   0.00000  Uiso   1.00
O1106  O     0.47133   0.06903   0.73607   0.00000  Uiso   1.00
O1107  O     0.53771   0.25527   0.71805   0.00000  Uiso   1.00
Zn1108 Zn    0.52577   0.14090   0.78277   0.00000  Uiso   1.00
Zn1109 Zn    0.46792   0.12378   0.72257   0.00000  Uiso   1.00
Zn1110 Zn    0.54500   0.19664   0.71188   0.00000  Uiso   1.00
Zn1111 Zn    0.46131   0.20535   0.78277   0.00000  Uiso   1.00
C1112  C     0.71932   0.15975   0.75854   0.00000  Uiso   1.00
C1113  C     0.79644   0.10345   0.98437   0.00000  Uiso   1.00
C1114  C     0.81873   0.08014   0.50044   0.00000  Uiso   1.00
C1115  C     0.94764   0.17369   0.74156   0.00000  Uiso   1.00
C1116  C     0.83922   0.09993   0.53001   0.00000  Uiso   1.00
C1117  C     0.83208   0.14221   0.54594   0.00000  Uiso   1.00
C1118  C     0.86274   0.07827   0.54733   0.00000  Uiso   1.00
C1119  C     0.87049   0.09472   0.58369   0.00000  Uiso   1.00
C1120  C     0.84746   0.16028   0.57948   0.00000  Uiso   1.00
C1121  C     0.99308   0.17840   0.74056   0.00000  Uiso   1.00
C1122  C     0.67373   0.15541   0.76212   0.00000  Uiso   1.00
C1123  C     0.78143   0.23244   0.92028   0.00000  Uiso   1.00
C1124  C     0.84705   0.32252   0.73925   0.00000  Uiso   1.00
C1125  C     0.81607   0.01214   0.76257   0.00000  Uiso   1.00
C1126  C     0.82207   0.05628   0.75913   0.00000  Uiso   1.00
C1127  C     0.84341   0.27773   0.74160   0.00000  Uiso   1.00
C1128  C     0.85459   0.14500   0.64372   0.00000  Uiso   1.00
C1129  C     0.81153   0.18766   0.85669   0.00000  Uiso   1.00
C1130  C     0.79745   0.19442   0.90111   0.00000  Uiso   1.00
C1131  C     0.86102   0.13469   0.60072   0.00000  Uiso   1.00
C1132  C     0.76756   0.23958   0.96173   0.00000  Uiso   1.00
C1133  C     0.99159   0.11322   0.81336   0.00000  Uiso   1.00
C1134  C     0.79803   0.16288   0.92474   0.00000  Uiso   1.00
C1135  C     0.95548   0.08409   0.83669   0.00000  Uiso   1.00
C1136  C     0.88122   0.00118   0.67513   0.00000  Uiso   1.00
C1137  C     0.91813   0.02758   0.64946   0.00000  Uiso   1.00
C1138  C     0.74262   0.01278   0.79388   0.00000  Uiso   1.00
C1139  C     0.70399   0.32019   0.81805   0.00000  Uiso   1.00
C1140  C     0.88748   0.22353   0.57289   0.00000  Uiso   1.00
C1141  C     0.88134   0.26870   0.57219   0.00000  Uiso   1.00
C1142  C     0.70310   0.26534   0.98358   0.00000  Uiso   1.00
C1143  C     0.68106   0.30475   0.99955   0.00000  Uiso   1.00
C1144  C     0.78230   0.09987   0.88865   0.00000  Uiso   1.00
C1145  C     0.79100   0.17332   0.96699   0.00000  Uiso   1.00
C1146  C     0.79426   0.05533   0.87856   0.00000  Uiso   1.00
C1147  C     0.77748   0.21304   0.98508   0.00000  Uiso   1.00
C1148  C     0.80105   0.14712   0.99137   0.00000  Uiso   1.00
C1149  C     0.80989   0.16459   0.52767   0.00000  Uiso   1.00
C1150  C     0.79207   0.20156   0.54610   0.00000  Uiso   1.00
C1151  C     0.77538   0.22527   0.52585   0.00000  Uiso   1.00
Cl1152 Cl    0.75674   0.27204   0.55333   0.00000  Uiso   1.00
Cl1153 Cl    0.88479   0.03125   0.52568   0.00000  Uiso   1.00
Cl1154 Cl    0.69489   0.21598   0.71171   0.00000  Uiso   1.00
Cl1155 Cl    0.81235   0.02536   0.98792   0.00000  Uiso   1.00
Cl1156 Cl    0.78066   0.27448   0.89403   0.00000  Uiso   1.00
Cl1157 Cl    0.74700   0.07915   0.97658   0.00000  Uiso   1.00
H1158  H     0.88332   0.07585   0.59931   0.00000  Uiso   1.00
H1159  H     0.94940   0.02000   0.65152   0.00000  Uiso   1.00
H1160  H     0.91718   0.02109   0.61790   0.00000  Uiso   1.00
H1161  H     0.91534   0.06125   0.65962   0.00000  Uiso   1.00
H1162  H     0.73731   0.01380   0.76426   0.00000  Uiso   1.00
H1163  H     0.74456   0.04487   0.80987   0.00000  Uiso   1.00
H1164  H     0.70795   0.31856   0.84797   0.00000  Uiso   1.00
H1165  H     0.67421   0.00134   0.82163   0.00000  Uiso   1.00
H1166  H     0.70082   0.28805   0.80254   0.00000  Uiso   1.00
H1167  H     0.90014   0.20985   0.54134   0.00000  Uiso   1.00
H1168  H     0.91184   0.22292   0.58922   0.00000  Uiso   1.00
H1169  H     0.78840   0.21176   0.57725   0.00000  Uiso   1.00
H1170  H     0.86505   0.28267   0.60245   0.00000  Uiso   1.00
H1171  H     0.91305   0.28705   0.56139   0.00000  Uiso   1.00
H1172  H     0.86125   0.27022   0.55196   0.00000  Uiso   1.00
H1173  H     0.68935   0.24201   0.50522   0.00000  Uiso   1.00
H1174  H     0.69591   0.25281   0.95470   0.00000  Uiso   1.00
H1175  H     0.69358   0.32821   0.97808   0.00000  Uiso   1.00
H1176  H     0.97917   0.29734   0.50371   0.00000  Uiso   1.00
H1177  H     0.68713   0.31801   0.52860   0.00000  Uiso   1.00
H1178  H     0.78158   0.11032   0.86055   0.00000  Uiso   1.00
H1179  H     0.74887   0.09997   0.90816   0.00000  Uiso   1.00
H1180  H     0.99654   0.14217   0.83360   0.00000  Uiso   1.00
H1181  H     0.79941   0.04404   0.90473   0.00000  Uiso   1.00
H1182  H     0.76809   0.03427   0.86917   0.00000  Uiso   1.00
H1183  H     0.82441   0.05408   0.85399   0.00000  Uiso   1.00
H1184  H     0.68798   0.09720   0.80345   0.00000  Uiso   1.00
H1185  H     0.94999   0.05467   0.81745   0.00000  Uiso   1.00
H1186  H     0.96427   0.07654   0.86277   0.00000  Uiso   1.00
H1187  H     0.92530   0.09929   0.84735   0.00000  Uiso   1.00
H1188  H     0.85040   0.00985   0.67265   0.00000  Uiso   1.00
H1189  H     0.88413   0.30119   0.66330   0.00000  Uiso   1.00
O1190  O     0.83333   0.16667   0.75000   0.00000  Uiso   1.00
O1191  O     0.82360   0.12393   0.66625   0.00000  Uiso   1.00
O1192  O     0.79354   0.20646   0.83749   0.00000  Uiso   1.00
O1193  O     0.87755   0.17493   0.65877   0.00000  Uiso   1.00
O1194  O     0.83865   0.16135   0.83749   0.00000  Uiso   1.00
O1195  O     0.98004   0.12219   0.78010   0.00000  Uiso   1.00
O1196  O     0.88395   0.00848   0.71483   0.00000  Uiso   1.00
O1197  O     0.78027   0.32747   0.78983   0.00000  Uiso   1.00
O1198  O     0.84792   0.20236   0.59287   0.00000  Uiso   1.00
O1199  O     0.74784   0.27513   0.97874   0.00000  Uiso   1.00
O1200  O     0.81293   0.12503   0.90642   0.00000  Uiso   1.00
O1201  O     0.84515   0.08101   0.77820   0.00000  Uiso   1.00
O1202  O     0.81247   0.26136   0.76767   0.00000  Uiso   1.00
O1203  O     0.74119   0.13251   0.73607   0.00000  Uiso   1.00
O1204  O     0.93452   0.19179   0.71805   0.00000  Uiso   1.00
O1205  O     0.73656   0.18960   0.77820   0.00000  Uiso   1.00
O1206  O     0.92106   0.15277   0.76767   0.00000  Uiso   1.00
O1207  O     0.80467   0.06903   0.73607   0.00000  Uiso   1.00
O1208  O     0.87104   0.25527   0.71805   0.00000  Uiso   1.00
Zn1209 Zn    0.85910   0.14090   0.78277   0.00000  Uiso   1.00
Zn1210 Zn    0.80125   0.12378   0.72257   0.00000  Uiso   1.00
Zn1211 Zn    0.87833   0.19664   0.71188   0.00000  Uiso   1.00
Zn1212 Zn    0.79465   0.20535   0.78277   0.00000  Uiso   1.00
C1213  C     0.05266   0.49308   0.75854   0.00000  Uiso   1.00
C1214  C     0.12978   0.43678   0.98437   0.00000  Uiso   1.00
C1215  C     0.15206   0.41348   0.50044   0.00000  Uiso   1.00
C1216  C     0.28097   0.50703   0.74156   0.00000  Uiso   1.00
C1217  C     0.17256   0.43326   0.53001   0.00000  Uiso   1.00
C1218  C     0.16541   0.47554   0.54594   0.00000  Uiso   1.00
C1219  C     0.19607   0.41161   0.54733   0.00000  Uiso   1.00
C1220  C     0.20382   0.42806   0.58369   0.00000  Uiso   1.00
C1221  C     0.18079   0.49362   0.57948   0.00000  Uiso   1.00
C1222  C     0.32642   0.51173   0.74056   0.00000  Uiso   1.00
C1223  C     0.00706   0.48874   0.76212   0.00000  Uiso   1.00
C1224  C     0.11476   0.56577   0.92028   0.00000  Uiso   1.00
C1225  C     0.18038   0.65586   0.73925   0.00000  Uiso   1.00
C1226  C     0.14940   0.34547   0.76257   0.00000  Uiso   1.00
C1227  C     0.15540   0.38961   0.75913   0.00000  Uiso   1.00
C1228  C     0.17675   0.61106   0.74160   0.00000  Uiso   1.00
C1229  C     0.18792   0.47833   0.64372   0.00000  Uiso   1.00
C1230  C     0.14486   0.52099   0.85669   0.00000  Uiso   1.00
C1231  C     0.13078   0.52776   0.90111   0.00000  Uiso   1.00
C1232  C     0.19435   0.46802   0.60072   0.00000  Uiso   1.00
C1233  C     0.10090   0.57292   0.96173   0.00000  Uiso   1.00
C1234  C     0.32492   0.44655   0.81336   0.00000  Uiso   1.00
C1235  C     0.13136   0.49621   0.92474   0.00000  Uiso   1.00
C1236  C     0.28881   0.41743   0.83669   0.00000  Uiso   1.00
C1237  C     0.21456   0.33451   0.67513   0.00000  Uiso   1.00
C1238  C     0.25146   0.36092   0.64946   0.00000  Uiso   1.00
C1239  C     0.07595   0.34611   0.79388   0.00000  Uiso   1.00
C1240  C     0.03732   0.65353   0.81805   0.00000  Uiso   1.00
C1241  C     0.22082   0.55686   0.57289   0.00000  Uiso   1.00
C1242  C     0.21467   0.60203   0.57219   0.00000  Uiso   1.00
C1243  C     0.03643   0.59867   0.98358   0.00000  Uiso   1.00
C1244  C     0.01439   0.63808   0.99955   0.00000  Uiso   1.00
C1245  C     0.11563   0.43320   0.88865   0.00000  Uiso   1.00
C1246  C     0.12433   0.50665   0.96699   0.00000  Uiso   1.00
C1247  C     0.12759   0.38866   0.87856   0.00000  Uiso   1.00
C1248  C     0.11081   0.54638   0.98508   0.00000  Uiso   1.00
C1249  C     0.13438   0.48045   0.99137   0.00000  Uiso   1.00
C1250  C     0.14322   0.49792   0.52767   0.00000  Uiso   1.00
C1251  C     0.12540   0.53489   0.54610   0.00000  Uiso   1.00
C1252  C     0.10871   0.55861   0.52585   0.00000  Uiso   1.00
Cl1253 Cl    0.09007   0.60537   0.55333   0.00000  Uiso   1.00
Cl1254 Cl    0.21812   0.36459   0.52568   0.00000  Uiso   1.00
Cl1255 Cl    0.02822   0.54932   0.71171   0.00000  Uiso   1.00
Cl1256 Cl    0.14568   0.35869   0.98792   0.00000  Uiso   1.00
Cl1257 Cl    0.11399   0.60781   0.89403   0.00000  Uiso   1.00
Cl1258 Cl    0.08033   0.41248   0.97658   0.00000  Uiso   1.00
H1259  H     0.21665   0.40918   0.59931   0.00000  Uiso   1.00
H1260  H     0.28274   0.35333   0.65152   0.00000  Uiso   1.00
H1261  H     0.25052   0.35442   0.61790   0.00000  Uiso   1.00
H1262  H     0.24867   0.39459   0.65962   0.00000  Uiso   1.00
H1263  H     0.07064   0.34714   0.76426   0.00000  Uiso   1.00
H1264  H     0.07789   0.37821   0.80987   0.00000  Uiso   1.00
H1265  H     0.04128   0.65190   0.84797   0.00000  Uiso   1.00
H1266  H     0.00754   0.33467   0.82163   0.00000  Uiso   1.00
H1267  H     0.03416   0.62138   0.80254   0.00000  Uiso   1.00
H1268  H     0.23347   0.54318   0.54134   0.00000  Uiso   1.00
H1269  H     0.24517   0.55626   0.58922   0.00000  Uiso   1.00
H1270  H     0.12174   0.54509   0.57725   0.00000  Uiso   1.00
H1271  H     0.19839   0.61600   0.60245   0.00000  Uiso   1.00
H1272  H     0.24638   0.62039   0.56139   0.00000  Uiso   1.00
H1273  H     0.19458   0.60355   0.55196   0.00000  Uiso   1.00
H1274  H     0.02268   0.57535   0.50522   0.00000  Uiso   1.00
H1275  H     0.02925   0.58614   0.95470   0.00000  Uiso   1.00
H1276  H     0.02691   0.66155   0.97808   0.00000  Uiso   1.00
H1277  H     0.31250   0.63067   0.50371   0.00000  Uiso   1.00
H1278  H     0.02046   0.65135   0.52860   0.00000  Uiso   1.00
H1279  H     0.11491   0.44366   0.86055   0.00000  Uiso   1.00
H1280  H     0.08220   0.43331   0.90816   0.00000  Uiso   1.00
H1281  H     0.32988   0.47550   0.83360   0.00000  Uiso   1.00
H1282  H     0.13275   0.37737   0.90473   0.00000  Uiso   1.00
H1283  H     0.10142   0.36760   0.86917   0.00000  Uiso   1.00
H1284  H     0.15775   0.38742   0.85399   0.00000  Uiso   1.00
H1285  H     0.02131   0.43054   0.80345   0.00000  Uiso   1.00
H1286  H     0.28332   0.38800   0.81745   0.00000  Uiso   1.00
H1287  H     0.29760   0.40988   0.86277   0.00000  Uiso   1.00
H1288  H     0.25863   0.43262   0.84735   0.00000  Uiso   1.00
H1289  H     0.18374   0.34319   0.67265   0.00000  Uiso   1.00
H1290  H     0.21747   0.63453   0.66330   0.00000  Uiso   1.00
O1291  O     0.16667   0.50000   0.75000   0.00000  Uiso   1.00
O1292  O     0.15693   0.45726   0.66625   0.00000  Uiso   1.00
O1293  O     0.12687   0.53979   0.83749   0.00000  Uiso   1.00
O1294  O     0.21088   0.50826   0.65877   0.00000  Uiso   1.00
O1295  O     0.17198   0.49468   0.83749   0.00000  Uiso   1.00
O1296  O     0.31338   0.45552   0.78010   0.00000  Uiso   1.00
O1297  O     0.21728   0.34182   0.71483   0.00000  Uiso   1.00
O1298  O     0.11360   0.66081   0.78983   0.00000  Uiso   1.00
O1299  O     0.18125   0.53569   0.59287   0.00000  Uiso   1.00
O1300  O     0.08118   0.60846   0.97874   0.00000  Uiso   1.00
O1301  O     0.14627   0.45836   0.90642   0.00000  Uiso   1.00
O1302  O     0.17849   0.41434   0.77820   0.00000  Uiso   1.00
O1303  O     0.14581   0.59469   0.76767   0.00000  Uiso   1.00
O1304  O     0.07452   0.46584   0.73607   0.00000  Uiso   1.00
O1305  O     0.26785   0.52512   0.71805   0.00000  Uiso   1.00
O1306  O     0.06990   0.52293   0.77820   0.00000  Uiso   1.00
O1307  O     0.25440   0.48610   0.76767   0.00000  Uiso   1.00
O1308  O     0.13800   0.40236   0.73607   0.00000  Uiso   1.00
O1309  O     0.20437   0.58860   0.71805   0.00000  Uiso   1.00
Zn1310 Zn    0.19244   0.47423   0.78277   0.00000  Uiso   1.00
Zn1311 Zn    0.13459   0.45711   0.72257   0.00000  Uiso   1.00
Zn1312 Zn    0.21166   0.52997   0.71188   0.00000  Uiso   1.00
Zn1313 Zn    0.12798   0.53868   0.78277   0.00000  Uiso   1.00
C1314  C     0.38599   0.49308   0.75854   0.00000  Uiso   1.00
C1315  C     0.46311   0.43678   0.98437   0.00000  Uiso   1.00
C1316  C     0.48539   0.41348   0.50044   0.00000  Uiso   1.00
C1317  C     0.61430   0.50703   0.74156   0.00000  Uiso   1.00
C1318  C     0.50589   0.43326   0.53001   0.00000  Uiso   1.00
C1319  C     0.49875   0.47554   0.54594   0.00000  Uiso   1.00
C1320  C     0.52941   0.41161   0.54733   0.00000  Uiso   1.00
C1321  C     0.53715   0.42806   0.58369   0.00000  Uiso   1.00
C1322  C     0.51413   0.49362   0.57948   0.00000  Uiso   1.00
C1323  C     0.65975   0.51173   0.74056   0.00000  Uiso   1.00
C1324  C     0.34040   0.48874   0.76212   0.00000  Uiso   1.00
C1325  C     0.44810   0.56577   0.92028   0.00000  Uiso   1.00
C1326  C     0.51371   0.65586   0.73925   0.00000  Uiso   1.00
C1327  C     0.48273   0.34547   0.76257   0.00000  Uiso   1.00
C1328  C     0.48874   0.38961   0.75913   0.00000  Uiso   1.00
C1329  C     0.51008   0.61106   0.74160   0.00000  Uiso   1.00
C1330  C     0.52125   0.47833   0.64372   0.00000  Uiso   1.00
C1331  C     0.47819   0.52099   0.85669   0.00000  Uiso   1.00
C1332  C     0.46412   0.52776   0.90111   0.00000  Uiso   1.00
C1333  C     0.52768   0.46802   0.60072   0.00000  Uiso   1.00
C1334  C     0.43423   0.57292   0.96173   0.00000  Uiso   1.00
C1335  C     0.65826   0.44655   0.81336   0.00000  Uiso   1.00
C1336  C     0.46469   0.49621   0.92474   0.00000  Uiso   1.00
C1337  C     0.62215   0.41743   0.83669   0.00000  Uiso   1.00
C1338  C     0.54789   0.33451   0.67513   0.00000  Uiso   1.00
C1339  C     0.58479   0.36092   0.64946   0.00000  Uiso   1.00
C1340  C     0.40928   0.34611   0.79388   0.00000  Uiso   1.00
C1341  C     0.37066   0.65353   0.81805   0.00000  Uiso   1.00
C1342  C     0.55415   0.55686   0.57289   0.00000  Uiso   1.00
C1343  C     0.54800   0.60203   0.57219   0.00000  Uiso   1.00
C1344  C     0.36976   0.59867   0.98358   0.00000  Uiso   1.00
C1345  C     0.34773   0.63808   0.99955   0.00000  Uiso   1.00
C1346  C     0.44897   0.43320   0.88865   0.00000  Uiso   1.00
C1347  C     0.45767   0.50665   0.96699   0.00000  Uiso   1.00
C1348  C     0.46093   0.38866   0.87856   0.00000  Uiso   1.00
C1349  C     0.44415   0.54638   0.98508   0.00000  Uiso   1.00
C1350  C     0.46772   0.48045   0.99137   0.00000  Uiso   1.00
C1351  C     0.47656   0.49792   0.52767   0.00000  Uiso   1.00
C1352  C     0.45873   0.53489   0.54610   0.00000  Uiso   1.00
C1353  C     0.44204   0.55861   0.52585   0.00000  Uiso   1.00
Cl1354 Cl    0.42341   0.60537   0.55333   0.00000  Uiso   1.00
Cl1355 Cl    0.55145   0.36459   0.52568   0.00000  Uiso   1.00
Cl1356 Cl    0.36156   0.54932   0.71171   0.00000  Uiso   1.00
Cl1357 Cl    0.47901   0.35869   0.98792   0.00000  Uiso   1.00
Cl1358 Cl    0.44732   0.60781   0.89403   0.00000  Uiso   1.00
Cl1359 Cl    0.41366   0.41248   0.97658   0.00000  Uiso   1.00
H1360  H     0.54998   0.40918   0.59931   0.00000  Uiso   1.00
H1361  H     0.61607   0.35333   0.65152   0.00000  Uiso   1.00
H1362  H     0.58385   0.35442   0.61790   0.00000  Uiso   1.00
H1363  H     0.58200   0.39459   0.65962   0.00000  Uiso   1.00
H1364  H     0.40397   0.34714   0.76426   0.00000  Uiso   1.00
H1365  H     0.41123   0.37821   0.80987   0.00000  Uiso   1.00
H1366  H     0.37461   0.65190   0.84797   0.00000  Uiso   1.00
H1367  H     0.34088   0.33467   0.82163   0.00000  Uiso   1.00
H1368  H     0.36749   0.62138   0.80254   0.00000  Uiso   1.00
H1369  H     0.56680   0.54318   0.54134   0.00000  Uiso   1.00
H1370  H     0.57850   0.55626   0.58922   0.00000  Uiso   1.00
H1371  H     0.45507   0.54509   0.57725   0.00000  Uiso   1.00
H1372  H     0.53172   0.61600   0.60245   0.00000  Uiso   1.00
H1373  H     0.57972   0.62039   0.56139   0.00000  Uiso   1.00
H1374  H     0.52791   0.60355   0.55196   0.00000  Uiso   1.00
H1375  H     0.35602   0.57535   0.50522   0.00000  Uiso   1.00
H1376  H     0.36258   0.58614   0.95470   0.00000  Uiso   1.00
H1377  H     0.36025   0.66155   0.97808   0.00000  Uiso   1.00
H1378  H     0.64584   0.63067   0.50371   0.00000  Uiso   1.00
H1379  H     0.35379   0.65135   0.52860   0.00000  Uiso   1.00
H1380  H     0.44824   0.44366   0.86055   0.00000  Uiso   1.00
H1381  H     0.41554   0.43331   0.90816   0.00000  Uiso   1.00
H1382  H     0.66321   0.47550   0.83360   0.00000  Uiso   1.00
H1383  H     0.46608   0.37737   0.90473   0.00000  Uiso   1.00
H1384  H     0.43476   0.36760   0.86917   0.00000  Uiso   1.00
H1385  H     0.49108   0.38742   0.85399   0.00000  Uiso   1.00
H1386  H     0.35465   0.43054   0.80345   0.00000  Uiso   1.00
H1387  H     0.61665   0.38800   0.81745   0.00000  Uiso   1.00
H1388  H     0.63094   0.40988   0.86277   0.00000  Uiso   1.00
H1389  H     0.59197   0.43262   0.84735   0.00000  Uiso   1.00
H1390  H     0.51707   0.34319   0.67265   0.00000  Uiso   1.00
H1391  H     0.55080   0.63453   0.66330   0.00000  Uiso   1.00
O1392  O     0.50000   0.50000   0.75000   0.00000  Uiso   1.00
O1393  O     0.49027   0.45726   0.66625   0.00000  Uiso   1.00
O1394  O     0.46020   0.53979   0.83749   0.00000  Uiso   1.00
O1395  O     0.54421   0.50826   0.65877   0.00000  Uiso   1.00
O1396  O     0.50532   0.49468   0.83749   0.00000  Uiso   1.00
O1397  O     0.64671   0.45552   0.78010   0.00000  Uiso   1.00
O1398  O     0.55061   0.34182   0.71483   0.00000  Uiso   1.00
O1399  O     0.44694   0.66081   0.78983   0.00000  Uiso   1.00
O1400  O     0.51458   0.53569   0.59287   0.00000  Uiso   1.00
O1401  O     0.41451   0.60846   0.97874   0.00000  Uiso   1.00
O1402  O     0.47960   0.45836   0.90642   0.00000  Uiso   1.00
O1403  O     0.51182   0.41434   0.77820   0.00000  Uiso   1.00
O1404  O     0.47914   0.59469   0.76767   0.00000  Uiso   1.00
O1405  O     0.40785   0.46584   0.73607   0.00000  Uiso   1.00
O1406  O     0.60119   0.52512   0.71805   0.00000  Uiso   1.00
O1407  O     0.40323   0.52293   0.77820   0.00000  Uiso   1.00
O1408  O     0.58773   0.48610   0.76767   0.00000  Uiso   1.00
O1409  O     0.47133   0.40236   0.73607   0.00000  Uiso   1.00
O1410  O     0.53771   0.58860   0.71805   0.00000  Uiso   1.00
Zn1411 Zn    0.52577   0.47423   0.78277   0.00000  Uiso   1.00
Zn1412 Zn    0.46792   0.45711   0.72257   0.00000  Uiso   1.00
Zn1413 Zn    0.54500   0.52997   0.71188   0.00000  Uiso   1.00
Zn1414 Zn    0.46131   0.53868   0.78277   0.00000  Uiso   1.00
C1415  C     0.71932   0.49308   0.75854   0.00000  Uiso   1.00
C1416  C     0.79644   0.43678   0.98437   0.00000  Uiso   1.00
C1417  C     0.81873   0.41348   0.50044   0.00000  Uiso   1.00
C1418  C     0.94764   0.50703   0.74156   0.00000  Uiso   1.00
C1419  C     0.83922   0.43326   0.53001   0.00000  Uiso   1.00
C1420  C     0.83208   0.47554   0.54594   0.00000  Uiso   1.00
C1421  C     0.86274   0.41161   0.54733   0.00000  Uiso   1.00
C1422  C     0.87049   0.42806   0.58369   0.00000  Uiso   1.00
C1423  C     0.84746   0.49362   0.57948   0.00000  Uiso   1.00
C1424  C     0.99308   0.51173   0.74056   0.00000  Uiso   1.00
C1425  C     0.67373   0.48874   0.76212   0.00000  Uiso   1.00
C1426  C     0.78143   0.56577   0.92028   0.00000  Uiso   1.00
C1427  C     0.84705   0.65586   0.73925   0.00000  Uiso   1.00
C1428  C     0.81607   0.34547   0.76257   0.00000  Uiso   1.00
C1429  C     0.82207   0.38961   0.75913   0.00000  Uiso   1.00
C1430  C     0.84341   0.61106   0.74160   0.00000  Uiso   1.00
C1431  C     0.85459   0.47833   0.64372   0.00000  Uiso   1.00
C1432  C     0.81153   0.52099   0.85669   0.00000  Uiso   1.00
C1433  C     0.79745   0.52776   0.90111   0.00000  Uiso   1.00
C1434  C     0.86102   0.46802   0.60072   0.00000  Uiso   1.00
C1435  C     0.76756   0.57292   0.96173   0.00000  Uiso   1.00
C1436  C     0.99159   0.44655   0.81336   0.00000  Uiso   1.00
C1437  C     0.79803   0.49621   0.92474   0.00000  Uiso   1.00
C1438  C     0.95548   0.41743   0.83669   0.00000  Uiso   1.00
C1439  C     0.88122   0.33451   0.67513   0.00000  Uiso   1.00
C1440  C     0.91813   0.36092   0.64946   0.00000  Uiso   1.00
C1441  C     0.74262   0.34611   0.79388   0.00000  Uiso   1.00
C1442  C     0.70399   0.65353   0.81805   0.00000  Uiso   1.00
C1443  C     0.88748   0.55686   0.57289   0.00000  Uiso   1.00
C1444  C     0.88134   0.60203   0.57219   0.00000  Uiso   1.00
C1445  C     0.70310   0.59867   0.98358   0.00000  Uiso   1.00
C1446  C     0.68106   0.63808   0.99955   0.00000  Uiso   1.00
C1447  C     0.78230   0.43320   0.88865   0.00000  Uiso   1.00
C1448  C     0.79100   0.50665   0.96699   0.00000  Uiso   1.00
C1449  C     0.79426   0.38866   0.87856   0.00000  Uiso   1.00
C1450  C     0.77748   0.54638   0.98508   0.00000  Uiso   1.00
C1451  C     0.80105   0.48045   0.99137   0.00000  Uiso   1.00
C1452  C     0.80989   0.49792   0.52767   0.00000  Uiso   1.00
C1453  C     0.79207   0.53489   0.54610   0.00000  Uiso   1.00
C1454  C     0.77538   0.55861   0.52585   0.00000  Uiso   1.00
Cl1455 Cl    0.75674   0.60537   0.55333   0.00000  Uiso   1.00
Cl1456 Cl    0.88479   0.36459   0.52568   0.00000  Uiso   1.00
Cl1457 Cl    0.69489   0.54932   0.71171   0.00000  Uiso   1.00
Cl1458 Cl    0.81235   0.35869   0.98792   0.00000  Uiso   1.00
Cl1459 Cl    0.78066   0.60781   0.89403   0.00000  Uiso   1.00
Cl1460 Cl    0.74700   0.41248   0.97658   0.00000  Uiso   1.00
H1461  H     0.88332   0.40918   0.59931   0.00000  Uiso   1.00
H1462  H     0.94940   0.35333   0.65152   0.00000  Uiso   1.00
H1463  H     0.91718   0.35442   0.61790   0.00000  Uiso   1.00
H1464  H     0.91534   0.39459   0.65962   0.00000  Uiso   1.00
H1465  H     0.73731   0.34714   0.76426   0.00000  Uiso   1.00
H1466  H     0.74456   0.37821   0.80987   0.00000  Uiso   1.00
H1467  H     0.70795   0.65190   0.84797   0.00000  Uiso   1.00
H1468  H     0.67421   0.33467   0.82163   0.00000  Uiso   1.00
H1469  H     0.70082   0.62138   0.80254   0.00000  Uiso   1.00
H1470  H     0.90014   0.54318   0.54134   0.00000  Uiso   1.00
H1471  H     0.91184   0.55626   0.58922   0.00000  Uiso   1.00
H1472  H     0.78840   0.54509   0.57725   0.00000  Uiso   1.00
H1473  H     0.86505   0.61600   0.60245   0.00000  Uiso   1.00
H1474  H     0.91305   0.62039   0.56139   0.00000  Uiso   1.00
H1475  H     0.86125   0.60355   0.55196   0.00000  Uiso   1.00
H1476  H     0.68935   0.57535   0.50522   0.00000  Uiso   1.00
H1477  H     0.69591   0.58614   0.95470   0.00000  Uiso   1.00
H1478  H     0.69358   0.66155   0.97808   0.00000  Uiso   1.00
H1479  H     0.97917   0.63067   0.50371   0.00000  Uiso   1.00
H1480  H     0.68713   0.65135   0.52860   0.00000  Uiso   1.00
H1481  H     0.78158   0.44366   0.86055   0.00000  Uiso   1.00
H1482  H     0.74887   0.43331   0.90816   0.00000  Uiso   1.00
H1483  H     0.99654   0.47550   0.83360   0.00000  Uiso   1.00
H1484  H     0.79941   0.37737   0.90473   0.00000  Uiso   1.00
H1485  H     0.76809   0.36760   0.86917   0.00000  Uiso   1.00
H1486  H     0.82441   0.38742   0.85399   0.00000  Uiso   1.00
H1487  H     0.68798   0.43054   0.80345   0.00000  Uiso   1.00
H1488  H     0.94999   0.38800   0.81745   0.00000  Uiso   1.00
H1489  H     0.96427   0.40988   0.86277   0.00000  Uiso   1.00
H1490  H     0.92530   0.43262   0.84735   0.00000  Uiso   1.00
H1491  H     0.85040   0.34319   0.67265   0.00000  Uiso   1.00
H1492  H     0.88413   0.63453   0.66330   0.00000  Uiso   1.00
O1493  O     0.83333   0.50000   0.75000   0.00000  Uiso   1.00
O1494  O     0.82360   0.45726   0.66625   0.00000  Uiso   1.00
O1495  O     0.79354   0.53979   0.83749   0.00000  Uiso   1.00
O1496  O     0.87755   0.50826   0.65877   0.00000  Uiso   1.00
O1497  O     0.83865   0.49468   0.83749   0.00000  Uiso   1.00
O1498  O     0.98004   0.45552   0.78010   0.00000  Uiso   1.00
O1499  O     0.88395   0.34182   0.71483   0.00000  Uiso   1.00
O1500  O     0.78027   0.66081   0.78983   0.00000  Uiso   1.00
O1501  O     0.84792   0.53569   0.59287   0.00000  Uiso   1.00
O1502  O     0.74784   0.60846   0.97874   0.00000  Uiso   1.00
O1503  O     0.81293   0.45836   0.90642   0.00000  Uiso   1.00
O1504  O     0.84515   0.41434   0.77820   0.00000  Uiso   1.00
O1505  O     0.81247   0.59469   0.76767   0.00000  Uiso   1.00
O1506  O     0.74119   0.46584   0.73607   0.00000  Uiso   1.00
O1507  O     0.93452   0.52512   0.71805   0.00000  Uiso   1.00
O1508  O     0.73656   0.52293   0.77820   0.00000  Uiso   1.00
O1509  O     0.92106   0.48610   0.76767   0.00000  Uiso   1.00
O1510  O     0.80467   0.40236   0.73607   0.00000  Uiso   1.00
O1511  O     0.87104   0.58860   0.71805   0.00000  Uiso   1.00
Zn1512 Zn    0.85910   0.47423   0.78277   0.00000  Uiso   1.00
Zn1513 Zn    0.80125   0.45711   0.72257   0.00000  Uiso   1.00
Zn1514 Zn    0.87833   0.52997   0.71188   0.00000  Uiso   1.00
Zn1515 Zn    0.79465   0.53868   0.78277   0.00000  Uiso   1.00
C1516  C     0.05266   0.82641   0.75854   0.00000  Uiso   1.00
C1517  C     0.12978   0.77011   0.98437   0.00000  Uiso   1.00
C1518  C     0.15206   0.74681   0.50044   0.00000  Uiso   1.00
C1519  C     0.28097   0.84036   0.74156   0.00000  Uiso   1.00
C1520  C     0.17256   0.76660   0.53001   0.00000  Uiso   1.00
C1521  C     0.16541   0.80887   0.54594   0.00000  Uiso   1.00
C1522  C     0.19607   0.74494   0.54733   0.00000  Uiso   1.00
C1523  C     0.20382   0.76139   0.58369   0.00000  Uiso   1.00
C1524  C     0.18079   0.82695   0.57948   0.00000  Uiso   1.00
C1525  C     0.32642   0.84506   0.74056   0.00000  Uiso   1.00
C1526  C     0.00706   0.82207   0.76212   0.00000  Uiso   1.00
C1527  C     0.11476   0.89911   0.92028   0.00000  Uiso   1.00
C1528  C     0.18038   0.98919   0.73925   0.00000  Uiso   1.00
C1529  C     0.14940   0.67881   0.76257   0.00000  Uiso   1.00
C1530  C     0.15540   0.72295   0.75913   0.00000  Uiso   1.00
C1531  C     0.17675   0.94440   0.74160   0.00000  Uiso   1.00
C1532  C     0.18792   0.81167   0.64372   0.00000  Uiso   1.00
C1533  C     0.14486   0.85432   0.85669   0.00000  Uiso   1.00
C1534  C     0.13078   0.86109   0.90111   0.00000  Uiso   1.00
C1535  C     0.19435   0.80135   0.60072   0.00000  Uiso   1.00
C1536  C     0.10090   0.90625   0.96173   0.00000  Uiso   1.00
C1537  C     0.32492   0.77989   0.81336   0.00000  Uiso   1.00
C1538  C     0.13136   0.82955   0.92474   0.00000  Uiso   1.00
C1539  C     0.28881   0.75076   0.83669   0.00000  Uiso   1.00
C1540  C     0.21456   0.66785   0.67513   0.00000  Uiso   1.00
C1541  C     0.25146   0.69425   0.64946   0.00000  Uiso   1.00
C1542  C     0.07595   0.67945   0.79388   0.00000  Uiso   1.00
C1543  C     0.03732   0.98686   0.81805   0.00000  Uiso   1.00
C1544  C     0.22082   0.89019   0.57289   0.00000  Uiso   1.00
C1545  C     0.21467   0.93537   0.57219   0.00000  Uiso   1.00
C1546  C     0.03643   0.93201   0.98358   0.00000  Uiso   1.00
C1547  C     0.01439   0.97142   0.99955   0.00000  Uiso   1.00
C1548  C     0.11563   0.76654   0.88865   0.00000  Uiso   1.00
C1549  C     0.12433   0.83999   0.96699   0.00000  Uiso   1.00
C1550  C     0.12759   0.72200   0.87856   0.00000  Uiso   1.00
C1551  C     0.11081   0.87971   0.98508   0.00000  Uiso   1.00
C1552  C     0.13438   0.81378   0.99137   0.00000  Uiso   1.00
C1553  C     0.14322   0.83126   0.52767   0.00000  Uiso   1.00
C1554  C     0.12540   0.86823   0.54610   0.00000  Uiso   1.00
C1555  C     0.10871   0.89194   0.52585   0.00000  Uiso   1.00
Cl1556 Cl    0.09007   0.93870   0.55333   0.00000  Uiso   1.00
Cl1557 Cl    0.21812   0.69792   0.52568   0.00000  Uiso   1.00
Cl1558 Cl    0.02822   0.88265   0.71171   0.00000  Uiso   1.00
Cl1559 Cl    0.14568   0.69203   0.98792   0.00000  Uiso   1.00
Cl1560 Cl    0.11399   0.94114   0.89403   0.00000  Uiso   1.00
Cl1561 Cl    0.08033   0.74582   0.97658   0.00000  Uiso   1.00
H1562  H     0.21665   0.74251   0.59931   0.00000  Uiso   1.00
H1563  H     0.28274   0.68666   0.65152   0.00000  Uiso   1.00
H1564  H     0.25052   0.68775   0.61790   0.00000  Uiso   1.00
H1565  H     0.24867   0.72792   0.65962   0.00000  Uiso   1.00
H1566  H     0.07064   0.68047   0.76426   0.00000  Uiso   1.00
H1567  H     0.07789   0.71154   0.80987   0.00000  Uiso   1.00
H1568  H     0.04128   0.98523   0.84797   0.00000  Uiso   1.00
H1569  H     0.00754   0.66800   0.82163   0.00000  Uiso   1.00
H1570  H     0.03416   0.95472   0.80254   0.00000  Uiso   1.00
H1571  H     0.23347   0.87652   0.54134   0.00000  Uiso   1.00
H1572  H     0.24517   0.88959   0.58922   0.00000  Uiso   1.00
H1573  H     0.12174   0.87842   0.57725   0.00000  Uiso   1.00
H1574  H     0.19839   0.94933   0.60245   0.00000  Uiso   1.00
H1575  H     0.24638   0.95372   0.56139   0.00000  Uiso   1.00
H1576  H     0.19458   0.93689   0.55196   0.00000  Uiso   1.00
H1577  H     0.02268   0.90868   0.50522   0.00000  Uiso   1.00
H1578  H     0.02925   0.91948   0.95470   0.00000  Uiso   1.00
H1579  H     0.02691   0.99488   0.97808   0.00000  Uiso   1.00
H1580  H     0.31250   0.96401   0.50371   0.00000  Uiso   1.00
H1581  H     0.02046   0.98468   0.52860   0.00000  Uiso   1.00
H1582  H     0.11491   0.77699   0.86055   0.00000  Uiso   1.00
H1583  H     0.08220   0.76664   0.90816   0.00000  Uiso   1.00
H1584  H     0.32988   0.80884   0.83360   0.00000  Uiso   1.00
H1585  H     0.13275   0.71071   0.90473   0.00000  Uiso   1.00
H1586  H     0.10142   0.70094   0.86917   0.00000  Uiso   1.00
H1587  H     0.15775   0.72075   0.85399   0.00000  Uiso   1.00
H1588  H     0.02131   0.76387   0.80345   0.00000  Uiso   1.00
H1589  H     0.28332   0.72134   0.81745   0.00000  Uiso   1.00
H1590  H     0.29760   0.74321   0.86277   0.00000  Uiso   1.00
H1591  H     0.25863   0.76595   0.84735   0.00000  Uiso   1.00
H1592  H     0.18374   0.67652   0.67265   0.00000  Uiso   1.00
H1593  H     0.21747   0.96786   0.66330   0.00000  Uiso   1.00
O1594  O     0.16667   0.83333   0.75000   0.00000  Uiso   1.00
O1595  O     0.15693   0.79060   0.66625   0.00000  Uiso   1.00
O1596  O     0.12687   0.87313   0.83749   0.00000  Uiso   1.00
O1597  O     0.21088   0.84159   0.65877   0.00000  Uiso   1.00
O1598  O     0.17198   0.82802   0.83749   0.00000  Uiso   1.00
O1599  O     0.31338   0.78886   0.78010   0.00000  Uiso   1.00
O1600  O     0.21728   0.67515   0.71483   0.00000  Uiso   1.00
O1601  O     0.11360   0.99414   0.78983   0.00000  Uiso   1.00
O1602  O     0.18125   0.86903   0.59287   0.00000  Uiso   1.00
O1603  O     0.08118   0.94179   0.97874   0.00000  Uiso   1.00
O1604  O     0.14627   0.79170   0.90642   0.00000  Uiso   1.00
O1605  O     0.17849   0.74768   0.77820   0.00000  Uiso   1.00
O1606  O     0.14581   0.92803   0.76767   0.00000  Uiso   1.00
O1607  O     0.07452   0.79917   0.73607   0.00000  Uiso   1.00
O1608  O     0.26785   0.85845   0.71805   0.00000  Uiso   1.00
O1609  O     0.06990   0.85627   0.77820   0.00000  Uiso   1.00
O1610  O     0.25440   0.81944   0.76767   0.00000  Uiso   1.00
O1611  O     0.13800   0.73570   0.73607   0.00000  Uiso   1.00
O1612  O     0.20437   0.92193   0.71805   0.00000  Uiso   1.00
Zn1613 Zn    0.19244   0.80756   0.78277   0.00000  Uiso   1.00
Zn1614 Zn    0.13459   0.79044   0.72257   0.00000  Uiso   1.00
Zn1615 Zn    0.21166   0.86331   0.71188   0.00000  Uiso   1.00
Zn1616 Zn    0.12798   0.87202   0.78277   0.00000  Uiso   1.00
C1617  C     0.38599   0.82641   0.75854   0.00000  Uiso   1.00
C1618  C     0.46311   0.77011   0.98437   0.00000  Uiso   1.00
C1619  C     0.48539   0.74681   0.50044   0.00000  Uiso   1.00
C1620  C     0.61430   0.84036   0.74156   0.00000  Uiso   1.00
C1621  C     0.50589   0.76660   0.53001   0.00000  Uiso   1.00
C1622  C     0.49875   0.80887   0.54594   0.00000  Uiso   1.00
C1623  C     0.52941   0.74494   0.54733   0.00000  Uiso   1.00
C1624  C     0.53715   0.76139   0.58369   0.00000  Uiso   1.00
C1625  C     0.51413   0.82695   0.57948   0.00000  Uiso   1.00
C1626  C     0.65975   0.84506   0.74056   0.00000  Uiso   1.00
C1627  C     0.34040   0.82207   0.76212   0.00000  Uiso   1.00
C1628  C     0.44810   0.89911   0.92028   0.00000  Uiso   1.00
C1629  C     0.51371   0.98919   0.73925   0.00000  Uiso   1.00
C1630  C     0.48273   0.67881   0.76257   0.00000  Uiso   1.00
C1631  C     0.48874   0.72295   0.75913   0.00000  Uiso   1.00
C1632  C     0.51008   0.94440   0.74160   0.00000  Uiso   1.00
C1633  C     0.52125   0.81167   0.64372   0.00000  Uiso   1.00
C1634  C     0.47819   0.85432   0.85669   0.00000  Uiso   1.00
C1635  C     0.46412   0.86109   0.90111   0.00000  Uiso   1.00
C1636  C     0.52768   0.80135   0.60072   0.00000  Uiso   1.00
C1637  C     0.43423   0.90625   0.96173   0.00000  Uiso   1.00
C1638  C     0.65826   0.77989   0.81336   0.00000  Uiso   1.00
C1639  C     0.46469   0.82955   0.92474   0.00000  Uiso   1.00
C1640  C     0.62215   0.75076   0.83669   0.00000  Uiso   1.00
C1641  C     0.54789   0.66785   0.67513   0.00000  Uiso   1.00
C1642  C     0.58479   0.69425   0.64946   0.00000  Uiso   1.00
C1643  C     0.40928   0.67945   0.79388   0.00000  Uiso   1.00
C1644  C     0.37066   0.98686   0.81805   0.00000  Uiso   1.00
C1645  C     0.55415   0.89019   0.57289   0.00000  Uiso   1.00
C1646  C     0.54800   0.93537   0.57219   0.00000  Uiso   1.00
C1647  C     0.36976   0.93201   0.98358   0.00000  Uiso   1.00
C1648  C     0.34773   0.97142   0.99955   0.00000  Uiso   1.00
C1649  C     0.44897   0.76654   0.88865   0.00000  Uiso   1.00
C1650  C     0.45767   0.83999   0.96699   0.00000  Uiso   1.00
C1651  C     0.46093   0.72200   0.87856   0.00000  Uiso   1.00
C1652  C     0.44415   0.87971   0.98508   0.00000  Uiso   1.00
C1653  C     0.46772   0.81378   0.99137   0.00000  Uiso   1.00
C1654  C     0.47656   0.83126   0.52767   0.00000  Uiso   1.00
C1655  C     0.45873   0.86823   0.54610   0.00000  Uiso   1.00
C1656  C     0.44204   0.89194   0.52585   0.00000  Uiso   1.00
Cl1657 Cl    0.42341   0.93870   0.55333   0.00000  Uiso   1.00
Cl1658 Cl    0.55145   0.69792   0.52568   0.00000  Uiso   1.00
Cl1659 Cl    0.36156   0.88265   0.71171   0.00000  Uiso   1.00
Cl1660 Cl    0.47901   0.69203   0.98792   0.00000  Uiso   1.00
Cl1661 Cl    0.44732   0.94114   0.89403   0.00000  Uiso   1.00
Cl1662 Cl    0.41366   0.74582   0.97658   0.00000  Uiso   1.00
H1663  H     0.54998   0.74251   0.59931   0.00000  Uiso   1.00
H1664  H     0.61607   0.68666   0.65152   0.00000  Uiso   1.00
H1665  H     0.58385   0.68775   0.61790   0.00000  Uiso   1.00
H1666  H     0.58200   0.72792   0.65962   0.00000  Uiso   1.00
H1667  H     0.40397   0.68047   0.76426   0.00000  Uiso   1.00
H1668  H     0.41123   0.71154   0.80987   0.00000  Uiso   1.00
H1669  H     0.37461   0.98523   0.84797   0.00000  Uiso   1.00
H1670  H     0.34088   0.66800   0.82163   0.00000  Uiso   1.00
H1671  H     0.36749   0.95472   0.80254   0.00000  Uiso   1.00
H1672  H     0.56680   0.87652   0.54134   0.00000  Uiso   1.00
H1673  H     0.57850   0.88959   0.58922   0.00000  Uiso   1.00
H1674  H     0.45507   0.87842   0.57725   0.00000  Uiso   1.00
H1675  H     0.53172   0.94933   0.60245   0.00000  Uiso   1.00
H1676  H     0.57972   0.95372   0.56139   0.00000  Uiso   1.00
H1677  H     0.52791   0.93689   0.55196   0.00000  Uiso   1.00
H1678  H     0.35602   0.90868   0.50522   0.00000  Uiso   1.00
H1679  H     0.36258   0.91948   0.95470   0.00000  Uiso   1.00
H1680  H     0.36025   0.99488   0.97808   0.00000  Uiso   1.00
H1681  H     0.64584   0.96401   0.50371   0.00000  Uiso   1.00
H1682  H     0.35379   0.98468   0.52860   0.00000  Uiso   1.00
H1683  H     0.44824   0.77699   0.86055   0.00000  Uiso   1.00
H1684  H     0.41554   0.76664   0.90816   0.00000  Uiso   1.00
H1685  H     0.66321   0.80884   0.83360   0.00000  Uiso   1.00
H1686  H     0.46608   0.71071   0.90473   0.00000  Uiso   1.00
H1687  H     0.43476   0.70094   0.86917   0.00000  Uiso   1.00
H1688  H     0.49108   0.72075   0.85399   0.00000  Uiso   1.00
H1689  H     0.35465   0.76387   0.80345   0.00000  Uiso   1.00
H1690  H     0.61665   0.72134   0.81745   0.00000  Uiso   1.00
H1691  H     0.63094   0.74321   0.86277   0.00000  Uiso   1.00
H1692  H     0.59197   0.76595   0.84735   0.00000  Uiso   1.00
H1693  H     0.51707   0.67652   0.67265   0.00000  Uiso   1.00
H1694  H     0.55080   0.96786   0.66330   0.00000  Uiso   1.00
O1695  O     0.50000   0.83333   0.75000   0.00000  Uiso   1.00
O1696  O     0.49027   0.79060   0.66625   0.00000  Uiso   1.00
O1697  O     0.46020   0.87313   0.83749   0.00000  Uiso   1.00
O1698  O     0.54421   0.84159   0.65877   0.00000  Uiso   1.00
O1699  O     0.50532   0.82802   0.83749   0.00000  Uiso   1.00
O1700  O     0.64671   0.78886   0.78010   0.00000  Uiso   1.00
O1701  O     0.55061   0.67515   0.71483   0.00000  Uiso   1.00
O1702  O     0.44694   0.99414   0.78983   0.00000  Uiso   1.00
O1703  O     0.51458   0.86903   0.59287   0.00000  Uiso   1.00
O1704  O     0.41451   0.94179   0.97874   0.00000  Uiso   1.00
O1705  O     0.47960   0.79170   0.90642   0.00000  Uiso   1.00
O1706  O     0.51182   0.74768   0.77820   0.00000  Uiso   1.00
O1707  O     0.47914   0.92803   0.76767   0.00000  Uiso   1.00
O1708  O     0.40785   0.79917   0.73607   0.00000  Uiso   1.00
O1709  O     0.60119   0.85845   0.71805   0.00000  Uiso   1.00
O1710  O     0.40323   0.85627   0.77820   0.00000  Uiso   1.00
O1711  O     0.58773   0.81944   0.76767   0.00000  Uiso   1.00
O1712  O     0.47133   0.73570   0.73607   0.00000  Uiso   1.00
O1713  O     0.53771   0.92193   0.71805   0.00000  Uiso   1.00
Zn1714 Zn    0.52577   0.80756   0.78277   0.00000  Uiso   1.00
Zn1715 Zn    0.46792   0.79044   0.72257   0.00000  Uiso   1.00
Zn1716 Zn    0.54500   0.86331   0.71188   0.00000  Uiso   1.00
Zn1717 Zn    0.46131   0.87202   0.78277   0.00000  Uiso   1.00
C1718  C     0.71932   0.82641   0.75854   0.00000  Uiso   1.00
C1719  C     0.79644   0.77011   0.98437   0.00000  Uiso   1.00
C1720  C     0.81873   0.74681   0.50044   0.00000  Uiso   1.00
C1721  C     0.94764   0.84036   0.74156   0.00000  Uiso   1.00
C1722  C     0.83922   0.76660   0.53001   0.00000  Uiso   1.00
C1723  C     0.83208   0.80887   0.54594   0.00000  Uiso   1.00
C1724  C     0.86274   0.74494   0.54733   0.00000  Uiso   1.00
C1725  C     0.87049   0.76139   0.58369   0.00000  Uiso   1.00
C1726  C     0.84746   0.82695   0.57948   0.00000  Uiso   1.00
C1727  C     0.99308   0.84506   0.74056   0.00000  Uiso   1.00
C1728  C     0.67373   0.82207   0.76212   0.00000  Uiso   1.00
C1729  C     0.78143   0.89911   0.92028   0.00000  Uiso   1.00
C1730  C     0.84705   0.98919   0.73925   0.00000  Uiso   1.00
C1731  C     0.81607   0.67881   0.76257   0.00000  Uiso   1.00
C1732  C     0.82207   0.72295   0.75913   0.00000  Uiso   1.00
C1733  C     0.84341   0.94440   0.74160   0.00000  Uiso   1.00
C1734  C     0.85459   0.81167   0.64372   0.00000  Uiso   1.00
C1735  C     0.81153   0.85432   0.85669   0.00000  Uiso   1.00
C1736  C     0.79745   0.86109   0.90111   0.00000  Uiso   1.00
C1737  C     0.86102   0.80135   0.60072   0.00000  Uiso   1.00
C1738  C     0.76756   0.90625   0.96173   0.00000  Uiso   1.00
C1739  C     0.99159   0.77989   0.81336   0.00000  Uiso   1.00
C1740  C     0.79803   0.82955   0.92474   0.00000  Uiso   1.00
C1741  C     0.95548   0.75076   0.83669   0.00000  Uiso   1.00
C1742  C     0.88122   0.66785   0.67513   0.00000  Uiso   1.00
C1743  C     0.91813   0.69425   0.64946   0.00000  Uiso   1.00
C1744  C     0.74262   0.67945   0.79388   0.00000  Uiso   1.00
C1745  C     0.70399   0.98686   0.81805   0.00000  Uiso   1.00
C1746  C     0.88748   0.89019   0.57289   0.00000  Uiso   1.00
C1747  C     0.88134   0.93537   0.57219   0.00000  Uiso   1.00
C1748  C     0.70310   0.93201   0.98358   0.00000  Uiso   1.00
C1749  C     0.68106   0.97142   0.99955   0.00000  Uiso   1.00
C1750  C     0.78230   0.76654   0.88865   0.00000  Uiso   1.00
C1751  C     0.79100   0.83999   0.96699   0.00000  Uiso   1.00
C1752  C     0.79426   0.72200   0.87856   0.00000  Uiso   1.00
C1753  C     0.77748   0.87971   0.98508   0.00000  Uiso   1.00
C1754  C     0.80105   0.81378   0.99137   0.00000  Uiso   1.00
C1755  C     0.80989   0.83126   0.52767   0.00000  Uiso   1.00
C1756  C     0.79207   0.86823   0.54610   0.00000  Uiso   1.00
C1757  C     0.77538   0.89194   0.52585   0.00000  Uiso   1.00
Cl1758 Cl    0.75674   0.93870   0.55333   0.00000  Uiso   1.00
Cl1759 Cl    0.88479   0.69792   0.52568   0.00000  Uiso   1.00
Cl1760 Cl    0.69489   0.88265   0.71171   0.00000  Uiso   1.00
Cl1761 Cl    0.81235   0.69203   0.98792   0.00000  Uiso   1.00
Cl1762 Cl    0.78066   0.94114   0.89403   0.00000  Uiso   1.00
Cl1763 Cl    0.74700   0.74582   0.97658   0.00000  Uiso   1.00
H1764  H     0.88332   0.74251   0.59931   0.00000  Uiso   1.00
H1765  H     0.94940   0.68666   0.65152   0.00000  Uiso   1.00
H1766  H     0.91718   0.68775   0.61790   0.00000  Uiso   1.00
H1767  H     0.91534   0.72792   0.65962   0.00000  Uiso   1.00
H1768  H     0.73731   0.68047   0.76426   0.00000  Uiso   1.00
H1769  H     0.74456   0.71154   0.80987   0.00000  Uiso   1.00
H1770  H     0.70795   0.98523   0.84797   0.00000  Uiso   1.00
H1771  H     0.67421   0.66800   0.82163   0.00000  Uiso   1.00
H1772  H     0.70082   0.95472   0.80254   0.00000  Uiso   1.00
H1773  H     0.90014   0.87652   0.54134   0.00000  Uiso   1.00
H1774  H     0.91184   0.88959   0.58922   0.00000  Uiso   1.00
H1775  H     0.78840   0.87842   0.57725   0.00000  Uiso   1.00
H1776  H     0.86505   0.94933   0.60245   0.00000  Uiso   1.00
H1777  H     0.91305   0.95372   0.56139   0.00000  Uiso   1.00
H1778  H     0.86125   0.93689   0.55196   0.00000  Uiso   1.00
H1779  H     0.68935   0.90868   0.50522   0.00000  Uiso   1.00
H1780  H     0.69591   0.91948   0.95470   0.00000  Uiso   1.00
H1781  H     0.69358   0.99488   0.97808   0.00000  Uiso   1.00
H1782  H     0.97917   0.96401   0.50371   0.00000  Uiso   1.00
H1783  H     0.68713   0.98468   0.52860   0.00000  Uiso   1.00
H1784  H     0.78158   0.77699   0.86055   0.00000  Uiso   1.00
H1785  H     0.74887   0.76664   0.90816   0.00000  Uiso   1.00
H1786  H     0.99654   0.80884   0.83360   0.00000  Uiso   1.00
H1787  H     0.79941   0.71071   0.90473   0.00000  Uiso   1.00
H1788  H     0.76809   0.70094   0.86917   0.00000  Uiso   1.00
H1789  H     0.82441   0.72075   0.85399   0.00000  Uiso   1.00
H1790  H     0.68798   0.76387   0.80345   0.00000  Uiso   1.00
H1791  H     0.94999   0.72134   0.81745   0.00000  Uiso   1.00
H1792  H     0.96427   0.74321   0.86277   0.00000  Uiso   1.00
H1793  H     0.92530   0.76595   0.84735   0.00000  Uiso   1.00
H1794  H     0.85040   0.67652   0.67265   0.00000  Uiso   1.00
H1795  H     0.88413   0.96786   0.66330   0.00000  Uiso   1.00
O1796  O     0.83333   0.83333   0.75000   0.00000  Uiso   1.00
O1797  O     0.82360   0.79060   0.66625   0.00000  Uiso   1.00
O1798  O     0.79354   0.87313   0.83749   0.00000  Uiso   1.00
O1799  O     0.87755   0.84159   0.65877   0.00000  Uiso   1.00
O1800  O     0.83865   0.82802   0.83749   0.00000  Uiso   1.00
O1801  O     0.98004   0.78886   0.78010   0.00000  Uiso   1.00
O1802  O     0.88395   0.67515   0.71483   0.00000  Uiso   1.00
O1803  O     0.78027   0.99414   0.78983   0.00000  Uiso   1.00
O1804  O     0.84792   0.86903   0.59287   0.00000  Uiso   1.00
O1805  O     0.74784   0.94179   0.97874   0.00000  Uiso   1.00
O1806  O     0.81293   0.79170   0.90642   0.00000  Uiso   1.00
O1807  O     0.84515   0.74768   0.77820   0.00000  Uiso   1.00
O1808  O     0.81247   0.92803   0.76767   0.00000  Uiso   1.00
O1809  O     0.74119   0.79917   0.73607   0.00000  Uiso   1.00
O1810  O     0.93452   0.85845   0.71805   0.00000  Uiso   1.00
O1811  O     0.73656   0.85627   0.77820   0.00000  Uiso   1.00
O1812  O     0.92106   0.81944   0.76767   0.00000  Uiso   1.00
O1813  O     0.80467   0.73570   0.73607   0.00000  Uiso   1.00
O1814  O     0.87104   0.92193   0.71805   0.00000  Uiso   1.00
Zn1815 Zn    0.85910   0.80756   0.78277   0.00000  Uiso   1.00
Zn1816 Zn    0.80125   0.79044   0.72257   0.00000  Uiso   1.00
Zn1817 Zn    0.87833   0.86331   0.71188   0.00000  Uiso   1.00
Zn1818 Zn    0.79465   0.87202   0.78277   0.00000  Uiso   1.00
loop_
_geom_bond_atom_site_label_1
_geom_bond_atom_site_label_2
_geom_bond_distance
_geom_bond_site_symmetry_2
_ccdc_geom_bond_type
C1     C11     1.444   .     S
C1     O94     1.265   .     A
C1     O92     1.256   .     A
C2     Cl46    1.765   .     S
C2     C37     1.401   .     A
C2     C912    1.402   .     S
C3     C5      1.421   .     A
C3     C911    1.402   1_554 S
C3     Cl953   1.770   1_554 S
C4     O95     1.274   .     A
C4     C10     1.459   .     S
C4     O93     1.285   .     A
C5     C7      1.424   .     A
C5     C6      1.434   .     A
C6     C9      1.429   .     A
C6     C38     1.430   .     A
C7     C8      1.391   .     A
C7     Cl42    1.764   .     S
C8     C20     1.390   .     A
C8     H47     1.083   .     S
C9     C20     1.396   .     A
C9     O87     1.381   .     S
C10    C112    1.352   .     S
C10    Cl144   1.773   .     S
C11    C212    1.352   1_455 S
C11    O286    1.398   1_455 S
C12    C21     1.395   .     A
C12    Cl45    1.775   .     S
C12    C19     1.416   .     A
C13    C16     1.461   .     S
C13    C317    1.350   .     S
C13    O388    1.389   .     S
C14    C15     1.443   .     S
C14    C619    1.350   1_545 S
C14    O692    1.398   1_545 S
C15    O96     1.265   .     A
C15    O90     1.271   .     A
C16    O97     1.274   .     A
C16    O91     1.267   .     A
C17    C20     1.464   .     S
C17    O82     1.284   .     A
C17    O80     1.274   .     A
C18    C19     1.493   .     S
C18    O81     1.283   .     A
C18    O83     1.298   .     A
C19    C23     1.426   .     A
C21    C36     1.411   .     A
C21    O88     1.382   .     S
C22    H69     1.115   .     S
C22    O84     1.414   .     S
C22    C24     1.521   .     S
C22    H174    1.113   .     S
C23    O89     1.391   .     S
C23    C34     1.437   .     A
C24    H76     1.111   .     S
C24    H75     1.111   .     S
C24    H74     1.111   .     S
C25    H77     1.115   .     S
C25    C26     1.521   .     S
C25    O85     1.411   .     S
C25    H684    1.111   1_545 S
C26    H50     1.111   .     S
C26    H48     1.111   .     S
C26    H49     1.110   .     S
C27    H51     1.114   .     S
C27    H52     1.113   .     S
C27    C634    1.521   1_545 S
C27    O692    1.414   1_545 S
C28    H55     1.111   .     S
C28    H53     1.111   .     S
C28    C330    1.521   .     S
C28    H357    1.110   .     S
C29    C30     1.522   .     S
C29    H57     1.112   .     S
C29    H56     1.118   .     S
C29    O87     1.414   .     S
C30    H60     1.110   .     S
C30    H59     1.108   .     S
C30    H61     1.110   .     S
C31    H63     1.115   .     S
C31    C32     1.520   .     S
C31    O88     1.413   .     S
C31    H971    1.114   .     S
C32    H64     1.110   .     S
C32    H1176   1.110   1_455 S
C32    H975    1.111   .     S
C33    O89     1.423   .     S
C33    H67     1.105   .     S
C33    C35     1.524   .     S
C33    H68     1.111   .     S
C34    C37     1.432   .     A
C34    C36     1.428   .     A
C35    H70     1.109   .     S
C35    H71     1.108   .     S
C35    H72     1.110   .     S
C36    C949    1.418   .     S
C37    C947    1.411   .     S
C38    C39     1.404   .     A
C38    C946    1.411   1_554 S
C39    H58     1.076   .     S
C39    C40     1.388   .     A
C40    Cl41    1.768   .     S
C40    C945    1.418   1_554 S
Cl43   C212    1.773   1_455 S
Cl44   C912    1.770   .     S
H54    C634    1.110   1_545 S
H62    C940    1.114   1_554 S
H65    C1042   1.110   1_554 S
H66    C941    1.111   1_554 S
H73    C224    1.113   1_455 S
H78    C328    1.111   .     S
O79    Zn98    1.955   .     S
O79    Zn99    1.929   .     S
O79    Zn100   1.938   .     S
O79    Zn101   1.928   .     S
O80    Zn99    1.911   .     S
O81    Zn101   1.916   .     S
O82    Zn100   1.906   .     S
O83    Zn98    1.903   .     S
O84    C112    1.398   .     S
O85    C619    1.389   1_545 S
O86    C317    1.398   .     S
O86    C330    1.414   .     S
O90    Zn98    1.931   .     S
O91    Zn101   1.939   .     S
O92    Zn99    1.935   .     S
O93    Zn100   1.941   .     S
O94    Zn101   1.935   .     S
O95    Zn98    1.932   .     S
O96    Zn99    1.944   .     S
O97    Zn100   1.934   .     S
C102   C112    1.444   .     S
C102   O195    1.265   .     A
C102   O193    1.256   .     A
C103   Cl147   1.765   .     S
C103   C138    1.401   .     A
C103   C1013   1.402   .     S
C104   C106    1.421   .     A
C104   C1012   1.402   1_554 S
C104   Cl1054  1.770   1_554 S
C105   O196    1.274   .     A
C105   C111    1.459   .     S
C105   O194    1.285   .     A
C106   C108    1.424   .     A
C106   C107    1.434   .     A
C107   C110    1.429   .     A
C107   C139    1.430   .     A
C108   C109    1.391   .     A
C108   Cl143   1.764   .     S
C109   C121    1.390   .     A
C109   H148    1.083   .     S
C110   C121    1.396   .     A
C110   O188    1.381   .     S
C111   C213    1.352   .     S
C111   Cl245   1.773   .     S
C113   C122    1.395   .     A
C113   Cl146   1.775   .     S
C113   C120    1.416   .     A
C114   C117    1.461   .     S
C114   C418    1.350   .     S
C114   O489    1.389   .     S
C115   C116    1.443   .     S
C115   C720    1.350   1_545 S
C115   O793    1.398   1_545 S
C116   O197    1.265   .     A
C116   O191    1.271   .     A
C117   O198    1.274   .     A
C117   O192    1.267   .     A
C118   C121    1.464   .     S
C118   O183    1.284   .     A
C118   O181    1.274   .     A
C119   C120    1.493   .     S
C119   O182    1.283   .     A
C119   O184    1.298   .     A
C120   C124    1.426   .     A
C122   C137    1.411   .     A
C122   O189    1.382   .     S
C123   H170    1.115   .     S
C123   O185    1.414   .     S
C123   C125    1.521   .     S
C123   H275    1.113   .     S
C124   O190    1.391   .     S
C124   C135    1.437   .     A
C125   H177    1.111   .     S
C125   H176    1.111   .     S
C125   H175    1.111   .     S
C126   H178    1.115   .     S
C126   C127    1.521   .     S
C126   O186    1.411   .     S
C126   H785    1.111   1_545 S
C127   H151    1.111   .     S
C127   H149    1.111   .     S
C127   H150    1.110   .     S
C128   H152    1.114   .     S
C128   H153    1.113   .     S
C128   C735    1.521   1_545 S
C128   O793    1.414   1_545 S
C129   H156    1.111   .     S
C129   H154    1.111   .     S
C129   C431    1.521   .     S
C129   H458    1.110   .     S
C130   C131    1.522   .     S
C130   H158    1.112   .     S
C130   H157    1.118   .     S
C130   O188    1.414   .     S
C131   H161    1.110   .     S
C131   H160    1.108   .     S
C131   H162    1.110   .     S
C132   H164    1.115   .     S
C132   C133    1.520   .     S
C132   O189    1.413   .     S
C132   H1072   1.114   .     S
C133   H165    1.110   .     S
C133   H974    1.110   .     S
C133   H1076   1.111   .     S
C134   O190    1.423   .     S
C134   H168    1.105   .     S
C134   C136    1.524   .     S
C134   H169    1.111   .     S
C135   C138    1.432   .     A
C135   C137    1.428   .     A
C136   H171    1.109   .     S
C136   H172    1.108   .     S
C136   H173    1.110   .     S
C137   C1050   1.418   .     S
C138   C1048   1.411   .     S
C139   C140    1.404   .     A
C139   C1047   1.411   1_554 S
C140   H159    1.076   .     S
C140   C141    1.388   .     A
C141   Cl142   1.768   .     S
C141   C1046   1.418   1_554 S
Cl145  C1013   1.770   .     S
H155   C735    1.110   1_545 S
H163   C1041   1.114   1_554 S
H166   C1143   1.110   1_554 S
H167   C1042   1.111   1_554 S
H179   C429    1.111   .     S
O180   Zn199   1.955   .     S
O180   Zn200   1.929   .     S
O180   Zn201   1.938   .     S
O180   Zn202   1.928   .     S
O181   Zn200   1.911   .     S
O182   Zn202   1.916   .     S
O183   Zn201   1.906   .     S
O184   Zn199   1.903   .     S
O185   C213    1.398   .     S
O186   C720    1.389   1_545 S
O187   C418    1.398   .     S
O187   C431    1.414   .     S
O191   Zn199   1.931   .     S
O192   Zn202   1.939   .     S
O193   Zn200   1.935   .     S
O194   Zn201   1.941   .     S
O195   Zn202   1.935   .     S
O196   Zn199   1.932   .     S
O197   Zn200   1.944   .     S
O198   Zn201   1.934   .     S
C203   C213    1.444   .     S
C203   O296    1.265   .     A
C203   O294    1.256   .     A
C204   Cl248   1.765   .     S
C204   C239    1.401   .     A
C204   C1114   1.402   .     S
C205   C207    1.421   .     A
C205   C1113   1.402   1_554 S
C205   Cl1155  1.770   1_554 S
C206   O297    1.274   .     A
C206   C212    1.459   .     S
C206   O295    1.285   .     A
C207   C209    1.424   .     A
C207   C208    1.434   .     A
C208   C211    1.429   .     A
C208   C240    1.430   .     A
C209   C210    1.391   .     A
C209   Cl244   1.764   .     S
C210   C222    1.390   .     A
C210   H249    1.083   .     S
C211   C222    1.396   .     A
C211   O289    1.381   .     S
C212   C11     1.352   1_655 S
C212   Cl43    1.773   1_655 S
C214   C223    1.395   .     A
C214   Cl247   1.775   .     S
C214   C221    1.416   .     A
C215   C218    1.461   .     S
C215   C519    1.350   .     S
C215   O590    1.389   .     S
C216   C217    1.443   .     S
C216   C821    1.350   1_545 S
C216   O894    1.398   1_545 S
C217   O298    1.265   .     A
C217   O292    1.271   .     A
C218   O299    1.274   .     A
C218   O293    1.267   .     A
C219   C222    1.464   .     S
C219   O284    1.284   .     A
C219   O282    1.274   .     A
C220   C221    1.493   .     S
C220   O283    1.283   .     A
C220   O285    1.298   .     A
C221   C225    1.426   .     A
C223   C238    1.411   .     A
C223   O290    1.382   .     S
C224   H271    1.115   .     S
C224   O286    1.414   .     S
C224   C226    1.521   .     S
C224   H73     1.113   1_655 S
C225   O291    1.391   .     S
C225   C236    1.437   .     A
C226   H278    1.111   .     S
C226   H277    1.111   .     S
C226   H276    1.111   .     S
C227   H279    1.115   .     S
C227   C228    1.521   .     S
C227   O287    1.411   .     S
C227   H886    1.111   1_545 S
C228   H252    1.111   .     S
C228   H250    1.111   .     S
C228   H251    1.110   .     S
C229   H253    1.114   .     S
C229   H254    1.113   .     S
C229   C836    1.521   1_545 S
C229   O894    1.414   1_545 S
C230   H257    1.111   .     S
C230   H255    1.111   .     S
C230   C532    1.521   .     S
C230   H559    1.110   .     S
C231   C232    1.522   .     S
C231   H259    1.112   .     S
C231   H258    1.118   .     S
C231   O289    1.414   .     S
C232   H262    1.110   .     S
C232   H261    1.108   .     S
C232   H263    1.110   .     S
C233   H265    1.115   .     S
C233   C234    1.520   .     S
C233   O290    1.413   .     S
C233   H1173   1.114   .     S
C234   H266    1.110   .     S
C234   H1075   1.110   .     S
C234   H1177   1.111   .     S
C235   O291    1.423   .     S
C235   H269    1.105   .     S
C235   C237    1.524   .     S
C235   H270    1.111   .     S
C236   C239    1.432   .     A
C236   C238    1.428   .     A
C237   H272    1.109   .     S
C237   H273    1.108   .     S
C237   H274    1.110   .     S
C238   C1151   1.418   .     S
C239   C1149   1.411   .     S
C240   C241    1.404   .     A
C240   C1148   1.411   1_554 S
C241   H260    1.076   .     S
C241   C242    1.388   .     A
C242   Cl243   1.768   .     S
C242   C1147   1.418   1_554 S
Cl246  C1114   1.770   .     S
H256   C836    1.110   1_545 S
H264   C1142   1.114   1_554 S
H267   C941    1.110   1_654 S
H268   C1143   1.111   1_554 S
H280   C530    1.111   .     S
O281   Zn300   1.955   .     S
O281   Zn301   1.929   .     S
O281   Zn302   1.938   .     S
O281   Zn303   1.928   .     S
O282   Zn301   1.911   .     S
O283   Zn303   1.916   .     S
O284   Zn302   1.906   .     S
O285   Zn300   1.903   .     S
O286   C11     1.398   1_655 S
O287   C821    1.389   1_545 S
O288   C519    1.398   .     S
O288   C532    1.414   .     S
O292   Zn300   1.931   .     S
O293   Zn303   1.939   .     S
O294   Zn301   1.935   .     S
O295   Zn302   1.941   .     S
O296   Zn303   1.935   .     S
O297   Zn300   1.932   .     S
O298   Zn301   1.944   .     S
O299   Zn302   1.934   .     S
C304   C314    1.444   .     S
C304   O397    1.265   .     A
C304   O395    1.256   .     A
C305   Cl349   1.765   .     S
C305   C340    1.401   .     A
C305   C1215   1.402   .     S
C306   C308    1.421   .     A
C306   C1214   1.402   1_554 S
C306   Cl1256  1.770   1_554 S
C307   O398    1.274   .     A
C307   C313    1.459   .     S
C307   O396    1.285   .     A
C308   C310    1.424   .     A
C308   C309    1.434   .     A
C309   C312    1.429   .     A
C309   C341    1.430   .     A
C310   C311    1.391   .     A
C310   Cl345   1.764   .     S
C311   C323    1.390   .     A
C311   H350    1.083   .     S
C312   C323    1.396   .     A
C312   O390    1.381   .     S
C313   C415    1.352   .     S
C313   Cl447   1.773   .     S
C314   C515    1.352   1_455 S
C314   O589    1.398   1_455 S
C315   C324    1.395   .     A
C315   Cl348   1.775   .     S
C315   C322    1.416   .     A
C316   C319    1.461   .     S
C316   C620    1.350   .     S
C316   O691    1.389   .     S
C317   C318    1.443   .     S
C318   O399    1.265   .     A
C318   O393    1.271   .     A
C319   O400    1.274   .     A
C319   O394    1.267   .     A
C320   C323    1.464   .     S
C320   O385    1.284   .     A
C320   O383    1.274   .     A
C321   C322    1.493   .     S
C321   O384    1.283   .     A
C321   O386    1.298   .     A
C322   C326    1.426   .     A
C324   C339    1.411   .     A
C324   O391    1.382   .     S
C325   H372    1.115   .     S
C325   O387    1.414   .     S
C325   C327    1.521   .     S
C325   H477    1.113   .     S
C326   O392    1.391   .     S
C326   C337    1.437   .     A
C327   H379    1.111   .     S
C327   H378    1.111   .     S
C327   H377    1.111   .     S
C328   H380    1.115   .     S
C328   C329    1.521   .     S
C328   O388    1.411   .     S
C329   H353    1.111   .     S
C329   H351    1.111   .     S
C329   H352    1.110   .     S
C330   H354    1.114   .     S
C330   H355    1.113   .     S
C331   H358    1.111   .     S
C331   H356    1.111   .     S
C331   C633    1.521   .     S
C331   H660    1.110   .     S
C332   C333    1.522   .     S
C332   H360    1.112   .     S
C332   H359    1.118   .     S
C332   O390    1.414   .     S
C333   H363    1.110   .     S
C333   H362    1.108   .     S
C333   H364    1.110   .     S
C334   H366    1.115   .     S
C334   C335    1.520   .     S
C334   O391    1.413   .     S
C334   H1274   1.114   .     S
C335   H367    1.110   .     S
C335   H1479   1.110   1_455 S
C335   H1278   1.111   .     S
C336   O392    1.423   .     S
C336   H370    1.105   .     S
C336   C338    1.524   .     S
C336   H371    1.111   .     S
C337   C340    1.432   .     A
C337   C339    1.428   .     A
C338   H373    1.109   .     S
C338   H374    1.108   .     S
C338   H375    1.110   .     S
C339   C1252   1.418   .     S
C340   C1250   1.411   .     S
C341   C342    1.404   .     A
C341   C1249   1.411   1_554 S
C342   H361    1.076   .     S
C342   C343    1.388   .     A
C343   Cl344   1.768   .     S
C343   C1248   1.418   1_554 S
Cl346  C515    1.773   1_455 S
Cl347  C1215   1.770   .     S
H365   C1243   1.114   1_554 S
H368   C1345   1.110   1_554 S
H369   C1244   1.111   1_554 S
H376   C527    1.113   1_455 S
H381   C631    1.111   .     S
O382   Zn401   1.955   .     S
O382   Zn402   1.929   .     S
O382   Zn403   1.938   .     S
O382   Zn404   1.928   .     S
O383   Zn402   1.911   .     S
O384   Zn404   1.916   .     S
O385   Zn403   1.906   .     S
O386   Zn401   1.903   .     S
O387   C415    1.398   .     S
O389   C620    1.398   .     S
O389   C633    1.414   .     S
O393   Zn401   1.931   .     S
O394   Zn404   1.939   .     S
O395   Zn402   1.935   .     S
O396   Zn403   1.941   .     S
O397   Zn404   1.935   .     S
O398   Zn401   1.932   .     S
O399   Zn402   1.944   .     S
O400   Zn403   1.934   .     S
C405   C415    1.444   .     S
C405   O498    1.265   .     A
C405   O496    1.256   .     A
C406   Cl450   1.765   .     S
C406   C441    1.401   .     A
C406   C1316   1.402   .     S
C407   C409    1.421   .     A
C407   C1315   1.402   1_554 S
C407   Cl1357  1.770   1_554 S
C408   O499    1.274   .     A
C408   C414    1.459   .     S
C408   O497    1.285   .     A
C409   C411    1.424   .     A
C409   C410    1.434   .     A
C410   C413    1.429   .     A
C410   C442    1.430   .     A
C411   C412    1.391   .     A
C411   Cl446   1.764   .     S
C412   C424    1.390   .     A
C412   H451    1.083   .     S
C413   C424    1.396   .     A
C413   O491    1.381   .     S
C414   C516    1.352   .     S
C414   Cl548   1.773   .     S
C416   C425    1.395   .     A
C416   Cl449   1.775   .     S
C416   C423    1.416   .     A
C417   C420    1.461   .     S
C417   C721    1.350   .     S
C417   O792    1.389   .     S
C418   C419    1.443   .     S
C419   O500    1.265   .     A
C419   O494    1.271   .     A
C420   O501    1.274   .     A
C420   O495    1.267   .     A
C421   C424    1.464   .     S
C421   O486    1.284   .     A
C421   O484    1.274   .     A
C422   C423    1.493   .     S
C422   O485    1.283   .     A
C422   O487    1.298   .     A
C423   C427    1.426   .     A
C425   C440    1.411   .     A
C425   O492    1.382   .     S
C426   H473    1.115   .     S
C426   O488    1.414   .     S
C426   C428    1.521   .     S
C426   H578    1.113   .     S
C427   O493    1.391   .     S
C427   C438    1.437   .     A
C428   H480    1.111   .     S
C428   H479    1.111   .     S
C428   H478    1.111   .     S
C429   H481    1.115   .     S
C429   C430    1.521   .     S
C429   O489    1.411   .     S
C430   H454    1.111   .     S
C430   H452    1.111   .     S
C430   H453    1.110   .     S
C431   H455    1.114   .     S
C431   H456    1.113   .     S
C432   H459    1.111   .     S
C432   H457    1.111   .     S
C432   C734    1.521   .     S
C432   H761    1.110   .     S
C433   C434    1.522   .     S
C433   H461    1.112   .     S
C433   H460    1.118   .     S
C433   O491    1.414   .     S
C434   H464    1.110   .     S
C434   H463    1.108   .     S
C434   H465    1.110   .     S
C435   H467    1.115   .     S
C435   C436    1.520   .     S
C435   O492    1.413   .     S
C435   H1375   1.114   .     S
C436   H468    1.110   .     S
C436   H1277   1.110   .     S
C436   H1379   1.111   .     S
C437   O493    1.423   .     S
C437   H471    1.105   .     S
C437   C439    1.524   .     S
C437   H472    1.111   .     S
C438   C441    1.432   .     A
C438   C440    1.428   .     A
C439   H474    1.109   .     S
C439   H475    1.108   .     S
C439   H476    1.110   .     S
C440   C1353   1.418   .     S
C441   C1351   1.411   .     S
C442   C443    1.404   .     A
C442   C1350   1.411   1_554 S
C443   H462    1.076   .     S
C443   C444    1.388   .     A
C444   Cl445   1.768   .     S
C444   C1349   1.418   1_554 S
Cl448  C1316   1.770   .     S
H466   C1344   1.114   1_554 S
H469   C1446   1.110   1_554 S
H470   C1345   1.111   1_554 S
H482   C732    1.111   .     S
O483   Zn502   1.955   .     S
O483   Zn503   1.929   .     S
O483   Zn504   1.938   .     S
O483   Zn505   1.928   .     S
O484   Zn503   1.911   .     S
O485   Zn505   1.916   .     S
O486   Zn504   1.906   .     S
O487   Zn502   1.903   .     S
O488   C516    1.398   .     S
O490   C721    1.398   .     S
O490   C734    1.414   .     S
O494   Zn502   1.931   .     S
O495   Zn505   1.939   .     S
O496   Zn503   1.935   .     S
O497   Zn504   1.941   .     S
O498   Zn505   1.935   .     S
O499   Zn502   1.932   .     S
O500   Zn503   1.944   .     S
O501   Zn504   1.934   .     S
C506   C516    1.444   .     S
C506   O599    1.265   .     A
C506   O597    1.256   .     A
C507   Cl551   1.765   .     S
C507   C542    1.401   .     A
C507   C1417   1.402   .     S
C508   C510    1.421   .     A
C508   C1416   1.402   1_554 S
C508   Cl1458  1.770   1_554 S
C509   O600    1.274   .     A
C509   C515    1.459   .     S
C509   O598    1.285   .     A
C510   C512    1.424   .     A
C510   C511    1.434   .     A
C511   C514    1.429   .     A
C511   C543    1.430   .     A
C512   C513    1.391   .     A
C512   Cl547   1.764   .     S
C513   C525    1.390   .     A
C513   H552    1.083   .     S
C514   C525    1.396   .     A
C514   O592    1.381   .     S
C515   C314    1.352   1_655 S
C515   Cl346   1.773   1_655 S
C517   C526    1.395   .     A
C517   Cl550   1.775   .     S
C517   C524    1.416   .     A
C518   C521    1.461   .     S
C518   C822    1.350   .     S
C518   O893    1.389   .     S
C519   C520    1.443   .     S
C520   O601    1.265   .     A
C520   O595    1.271   .     A
C521   O602    1.274   .     A
C521   O596    1.267   .     A
C522   C525    1.464   .     S
C522   O587    1.284   .     A
C522   O585    1.274   .     A
C523   C524    1.493   .     S
C523   O586    1.283   .     A
C523   O588    1.298   .     A
C524   C528    1.426   .     A
C526   C541    1.411   .     A
C526   O593    1.382   .     S
C527   H574    1.115   .     S
C527   O589    1.414   .     S
C527   C529    1.521   .     S
C527   H376    1.113   1_655 S
C528   O594    1.391   .     S
C528   C539    1.437   .     A
C529   H581    1.111   .     S
C529   H580    1.111   .     S
C529   H579    1.111   .     S
C530   H582    1.115   .     S
C530   C531    1.521   .     S
C530   O590    1.411   .     S
C531   H555    1.111   .     S
C531   H553    1.111   .     S
C531   H554    1.110   .     S
C532   H556    1.114   .     S
C532   H557    1.113   .     S
C533   H560    1.111   .     S
C533   H558    1.111   .     S
C533   C835    1.521   .     S
C533   H862    1.110   .     S
C534   C535    1.522   .     S
C534   H562    1.112   .     S
C534   H561    1.118   .     S
C534   O592    1.414   .     S
C535   H565    1.110   .     S
C535   H564    1.108   .     S
C535   H566    1.110   .     S
C536   H568    1.115   .     S
C536   C537    1.520   .     S
C536   O593    1.413   .     S
C536   H1476   1.114   .     S
C537   H569    1.110   .     S
C537   H1378   1.110   .     S
C537   H1480   1.111   .     S
C538   O594    1.423   .     S
C538   H572    1.105   .     S
C538   C540    1.524   .     S
C538   H573    1.111   .     S
C539   C542    1.432   .     A
C539   C541    1.428   .     A
C540   H575    1.109   .     S
C540   H576    1.108   .     S
C540   H577    1.110   .     S
C541   C1454   1.418   .     S
C542   C1452   1.411   .     S
C543   C544    1.404   .     A
C543   C1451   1.411   1_554 S
C544   H563    1.076   .     S
C544   C545    1.388   .     A
C545   Cl546   1.768   .     S
C545   C1450   1.418   1_554 S
Cl549  C1417   1.770   .     S
H567   C1445   1.114   1_554 S
H570   C1244   1.110   1_654 S
H571   C1446   1.111   1_554 S
H583   C833    1.111   .     S
O584   Zn603   1.955   .     S
O584   Zn604   1.929   .     S
O584   Zn605   1.938   .     S
O584   Zn606   1.928   .     S
O585   Zn604   1.911   .     S
O586   Zn606   1.916   .     S
O587   Zn605   1.906   .     S
O588   Zn603   1.903   .     S
O589   C314    1.398   1_655 S
O591   C822    1.398   .     S
O591   C835    1.414   .     S
O595   Zn603   1.931   .     S
O596   Zn606   1.939   .     S
O597   Zn604   1.935   .     S
O598   Zn605   1.941   .     S
O599   Zn606   1.935   .     S
O600   Zn603   1.932   .     S
O601   Zn604   1.944   .     S
O602   Zn605   1.934   .     S
C607   C617    1.444   .     S
C607   O700    1.265   .     A
C607   O698    1.256   .     A
C608   Cl652   1.765   .     S
C608   C643    1.401   .     A
C608   C1518   1.402   .     S
C609   C611    1.421   .     A
C609   C1517   1.402   1_554 S
C609   Cl1559  1.770   1_554 S
C610   O701    1.274   .     A
C610   C616    1.459   .     S
C610   O699    1.285   .     A
C611   C613    1.424   .     A
C611   C612    1.434   .     A
C612   C615    1.429   .     A
C612   C644    1.430   .     A
C613   C614    1.391   .     A
C613   Cl648   1.764   .     S
C614   C626    1.390   .     A
C614   H653    1.083   .     S
C615   C626    1.396   .     A
C615   O693    1.381   .     S
C616   C718    1.352   .     S
C616   Cl750   1.773   .     S
C617   C818    1.352   1_455 S
C617   O892    1.398   1_455 S
C618   C627    1.395   .     A
C618   Cl651   1.775   .     S
C618   C625    1.416   .     A
C619   C622    1.461   .     S
C619   C14     1.350   1_565 S
C619   O85     1.389   1_565 S
C620   C621    1.443   .     S
C621   O702    1.265   .     A
C621   O696    1.271   .     A
C622   O703    1.274   .     A
C622   O697    1.267   .     A
C623   C626    1.464   .     S
C623   O688    1.284   .     A
C623   O686    1.274   .     A
C624   C625    1.493   .     S
C624   O687    1.283   .     A
C624   O689    1.298   .     A
C625   C629    1.426   .     A
C627   C642    1.411   .     A
C627   O694    1.382   .     S
C628   H675    1.115   .     S
C628   O690    1.414   .     S
C628   C630    1.521   .     S
C628   H780    1.113   .     S
C629   O695    1.391   .     S
C629   C640    1.437   .     A
C630   H682    1.111   .     S
C630   H681    1.111   .     S
C630   H680    1.111   .     S
C631   H683    1.115   .     S
C631   C632    1.521   .     S
C631   O691    1.411   .     S
C632   H656    1.111   .     S
C632   H654    1.111   .     S
C632   H655    1.110   .     S
C633   H657    1.114   .     S
C633   H658    1.113   .     S
C634   H661    1.111   .     S
C634   H659    1.111   .     S
C634   C27     1.521   1_565 S
C634   H54     1.110   1_565 S
C635   C636    1.522   .     S
C635   H663    1.112   .     S
C635   H662    1.118   .     S
C635   O693    1.414   .     S
C636   H666    1.110   .     S
C636   H665    1.108   .     S
C636   H667    1.110   .     S
C637   H669    1.115   .     S
C637   C638    1.520   .     S
C637   O694    1.413   .     S
C637   H1577   1.114   .     S
C638   H670    1.110   .     S
C638   H1782   1.110   1_455 S
C638   H1581   1.111   .     S
C639   O695    1.423   .     S
C639   H673    1.105   .     S
C639   C641    1.524   .     S
C639   H674    1.111   .     S
C640   C643    1.432   .     A
C640   C642    1.428   .     A
C641   H676    1.109   .     S
C641   H677    1.108   .     S
C641   H678    1.110   .     S
C642   C1555   1.418   .     S
C643   C1553   1.411   .     S
C644   C645    1.404   .     A
C644   C1552   1.411   1_554 S
C645   H664    1.076   .     S
C645   C646    1.388   .     A
C646   Cl647   1.768   .     S
C646   C1551   1.418   1_554 S
Cl649  C818    1.773   1_455 S
Cl650  C1518   1.770   .     S
H668   C1546   1.114   1_554 S
H671   C1648   1.110   1_554 S
H672   C1547   1.111   1_554 S
H679   C830    1.113   1_455 S
H684   C25     1.111   1_565 S
O685   Zn704   1.955   .     S
O685   Zn705   1.929   .     S
O685   Zn706   1.938   .     S
O685   Zn707   1.928   .     S
O686   Zn705   1.911   .     S
O687   Zn707   1.916   .     S
O688   Zn706   1.906   .     S
O689   Zn704   1.903   .     S
O690   C718    1.398   .     S
O692   C14     1.398   1_565 S
O692   C27     1.414   1_565 S
O696   Zn704   1.931   .     S
O697   Zn707   1.939   .     S
O698   Zn705   1.935   .     S
O699   Zn706   1.941   .     S
O700   Zn707   1.935   .     S
O701   Zn704   1.932   .     S
O702   Zn705   1.944   .     S
O703   Zn706   1.934   .     S
C708   C718    1.444   .     S
C708   O801    1.265   .     A
C708   O799    1.256   .     A
C709   Cl753   1.765   .     S
C709   C744    1.401   .     A
C709   C1619   1.402   .     S
C710   C712    1.421   .     A
C710   C1618   1.402   1_554 S
C710   Cl1660  1.770   1_554 S
C711   O802    1.274   .     A
C711   C717    1.459   .     S
C711   O800    1.285   .     A
C712   C714    1.424   .     A
C712   C713    1.434   .     A
C713   C716    1.429   .     A
C713   C745    1.430   .     A
C714   C715    1.391   .     A
C714   Cl749   1.764   .     S
C715   C727    1.390   .     A
C715   H754    1.083   .     S
C716   C727    1.396   .     A
C716   O794    1.381   .     S
C717   C819    1.352   .     S
C717   Cl851   1.773   .     S
C719   C728    1.395   .     A
C719   Cl752   1.775   .     S
C719   C726    1.416   .     A
C720   C723    1.461   .     S
C720   C115    1.350   1_565 S
C720   O186    1.389   1_565 S
C721   C722    1.443   .     S
C722   O803    1.265   .     A
C722   O797    1.271   .     A
C723   O804    1.274   .     A
C723   O798    1.267   .     A
C724   C727    1.464   .     S
C724   O789    1.284   .     A
C724   O787    1.274   .     A
C725   C726    1.493   .     S
C725   O788    1.283   .     A
C725   O790    1.298   .     A
C726   C730    1.426   .     A
C728   C743    1.411   .     A
C728   O795    1.382   .     S
C729   H776    1.115   .     S
C729   O791    1.414   .     S
C729   C731    1.521   .     S
C729   H881    1.113   .     S
C730   O796    1.391   .     S
C730   C741    1.437   .     A
C731   H783    1.111   .     S
C731   H782    1.111   .     S
C731   H781    1.111   .     S
C732   H784    1.115   .     S
C732   C733    1.521   .     S
C732   O792    1.411   .     S
C733   H757    1.111   .     S
C733   H755    1.111   .     S
C733   H756    1.110   .     S
C734   H758    1.114   .     S
C734   H759    1.113   .     S
C735   H762    1.111   .     S
C735   H760    1.111   .     S
C735   C128    1.521   1_565 S
C735   H155    1.110   1_565 S
C736   C737    1.522   .     S
C736   H764    1.112   .     S
C736   H763    1.118   .     S
C736   O794    1.414   .     S
C737   H767    1.110   .     S
C737   H766    1.108   .     S
C737   H768    1.110   .     S
C738   H770    1.115   .     S
C738   C739    1.520   .     S
C738   O795    1.413   .     S
C738   H1678   1.114   .     S
C739   H771    1.110   .     S
C739   H1580   1.110   .     S
C739   H1682   1.111   .     S
C740   O796    1.423   .     S
C740   H774    1.105   .     S
C740   C742    1.524   .     S
C740   H775    1.111   .     S
C741   C744    1.432   .     A
C741   C743    1.428   .     A
C742   H777    1.109   .     S
C742   H778    1.108   .     S
C742   H779    1.110   .     S
C743   C1656   1.418   .     S
C744   C1654   1.411   .     S
C745   C746    1.404   .     A
C745   C1653   1.411   1_554 S
C746   H765    1.076   .     S
C746   C747    1.388   .     A
C747   Cl748   1.768   .     S
C747   C1652   1.418   1_554 S
Cl751  C1619   1.770   .     S
H769   C1647   1.114   1_554 S
H772   C1749   1.110   1_554 S
H773   C1648   1.111   1_554 S
H785   C126    1.111   1_565 S
O786   Zn805   1.955   .     S
O786   Zn806   1.929   .     S
O786   Zn807   1.938   .     S
O786   Zn808   1.928   .     S
O787   Zn806   1.911   .     S
O788   Zn808   1.916   .     S
O789   Zn807   1.906   .     S
O790   Zn805   1.903   .     S
O791   C819    1.398   .     S
O793   C115    1.398   1_565 S
O793   C128    1.414   1_565 S
O797   Zn805   1.931   .     S
O798   Zn808   1.939   .     S
O799   Zn806   1.935   .     S
O800   Zn807   1.941   .     S
O801   Zn808   1.935   .     S
O802   Zn805   1.932   .     S
O803   Zn806   1.944   .     S
O804   Zn807   1.934   .     S
C809   C819    1.444   .     S
C809   O902    1.265   .     A
C809   O900    1.256   .     A
C810   Cl854   1.765   .     S
C810   C845    1.401   .     A
C810   C1720   1.402   .     S
C811   C813    1.421   .     A
C811   C1719   1.402   1_554 S
C811   Cl1761  1.770   1_554 S
C812   O903    1.274   .     A
C812   C818    1.459   .     S
C812   O901    1.285   .     A
C813   C815    1.424   .     A
C813   C814    1.434   .     A
C814   C817    1.429   .     A
C814   C846    1.430   .     A
C815   C816    1.391   .     A
C815   Cl850   1.764   .     S
C816   C828    1.390   .     A
C816   H855    1.083   .     S
C817   C828    1.396   .     A
C817   O895    1.381   .     S
C818   C617    1.352   1_655 S
C818   Cl649   1.773   1_655 S
C820   C829    1.395   .     A
C820   Cl853   1.775   .     S
C820   C827    1.416   .     A
C821   C824    1.461   .     S
C821   C216    1.350   1_565 S
C821   O287    1.389   1_565 S
C822   C823    1.443   .     S
C823   O904    1.265   .     A
C823   O898    1.271   .     A
C824   O905    1.274   .     A
C824   O899    1.267   .     A
C825   C828    1.464   .     S
C825   O890    1.284   .     A
C825   O888    1.274   .     A
C826   C827    1.493   .     S
C826   O889    1.283   .     A
C826   O891    1.298   .     A
C827   C831    1.426   .     A
C829   C844    1.411   .     A
C829   O896    1.382   .     S
C830   H877    1.115   .     S
C830   O892    1.414   .     S
C830   C832    1.521   .     S
C830   H679    1.113   1_655 S
C831   O897    1.391   .     S
C831   C842    1.437   .     A
C832   H884    1.111   .     S
C832   H883    1.111   .     S
C832   H882    1.111   .     S
C833   H885    1.115   .     S
C833   C834    1.521   .     S
C833   O893    1.411   .     S
C834   H858    1.111   .     S
C834   H856    1.111   .     S
C834   H857    1.110   .     S
C835   H859    1.114   .     S
C835   H860    1.113   .     S
C836   H863    1.111   .     S
C836   H861    1.111   .     S
C836   C229    1.521   1_565 S
C836   H256    1.110   1_565 S
C837   C838    1.522   .     S
C837   H865    1.112   .     S
C837   H864    1.118   .     S
C837   O895    1.414   .     S
C838   H868    1.110   .     S
C838   H867    1.108   .     S
C838   H869    1.110   .     S
C839   H871    1.115   .     S
C839   C840    1.520   .     S
C839   O896    1.413   .     S
C839   H1779   1.114   .     S
C840   H872    1.110   .     S
C840   H1681   1.110   .     S
C840   H1783   1.111   .     S
C841   O897    1.423   .     S
C841   H875    1.105   .     S
C841   C843    1.524   .     S
C841   H876    1.111   .     S
C842   C845    1.432   .     A
C842   C844    1.428   .     A
C843   H878    1.109   .     S
C843   H879    1.108   .     S
C843   H880    1.110   .     S
C844   C1757   1.418   .     S
C845   C1755   1.411   .     S
C846   C847    1.404   .     A
C846   C1754   1.411   1_554 S
C847   H866    1.076   .     S
C847   C848    1.388   .     A
C848   Cl849   1.768   .     S
C848   C1753   1.418   1_554 S
Cl852  C1720   1.770   .     S
H870   C1748   1.114   1_554 S
H873   C1547   1.110   1_654 S
H874   C1749   1.111   1_554 S
H886   C227    1.111   1_565 S
O887   Zn906   1.955   .     S
O887   Zn907   1.929   .     S
O887   Zn908   1.938   .     S
O887   Zn909   1.928   .     S
O888   Zn907   1.911   .     S
O889   Zn909   1.916   .     S
O890   Zn908   1.906   .     S
O891   Zn906   1.903   .     S
O892   C617    1.398   1_655 S
O894   C216    1.398   1_565 S
O894   C229    1.414   1_565 S
O898   Zn906   1.931   .     S
O899   Zn909   1.939   .     S
O900   Zn907   1.935   .     S
O901   Zn908   1.941   .     S
O902   Zn909   1.935   .     S
O903   Zn906   1.932   .     S
O904   Zn907   1.944   .     S
O905   Zn908   1.934   .     S
C910   C920    1.444   .     S
C910   O1003   1.265   .     A
C910   O1001   1.256   .     A
C911   Cl955   1.765   .     S
C911   C946    1.401   .     A
C911   C3      1.402   1_556 S
C912   C914    1.421   .     A
C913   O1004   1.274   .     A
C913   C919    1.459   .     S
C913   O1002   1.285   .     A
C914   C916    1.424   .     A
C914   C915    1.434   .     A
C915   C918    1.429   .     A
C915   C947    1.430   .     A
C916   C917    1.391   .     A
C916   Cl951   1.764   .     S
C917   C929    1.390   .     A
C917   H956    1.083   .     S
C918   C929    1.396   .     A
C918   O996    1.381   .     S
C919   C1021   1.352   .     S
C919   Cl1053  1.773   .     S
C920   C1121   1.352   1_455 S
C920   O1195   1.398   1_455 S
C921   C930    1.395   .     A
C921   Cl954   1.775   .     S
C921   C928    1.416   .     A
C922   C925    1.461   .     S
C922   C1226   1.350   .     S
C922   O1297   1.389   .     S
C923   C924    1.443   .     S
C923   C1528   1.350   1_545 S
C923   O1601   1.398   1_545 S
C924   O1005   1.265   .     A
C924   O999    1.271   .     A
C925   O1006   1.274   .     A
C925   O1000   1.267   .     A
C926   C929    1.464   .     S
C926   O991    1.284   .     A
C926   O989    1.274   .     A
C927   C928    1.493   .     S
C927   O990    1.283   .     A
C927   O992    1.298   .     A
C928   C932    1.426   .     A
C930   C945    1.411   .     A
C930   O997    1.382   .     S
C931   H978    1.115   .     S
C931   O993    1.414   .     S
C931   C933    1.521   .     S
C931   H1083   1.113   .     S
C932   O998    1.391   .     S
C932   C943    1.437   .     A
C933   H985    1.111   .     S
C933   H984    1.111   .     S
C933   H983    1.111   .     S
C934   H986    1.115   .     S
C934   C935    1.521   .     S
C934   O994    1.411   .     S
C934   H1593   1.111   1_545 S
C935   H959    1.111   .     S
C935   H957    1.111   .     S
C935   H958    1.110   .     S
C936   H960    1.114   .     S
C936   H961    1.113   .     S
C936   C1543   1.521   1_545 S
C936   O1601   1.414   1_545 S
C937   H964    1.111   .     S
C937   H962    1.111   .     S
C937   C1239   1.521   .     S
C937   H1266   1.110   .     S
C938   C939    1.522   .     S
C938   H966    1.112   .     S
C938   H965    1.118   .     S
C938   O996    1.414   .     S
C939   H969    1.110   .     S
C939   H968    1.108   .     S
C939   H970    1.110   .     S
C940   H972    1.115   .     S
C940   C941    1.520   .     S
C940   O997    1.413   .     S
C940   H62     1.114   1_556 S
C941   H973    1.110   .     S
C941   H267    1.110   1_456 S
C941   H66     1.111   1_556 S
C942   O998    1.423   .     S
C942   H976    1.105   .     S
C942   C944    1.524   .     S
C942   H977    1.111   .     S
C943   C946    1.432   .     A
C943   C945    1.428   .     A
C944   H979    1.109   .     S
C944   H980    1.108   .     S
C944   H981    1.110   .     S
C945   C40     1.418   1_556 S
C946   C38     1.411   1_556 S
C947   C948    1.404   .     A
C948   H967    1.076   .     S
C948   C949    1.388   .     A
C949   Cl950   1.768   .     S
Cl952  C1121   1.773   1_455 S
Cl953  C3      1.770   1_556 S
H963   C1543   1.110   1_545 S
H982   C1133   1.113   1_455 S
H987   C1237   1.111   .     S
O988   Zn1007  1.955   .     S
O988   Zn1008  1.929   .     S
O988   Zn1009  1.938   .     S
O988   Zn1010  1.928   .     S
O989   Zn1008  1.911   .     S
O990   Zn1010  1.916   .     S
O991   Zn1009  1.906   .     S
O992   Zn1007  1.903   .     S
O993   C1021   1.398   .     S
O994   C1528   1.389   1_545 S
O995   C1226   1.398   .     S
O995   C1239   1.414   .     S
O999   Zn1007  1.931   .     S
O1000  Zn1010  1.939   .     S
O1001  Zn1008  1.935   .     S
O1002  Zn1009  1.941   .     S
O1003  Zn1010  1.935   .     S
O1004  Zn1007  1.932   .     S
O1005  Zn1008  1.944   .     S
O1006  Zn1009  1.934   .     S
C1011  C1021   1.444   .     S
C1011  O1104   1.265   .     A
C1011  O1102   1.256   .     A
C1012  Cl1056  1.765   .     S
C1012  C1047   1.401   .     A
C1012  C104    1.402   1_556 S
C1013  C1015   1.421   .     A
C1014  O1105   1.274   .     A
C1014  C1020   1.459   .     S
C1014  O1103   1.285   .     A
C1015  C1017   1.424   .     A
C1015  C1016   1.434   .     A
C1016  C1019   1.429   .     A
C1016  C1048   1.430   .     A
C1017  C1018   1.391   .     A
C1017  Cl1052  1.764   .     S
C1018  C1030   1.390   .     A
C1018  H1057   1.083   .     S
C1019  C1030   1.396   .     A
C1019  O1097   1.381   .     S
C1020  C1122   1.352   .     S
C1020  Cl1154  1.773   .     S
C1022  C1031   1.395   .     A
C1022  Cl1055  1.775   .     S
C1022  C1029   1.416   .     A
C1023  C1026   1.461   .     S
C1023  C1327   1.350   .     S
C1023  O1398   1.389   .     S
C1024  C1025   1.443   .     S
C1024  C1629   1.350   1_545 S
C1024  O1702   1.398   1_545 S
C1025  O1106   1.265   .     A
C1025  O1100   1.271   .     A
C1026  O1107   1.274   .     A
C1026  O1101   1.267   .     A
C1027  C1030   1.464   .     S
C1027  O1092   1.284   .     A
C1027  O1090   1.274   .     A
C1028  C1029   1.493   .     S
C1028  O1091   1.283   .     A
C1028  O1093   1.298   .     A
C1029  C1033   1.426   .     A
C1031  C1046   1.411   .     A
C1031  O1098   1.382   .     S
C1032  H1079   1.115   .     S
C1032  O1094   1.414   .     S
C1032  C1034   1.521   .     S
C1032  H1184   1.113   .     S
C1033  O1099   1.391   .     S
C1033  C1044   1.437   .     A
C1034  H1086   1.111   .     S
C1034  H1085   1.111   .     S
C1034  H1084   1.111   .     S
C1035  H1087   1.115   .     S
C1035  C1036   1.521   .     S
C1035  O1095   1.411   .     S
C1035  H1694   1.111   1_545 S
C1036  H1060   1.111   .     S
C1036  H1058   1.111   .     S
C1036  H1059   1.110   .     S
C1037  H1061   1.114   .     S
C1037  H1062   1.113   .     S
C1037  C1644   1.521   1_545 S
C1037  O1702   1.414   1_545 S
C1038  H1065   1.111   .     S
C1038  H1063   1.111   .     S
C1038  C1340   1.521   .     S
C1038  H1367   1.110   .     S
C1039  C1040   1.522   .     S
C1039  H1067   1.112   .     S
C1039  H1066   1.118   .     S
C1039  O1097   1.414   .     S
C1040  H1070   1.110   .     S
C1040  H1069   1.108   .     S
C1040  H1071   1.110   .     S
C1041  H1073   1.115   .     S
C1041  C1042   1.520   .     S
C1041  O1098   1.413   .     S
C1041  H163    1.114   1_556 S
C1042  H1074   1.110   .     S
C1042  H65     1.110   1_556 S
C1042  H167    1.111   1_556 S
C1043  O1099   1.423   .     S
C1043  H1077   1.105   .     S
C1043  C1045   1.524   .     S
C1043  H1078   1.111   .     S
C1044  C1047   1.432   .     A
C1044  C1046   1.428   .     A
C1045  H1080   1.109   .     S
C1045  H1081   1.108   .     S
C1045  H1082   1.110   .     S
C1046  C141    1.418   1_556 S
C1047  C139    1.411   1_556 S
C1048  C1049   1.404   .     A
C1049  H1068   1.076   .     S
C1049  C1050   1.388   .     A
C1050  Cl1051  1.768   .     S
Cl1054 C104    1.770   1_556 S
H1064  C1644   1.110   1_545 S
H1088  C1338   1.111   .     S
O1089  Zn1108  1.955   .     S
O1089  Zn1109  1.929   .     S
O1089  Zn1110  1.938   .     S
O1089  Zn1111  1.928   .     S
O1090  Zn1109  1.911   .     S
O1091  Zn1111  1.916   .     S
O1092  Zn1110  1.906   .     S
O1093  Zn1108  1.903   .     S
O1094  C1122   1.398   .     S
O1095  C1629   1.389   1_545 S
O1096  C1327   1.398   .     S
O1096  C1340   1.414   .     S
O1100  Zn1108  1.931   .     S
O1101  Zn1111  1.939   .     S
O1102  Zn1109  1.935   .     S
O1103  Zn1110  1.941   .     S
O1104  Zn1111  1.935   .     S
O1105  Zn1108  1.932   .     S
O1106  Zn1109  1.944   .     S
O1107  Zn1110  1.934   .     S
C1112  C1122   1.444   .     S
C1112  O1205   1.265   .     A
C1112  O1203   1.256   .     A
C1113  Cl1157  1.765   .     S
C1113  C1148   1.401   .     A
C1113  C205    1.402   1_556 S
C1114  C1116   1.421   .     A
C1115  O1206   1.274   .     A
C1115  C1121   1.459   .     S
C1115  O1204   1.285   .     A
C1116  C1118   1.424   .     A
C1116  C1117   1.434   .     A
C1117  C1120   1.429   .     A
C1117  C1149   1.430   .     A
C1118  C1119   1.391   .     A
C1118  Cl1153  1.764   .     S
C1119  C1131   1.390   .     A
C1119  H1158   1.083   .     S
C1120  C1131   1.396   .     A
C1120  O1198   1.381   .     S
C1121  C920    1.352   1_655 S
C1121  Cl952   1.773   1_655 S
C1123  C1132   1.395   .     A
C1123  Cl1156  1.775   .     S
C1123  C1130   1.416   .     A
C1124  C1127   1.461   .     S
C1124  C1428   1.350   .     S
C1124  O1499   1.389   .     S
C1125  C1126   1.443   .     S
C1125  C1730   1.350   1_545 S
C1125  O1803   1.398   1_545 S
C1126  O1207   1.265   .     A
C1126  O1201   1.271   .     A
C1127  O1208   1.274   .     A
C1127  O1202   1.267   .     A
C1128  C1131   1.464   .     S
C1128  O1193   1.284   .     A
C1128  O1191   1.274   .     A
C1129  C1130   1.493   .     S
C1129  O1192   1.283   .     A
C1129  O1194   1.298   .     A
C1130  C1134   1.426   .     A
C1132  C1147   1.411   .     A
C1132  O1199   1.382   .     S
C1133  H1180   1.115   .     S
C1133  O1195   1.414   .     S
C1133  C1135   1.521   .     S
C1133  H982    1.113   1_655 S
C1134  O1200   1.391   .     S
C1134  C1145   1.437   .     A
C1135  H1187   1.111   .     S
C1135  H1186   1.111   .     S
C1135  H1185   1.111   .     S
C1136  H1188   1.115   .     S
C1136  C1137   1.521   .     S
C1136  O1196   1.411   .     S
C1136  H1795   1.111   1_545 S
C1137  H1161   1.111   .     S
C1137  H1159   1.111   .     S
C1137  H1160   1.110   .     S
C1138  H1162   1.114   .     S
C1138  H1163   1.113   .     S
C1138  C1745   1.521   1_545 S
C1138  O1803   1.414   1_545 S
C1139  H1166   1.111   .     S
C1139  H1164   1.111   .     S
C1139  C1441   1.521   .     S
C1139  H1468   1.110   .     S
C1140  C1141   1.522   .     S
C1140  H1168   1.112   .     S
C1140  H1167   1.118   .     S
C1140  O1198   1.414   .     S
C1141  H1171   1.110   .     S
C1141  H1170   1.108   .     S
C1141  H1172   1.110   .     S
C1142  H1174   1.115   .     S
C1142  C1143   1.520   .     S
C1142  O1199   1.413   .     S
C1142  H264    1.114   1_556 S
C1143  H1175   1.110   .     S
C1143  H166    1.110   1_556 S
C1143  H268    1.111   1_556 S
C1144  O1200   1.423   .     S
C1144  H1178   1.105   .     S
C1144  C1146   1.524   .     S
C1144  H1179   1.111   .     S
C1145  C1148   1.432   .     A
C1145  C1147   1.428   .     A
C1146  H1181   1.109   .     S
C1146  H1182   1.108   .     S
C1146  H1183   1.110   .     S
C1147  C242    1.418   1_556 S
C1148  C240    1.411   1_556 S
C1149  C1150   1.404   .     A
C1150  H1169   1.076   .     S
C1150  C1151   1.388   .     A
C1151  Cl1152  1.768   .     S
Cl1155 C205    1.770   1_556 S
H1165  C1745   1.110   1_545 S
H1176  C32     1.110   1_655 S
H1189  C1439   1.111   .     S
O1190  Zn1209  1.955   .     S
O1190  Zn1210  1.929   .     S
O1190  Zn1211  1.938   .     S
O1190  Zn1212  1.928   .     S
O1191  Zn1210  1.911   .     S
O1192  Zn1212  1.916   .     S
O1193  Zn1211  1.906   .     S
O1194  Zn1209  1.903   .     S
O1195  C920    1.398   1_655 S
O1196  C1730   1.389   1_545 S
O1197  C1428   1.398   .     S
O1197  C1441   1.414   .     S
O1201  Zn1209  1.931   .     S
O1202  Zn1212  1.939   .     S
O1203  Zn1210  1.935   .     S
O1204  Zn1211  1.941   .     S
O1205  Zn1212  1.935   .     S
O1206  Zn1209  1.932   .     S
O1207  Zn1210  1.944   .     S
O1208  Zn1211  1.934   .     S
C1213  C1223   1.444   .     S
C1213  O1306   1.265   .     A
C1213  O1304   1.256   .     A
C1214  Cl1258  1.765   .     S
C1214  C1249   1.401   .     A
C1214  C306    1.402   1_556 S
C1215  C1217   1.421   .     A
C1216  O1307   1.274   .     A
C1216  C1222   1.459   .     S
C1216  O1305   1.285   .     A
C1217  C1219   1.424   .     A
C1217  C1218   1.434   .     A
C1218  C1221   1.429   .     A
C1218  C1250   1.430   .     A
C1219  C1220   1.391   .     A
C1219  Cl1254  1.764   .     S
C1220  C1232   1.390   .     A
C1220  H1259   1.083   .     S
C1221  C1232   1.396   .     A
C1221  O1299   1.381   .     S
C1222  C1324   1.352   .     S
C1222  Cl1356  1.773   .     S
C1223  C1424   1.352   1_455 S
C1223  O1498   1.398   1_455 S
C1224  C1233   1.395   .     A
C1224  Cl1257  1.775   .     S
C1224  C1231   1.416   .     A
C1225  C1228   1.461   .     S
C1225  C1529   1.350   .     S
C1225  O1600   1.389   .     S
C1226  C1227   1.443   .     S
C1227  O1308   1.265   .     A
C1227  O1302   1.271   .     A
C1228  O1309   1.274   .     A
C1228  O1303   1.267   .     A
C1229  C1232   1.464   .     S
C1229  O1294   1.284   .     A
C1229  O1292   1.274   .     A
C1230  C1231   1.493   .     S
C1230  O1293   1.283   .     A
C1230  O1295   1.298   .     A
C1231  C1235   1.426   .     A
C1233  C1248   1.411   .     A
C1233  O1300   1.382   .     S
C1234  H1281   1.115   .     S
C1234  O1296   1.414   .     S
C1234  C1236   1.521   .     S
C1234  H1386   1.113   .     S
C1235  O1301   1.391   .     S
C1235  C1246   1.437   .     A
C1236  H1288   1.111   .     S
C1236  H1287   1.111   .     S
C1236  H1286   1.111   .     S
C1237  H1289   1.115   .     S
C1237  C1238   1.521   .     S
C1237  O1297   1.411   .     S
C1238  H1262   1.111   .     S
C1238  H1260   1.111   .     S
C1238  H1261   1.110   .     S
C1239  H1263   1.114   .     S
C1239  H1264   1.113   .     S
C1240  H1267   1.111   .     S
C1240  H1265   1.111   .     S
C1240  C1542   1.521   .     S
C1240  H1569   1.110   .     S
C1241  C1242   1.522   .     S
C1241  H1269   1.112   .     S
C1241  H1268   1.118   .     S
C1241  O1299   1.414   .     S
C1242  H1272   1.110   .     S
C1242  H1271   1.108   .     S
C1242  H1273   1.110   .     S
C1243  H1275   1.115   .     S
C1243  C1244   1.520   .     S
C1243  O1300   1.413   .     S
C1243  H365    1.114   1_556 S
C1244  H1276   1.110   .     S
C1244  H570    1.110   1_456 S
C1244  H369    1.111   1_556 S
C1245  O1301   1.423   .     S
C1245  H1279   1.105   .     S
C1245  C1247   1.524   .     S
C1245  H1280   1.111   .     S
C1246  C1249   1.432   .     A
C1246  C1248   1.428   .     A
C1247  H1282   1.109   .     S
C1247  H1283   1.108   .     S
C1247  H1284   1.110   .     S
C1248  C343    1.418   1_556 S
C1249  C341    1.411   1_556 S
C1250  C1251   1.404   .     A
C1251  H1270   1.076   .     S
C1251  C1252   1.388   .     A
C1252  Cl1253  1.768   .     S
Cl1255 C1424   1.773   1_455 S
Cl1256 C306    1.770   1_556 S
H1285  C1436   1.113   1_455 S
H1290  C1540   1.111   .     S
O1291  Zn1310  1.955   .     S
O1291  Zn1311  1.929   .     S
O1291  Zn1312  1.938   .     S
O1291  Zn1313  1.928   .     S
O1292  Zn1311  1.911   .     S
O1293  Zn1313  1.916   .     S
O1294  Zn1312  1.906   .     S
O1295  Zn1310  1.903   .     S
O1296  C1324   1.398   .     S
O1298  C1529   1.398   .     S
O1298  C1542   1.414   .     S
O1302  Zn1310  1.931   .     S
O1303  Zn1313  1.939   .     S
O1304  Zn1311  1.935   .     S
O1305  Zn1312  1.941   .     S
O1306  Zn1313  1.935   .     S
O1307  Zn1310  1.932   .     S
O1308  Zn1311  1.944   .     S
O1309  Zn1312  1.934   .     S
C1314  C1324   1.444   .     S
C1314  O1407   1.265   .     A
C1314  O1405   1.256   .     A
C1315  Cl1359  1.765   .     S
C1315  C1350   1.401   .     A
C1315  C407    1.402   1_556 S
C1316  C1318   1.421   .     A
C1317  O1408   1.274   .     A
C1317  C1323   1.459   .     S
C1317  O1406   1.285   .     A
C1318  C1320   1.424   .     A
C1318  C1319   1.434   .     A
C1319  C1322   1.429   .     A
C1319  C1351   1.430   .     A
C1320  C1321   1.391   .     A
C1320  Cl1355  1.764   .     S
C1321  C1333   1.390   .     A
C1321  H1360   1.083   .     S
C1322  C1333   1.396   .     A
C1322  O1400   1.381   .     S
C1323  C1425   1.352   .     S
C1323  Cl1457  1.773   .     S
C1325  C1334   1.395   .     A
C1325  Cl1358  1.775   .     S
C1325  C1332   1.416   .     A
C1326  C1329   1.461   .     S
C1326  C1630   1.350   .     S
C1326  O1701   1.389   .     S
C1327  C1328   1.443   .     S
C1328  O1409   1.265   .     A
C1328  O1403   1.271   .     A
C1329  O1410   1.274   .     A
C1329  O1404   1.267   .     A
C1330  C1333   1.464   .     S
C1330  O1395   1.284   .     A
C1330  O1393   1.274   .     A
C1331  C1332   1.493   .     S
C1331  O1394   1.283   .     A
C1331  O1396   1.298   .     A
C1332  C1336   1.426   .     A
C1334  C1349   1.411   .     A
C1334  O1401   1.382   .     S
C1335  H1382   1.115   .     S
C1335  O1397   1.414   .     S
C1335  C1337   1.521   .     S
C1335  H1487   1.113   .     S
C1336  O1402   1.391   .     S
C1336  C1347   1.437   .     A
C1337  H1389   1.111   .     S
C1337  H1388   1.111   .     S
C1337  H1387   1.111   .     S
C1338  H1390   1.115   .     S
C1338  C1339   1.521   .     S
C1338  O1398   1.411   .     S
C1339  H1363   1.111   .     S
C1339  H1361   1.111   .     S
C1339  H1362   1.110   .     S
C1340  H1364   1.114   .     S
C1340  H1365   1.113   .     S
C1341  H1368   1.111   .     S
C1341  H1366   1.111   .     S
C1341  C1643   1.521   .     S
C1341  H1670   1.110   .     S
C1342  C1343   1.522   .     S
C1342  H1370   1.112   .     S
C1342  H1369   1.118   .     S
C1342  O1400   1.414   .     S
C1343  H1373   1.110   .     S
C1343  H1372   1.108   .     S
C1343  H1374   1.110   .     S
C1344  H1376   1.115   .     S
C1344  C1345   1.520   .     S
C1344  O1401   1.413   .     S
C1344  H466    1.114   1_556 S
C1345  H1377   1.110   .     S
C1345  H368    1.110   1_556 S
C1345  H470    1.111   1_556 S
C1346  O1402   1.423   .     S
C1346  H1380   1.105   .     S
C1346  C1348   1.524   .     S
C1346  H1381   1.111   .     S
C1347  C1350   1.432   .     A
C1347  C1349   1.428   .     A
C1348  H1383   1.109   .     S
C1348  H1384   1.108   .     S
C1348  H1385   1.110   .     S
C1349  C444    1.418   1_556 S
C1350  C442    1.411   1_556 S
C1351  C1352   1.404   .     A
C1352  H1371   1.076   .     S
C1352  C1353   1.388   .     A
C1353  Cl1354  1.768   .     S
Cl1357 C407    1.770   1_556 S
H1391  C1641   1.111   .     S
O1392  Zn1411  1.955   .     S
O1392  Zn1412  1.929   .     S
O1392  Zn1413  1.938   .     S
O1392  Zn1414  1.928   .     S
O1393  Zn1412  1.911   .     S
O1394  Zn1414  1.916   .     S
O1395  Zn1413  1.906   .     S
O1396  Zn1411  1.903   .     S
O1397  C1425   1.398   .     S
O1399  C1630   1.398   .     S
O1399  C1643   1.414   .     S
O1403  Zn1411  1.931   .     S
O1404  Zn1414  1.939   .     S
O1405  Zn1412  1.935   .     S
O1406  Zn1413  1.941   .     S
O1407  Zn1414  1.935   .     S
O1408  Zn1411  1.932   .     S
O1409  Zn1412  1.944   .     S
O1410  Zn1413  1.934   .     S
C1415  C1425   1.444   .     S
C1415  O1508   1.265   .     A
C1415  O1506   1.256   .     A
C1416  Cl1460  1.765   .     S
C1416  C1451   1.401   .     A
C1416  C508    1.402   1_556 S
C1417  C1419   1.421   .     A
C1418  O1509   1.274   .     A
C1418  C1424   1.459   .     S
C1418  O1507   1.285   .     A
C1419  C1421   1.424   .     A
C1419  C1420   1.434   .     A
C1420  C1423   1.429   .     A
C1420  C1452   1.430   .     A
C1421  C1422   1.391   .     A
C1421  Cl1456  1.764   .     S
C1422  C1434   1.390   .     A
C1422  H1461   1.083   .     S
C1423  C1434   1.396   .     A
C1423  O1501   1.381   .     S
C1424  C1223   1.352   1_655 S
C1424  Cl1255  1.773   1_655 S
C1426  C1435   1.395   .     A
C1426  Cl1459  1.775   .     S
C1426  C1433   1.416   .     A
C1427  C1430   1.461   .     S
C1427  C1731   1.350   .     S
C1427  O1802   1.389   .     S
C1428  C1429   1.443   .     S
C1429  O1510   1.265   .     A
C1429  O1504   1.271   .     A
C1430  O1511   1.274   .     A
C1430  O1505   1.267   .     A
C1431  C1434   1.464   .     S
C1431  O1496   1.284   .     A
C1431  O1494   1.274   .     A
C1432  C1433   1.493   .     S
C1432  O1495   1.283   .     A
C1432  O1497   1.298   .     A
C1433  C1437   1.426   .     A
C1435  C1450   1.411   .     A
C1435  O1502   1.382   .     S
C1436  H1483   1.115   .     S
C1436  O1498   1.414   .     S
C1436  C1438   1.521   .     S
C1436  H1285   1.113   1_655 S
C1437  O1503   1.391   .     S
C1437  C1448   1.437   .     A
C1438  H1490   1.111   .     S
C1438  H1489   1.111   .     S
C1438  H1488   1.111   .     S
C1439  H1491   1.115   .     S
C1439  C1440   1.521   .     S
C1439  O1499   1.411   .     S
C1440  H1464   1.111   .     S
C1440  H1462   1.111   .     S
C1440  H1463   1.110   .     S
C1441  H1465   1.114   .     S
C1441  H1466   1.113   .     S
C1442  H1469   1.111   .     S
C1442  H1467   1.111   .     S
C1442  C1744   1.521   .     S
C1442  H1771   1.110   .     S
C1443  C1444   1.522   .     S
C1443  H1471   1.112   .     S
C1443  H1470   1.118   .     S
C1443  O1501   1.414   .     S
C1444  H1474   1.110   .     S
C1444  H1473   1.108   .     S
C1444  H1475   1.110   .     S
C1445  H1477   1.115   .     S
C1445  C1446   1.520   .     S
C1445  O1502   1.413   .     S
C1445  H567    1.114   1_556 S
C1446  H1478   1.110   .     S
C1446  H469    1.110   1_556 S
C1446  H571    1.111   1_556 S
C1447  O1503   1.423   .     S
C1447  H1481   1.105   .     S
C1447  C1449   1.524   .     S
C1447  H1482   1.111   .     S
C1448  C1451   1.432   .     A
C1448  C1450   1.428   .     A
C1449  H1484   1.109   .     S
C1449  H1485   1.108   .     S
C1449  H1486   1.110   .     S
C1450  C545    1.418   1_556 S
C1451  C543    1.411   1_556 S
C1452  C1453   1.404   .     A
C1453  H1472   1.076   .     S
C1453  C1454   1.388   .     A
C1454  Cl1455  1.768   .     S
Cl1458 C508    1.770   1_556 S
H1479  C335    1.110   1_655 S
H1492  C1742   1.111   .     S
O1493  Zn1512  1.955   .     S
O1493  Zn1513  1.929   .     S
O1493  Zn1514  1.938   .     S
O1493  Zn1515  1.928   .     S
O1494  Zn1513  1.911   .     S
O1495  Zn1515  1.916   .     S
O1496  Zn1514  1.906   .     S
O1497  Zn1512  1.903   .     S
O1498  C1223   1.398   1_655 S
O1500  C1731   1.398   .     S
O1500  C1744   1.414   .     S
O1504  Zn1512  1.931   .     S
O1505  Zn1515  1.939   .     S
O1506  Zn1513  1.935   .     S
O1507  Zn1514  1.941   .     S
O1508  Zn1515  1.935   .     S
O1509  Zn1512  1.932   .     S
O1510  Zn1513  1.944   .     S
O1511  Zn1514  1.934   .     S
C1516  C1526   1.444   .     S
C1516  O1609   1.265   .     A
C1516  O1607   1.256   .     A
C1517  Cl1561  1.765   .     S
C1517  C1552   1.401   .     A
C1517  C609    1.402   1_556 S
C1518  C1520   1.421   .     A
C1519  O1610   1.274   .     A
C1519  C1525   1.459   .     S
C1519  O1608   1.285   .     A
C1520  C1522   1.424   .     A
C1520  C1521   1.434   .     A
C1521  C1524   1.429   .     A
C1521  C1553   1.430   .     A
C1522  C1523   1.391   .     A
C1522  Cl1557  1.764   .     S
C1523  C1535   1.390   .     A
C1523  H1562   1.083   .     S
C1524  C1535   1.396   .     A
C1524  O1602   1.381   .     S
C1525  C1627   1.352   .     S
C1525  Cl1659  1.773   .     S
C1526  C1727   1.352   1_455 S
C1526  O1801   1.398   1_455 S
C1527  C1536   1.395   .     A
C1527  Cl1560  1.775   .     S
C1527  C1534   1.416   .     A
C1528  C1531   1.461   .     S
C1528  C923    1.350   1_565 S
C1528  O994    1.389   1_565 S
C1529  C1530   1.443   .     S
C1530  O1611   1.265   .     A
C1530  O1605   1.271   .     A
C1531  O1612   1.274   .     A
C1531  O1606   1.267   .     A
C1532  C1535   1.464   .     S
C1532  O1597   1.284   .     A
C1532  O1595   1.274   .     A
C1533  C1534   1.493   .     S
C1533  O1596   1.283   .     A
C1533  O1598   1.298   .     A
C1534  C1538   1.426   .     A
C1536  C1551   1.411   .     A
C1536  O1603   1.382   .     S
C1537  H1584   1.115   .     S
C1537  O1599   1.414   .     S
C1537  C1539   1.521   .     S
C1537  H1689   1.113   .     S
C1538  O1604   1.391   .     S
C1538  C1549   1.437   .     A
C1539  H1591   1.111   .     S
C1539  H1590   1.111   .     S
C1539  H1589   1.111   .     S
C1540  H1592   1.115   .     S
C1540  C1541   1.521   .     S
C1540  O1600   1.411   .     S
C1541  H1565   1.111   .     S
C1541  H1563   1.111   .     S
C1541  H1564   1.110   .     S
C1542  H1566   1.114   .     S
C1542  H1567   1.113   .     S
C1543  H1570   1.111   .     S
C1543  H1568   1.111   .     S
C1543  C936    1.521   1_565 S
C1543  H963    1.110   1_565 S
C1544  C1545   1.522   .     S
C1544  H1572   1.112   .     S
C1544  H1571   1.118   .     S
C1544  O1602   1.414   .     S
C1545  H1575   1.110   .     S
C1545  H1574   1.108   .     S
C1545  H1576   1.110   .     S
C1546  H1578   1.115   .     S
C1546  C1547   1.520   .     S
C1546  O1603   1.413   .     S
C1546  H668    1.114   1_556 S
C1547  H1579   1.110   .     S
C1547  H873    1.110   1_456 S
C1547  H672    1.111   1_556 S
C1548  O1604   1.423   .     S
C1548  H1582   1.105   .     S
C1548  C1550   1.524   .     S
C1548  H1583   1.111   .     S
C1549  C1552   1.432   .     A
C1549  C1551   1.428   .     A
C1550  H1585   1.109   .     S
C1550  H1586   1.108   .     S
C1550  H1587   1.110   .     S
C1551  C646    1.418   1_556 S
C1552  C644    1.411   1_556 S
C1553  C1554   1.404   .     A
C1554  H1573   1.076   .     S
C1554  C1555   1.388   .     A
C1555  Cl1556  1.768   .     S
Cl1558 C1727   1.773   1_455 S
Cl1559 C609    1.770   1_556 S
H1588  C1739   1.113   1_455 S
H1593  C934    1.111   1_565 S
O1594  Zn1613  1.955   .     S
O1594  Zn1614  1.929   .     S
O1594  Zn1615  1.938   .     S
O1594  Zn1616  1.928   .     S
O1595  Zn1614  1.911   .     S
O1596  Zn1616  1.916   .     S
O1597  Zn1615  1.906   .     S
O1598  Zn1613  1.903   .     S
O1599  C1627   1.398   .     S
O1601  C923    1.398   1_565 S
O1601  C936    1.414   1_565 S
O1605  Zn1613  1.931   .     S
O1606  Zn1616  1.939   .     S
O1607  Zn1614  1.935   .     S
O1608  Zn1615  1.941   .     S
O1609  Zn1616  1.935   .     S
O1610  Zn1613  1.932   .     S
O1611  Zn1614  1.944   .     S
O1612  Zn1615  1.934   .     S
C1617  C1627   1.444   .     S
C1617  O1710   1.265   .     A
C1617  O1708   1.256   .     A
C1618  Cl1662  1.765   .     S
C1618  C1653   1.401   .     A
C1618  C710    1.402   1_556 S
C1619  C1621   1.421   .     A
C1620  O1711   1.274   .     A
C1620  C1626   1.459   .     S
C1620  O1709   1.285   .     A
C1621  C1623   1.424   .     A
C1621  C1622   1.434   .     A
C1622  C1625   1.429   .     A
C1622  C1654   1.430   .     A
C1623  C1624   1.391   .     A
C1623  Cl1658  1.764   .     S
C1624  C1636   1.390   .     A
C1624  H1663   1.083   .     S
C1625  C1636   1.396   .     A
C1625  O1703   1.381   .     S
C1626  C1728   1.352   .     S
C1626  Cl1760  1.773   .     S
C1628  C1637   1.395   .     A
C1628  Cl1661  1.775   .     S
C1628  C1635   1.416   .     A
C1629  C1632   1.461   .     S
C1629  C1024   1.350   1_565 S
C1629  O1095   1.389   1_565 S
C1630  C1631   1.443   .     S
C1631  O1712   1.265   .     A
C1631  O1706   1.271   .     A
C1632  O1713   1.274   .     A
C1632  O1707   1.267   .     A
C1633  C1636   1.464   .     S
C1633  O1698   1.284   .     A
C1633  O1696   1.274   .     A
C1634  C1635   1.493   .     S
C1634  O1697   1.283   .     A
C1634  O1699   1.298   .     A
C1635  C1639   1.426   .     A
C1637  C1652   1.411   .     A
C1637  O1704   1.382   .     S
C1638  H1685   1.115   .     S
C1638  O1700   1.414   .     S
C1638  C1640   1.521   .     S
C1638  H1790   1.113   .     S
C1639  O1705   1.391   .     S
C1639  C1650   1.437   .     A
C1640  H1692   1.111   .     S
C1640  H1691   1.111   .     S
C1640  H1690   1.111   .     S
C1641  H1693   1.115   .     S
C1641  C1642   1.521   .     S
C1641  O1701   1.411   .     S
C1642  H1666   1.111   .     S
C1642  H1664   1.111   .     S
C1642  H1665   1.110   .     S
C1643  H1667   1.114   .     S
C1643  H1668   1.113   .     S
C1644  H1671   1.111   .     S
C1644  H1669   1.111   .     S
C1644  C1037   1.521   1_565 S
C1644  H1064   1.110   1_565 S
C1645  C1646   1.522   .     S
C1645  H1673   1.112   .     S
C1645  H1672   1.118   .     S
C1645  O1703   1.414   .     S
C1646  H1676   1.110   .     S
C1646  H1675   1.108   .     S
C1646  H1677   1.110   .     S
C1647  H1679   1.115   .     S
C1647  C1648   1.520   .     S
C1647  O1704   1.413   .     S
C1647  H769    1.114   1_556 S
C1648  H1680   1.110   .     S
C1648  H671    1.110   1_556 S
C1648  H773    1.111   1_556 S
C1649  O1705   1.423   .     S
C1649  H1683   1.105   .     S
C1649  C1651   1.524   .     S
C1649  H1684   1.111   .     S
C1650  C1653   1.432   .     A
C1650  C1652   1.428   .     A
C1651  H1686   1.109   .     S
C1651  H1687   1.108   .     S
C1651  H1688   1.110   .     S
C1652  C747    1.418   1_556 S
C1653  C745    1.411   1_556 S
C1654  C1655   1.404   .     A
C1655  H1674   1.076   .     S
C1655  C1656   1.388   .     A
C1656  Cl1657  1.768   .     S
Cl1660 C710    1.770   1_556 S
H1694  C1035   1.111   1_565 S
O1695  Zn1714  1.955   .     S
O1695  Zn1715  1.929   .     S
O1695  Zn1716  1.938   .     S
O1695  Zn1717  1.928   .     S
O1696  Zn1715  1.911   .     S
O1697  Zn1717  1.916   .     S
O1698  Zn1716  1.906   .     S
O1699  Zn1714  1.903   .     S
O1700  C1728   1.398   .     S
O1702  C1024   1.398   1_565 S
O1702  C1037   1.414   1_565 S
O1706  Zn1714  1.931   .     S
O1707  Zn1717  1.939   .     S
O1708  Zn1715  1.935   .     S
O1709  Zn1716  1.941   .     S
O1710  Zn1717  1.935   .     S
O1711  Zn1714  1.932   .     S
O1712  Zn1715  1.944   .     S
O1713  Zn1716  1.934   .     S
C1718  C1728   1.444   .     S
C1718  O1811   1.265   .     A
C1718  O1809   1.256   .     A
C1719  Cl1763  1.765   .     S
C1719  C1754   1.401   .     A
C1719  C811    1.402   1_556 S
C1720  C1722   1.421   .     A
C1721  O1812   1.274   .     A
C1721  C1727   1.459   .     S
C1721  O1810   1.285   .     A
C1722  C1724   1.424   .     A
C1722  C1723   1.434   .     A
C1723  C1726   1.429   .     A
C1723  C1755   1.430   .     A
C1724  C1725   1.391   .     A
C1724  Cl1759  1.764   .     S
C1725  C1737   1.390   .     A
C1725  H1764   1.083   .     S
C1726  C1737   1.396   .     A
C1726  O1804   1.381   .     S
C1727  C1526   1.352   1_655 S
C1727  Cl1558  1.773   1_655 S
C1729  C1738   1.395   .     A
C1729  Cl1762  1.775   .     S
C1729  C1736   1.416   .     A
C1730  C1733   1.461   .     S
C1730  C1125   1.350   1_565 S
C1730  O1196   1.389   1_565 S
C1731  C1732   1.443   .     S
C1732  O1813   1.265   .     A
C1732  O1807   1.271   .     A
C1733  O1814   1.274   .     A
C1733  O1808   1.267   .     A
C1734  C1737   1.464   .     S
C1734  O1799   1.284   .     A
C1734  O1797   1.274   .     A
C1735  C1736   1.493   .     S
C1735  O1798   1.283   .     A
C1735  O1800   1.298   .     A
C1736  C1740   1.426   .     A
C1738  C1753   1.411   .     A
C1738  O1805   1.382   .     S
C1739  H1786   1.115   .     S
C1739  O1801   1.414   .     S
C1739  C1741   1.521   .     S
C1739  H1588   1.113   1_655 S
C1740  O1806   1.391   .     S
C1740  C1751   1.437   .     A
C1741  H1793   1.111   .     S
C1741  H1792   1.111   .     S
C1741  H1791   1.111   .     S
C1742  H1794   1.115   .     S
C1742  C1743   1.521   .     S
C1742  O1802   1.411   .     S
C1743  H1767   1.111   .     S
C1743  H1765   1.111   .     S
C1743  H1766   1.110   .     S
C1744  H1768   1.114   .     S
C1744  H1769   1.113   .     S
C1745  H1772   1.111   .     S
C1745  H1770   1.111   .     S
C1745  C1138   1.521   1_565 S
C1745  H1165   1.110   1_565 S
C1746  C1747   1.522   .     S
C1746  H1774   1.112   .     S
C1746  H1773   1.118   .     S
C1746  O1804   1.414   .     S
C1747  H1777   1.110   .     S
C1747  H1776   1.108   .     S
C1747  H1778   1.110   .     S
C1748  H1780   1.115   .     S
C1748  C1749   1.520   .     S
C1748  O1805   1.413   .     S
C1748  H870    1.114   1_556 S
C1749  H1781   1.110   .     S
C1749  H772    1.110   1_556 S
C1749  H874    1.111   1_556 S
C1750  O1806   1.423   .     S
C1750  H1784   1.105   .     S
C1750  C1752   1.524   .     S
C1750  H1785   1.111   .     S
C1751  C1754   1.432   .     A
C1751  C1753   1.428   .     A
C1752  H1787   1.109   .     S
C1752  H1788   1.108   .     S
C1752  H1789   1.110   .     S
C1753  C848    1.418   1_556 S
C1754  C846    1.411   1_556 S
C1755  C1756   1.404   .     A
C1756  H1775   1.076   .     S
C1756  C1757   1.388   .     A
C1757  Cl1758  1.768   .     S
Cl1761 C811    1.770   1_556 S
H1782  C638    1.110   1_655 S
H1795  C1136   1.111   1_565 S
O1796  Zn1815  1.955   .     S
O1796  Zn1816  1.929   .     S
O1796  Zn1817  1.938   .     S
O1796  Zn1818  1.928   .     S
O1797  Zn1816  1.911   .     S
O1798  Zn1818  1.916   .     S
O1799  Zn1817  1.906   .     S
O1800  Zn1815  1.903   .     S
O1801  C1526   1.398   1_655 S
O1803  C1125   1.398   1_565 S
O1803  C1138   1.414   1_565 S
O1807  Zn1815  1.931   .     S
O1808  Zn1818  1.939   .     S
O1809  Zn1816  1.935   .     S
O1810  Zn1817  1.941   .     S
O1811  Zn1818  1.935   .     S
O1812  Zn1815  1.932   .     S
O1813  Zn1816  1.944   .     S
O1814  Zn1817  1.934   .     S
