data_str_m3_o2_o5_pcu_sym.74
_audit_creation_date              2020-01-03
_audit_creation_method            'Materials Studio'
_symmetry_space_group_name_H-M    'P1'
_symmetry_Int_Tables_number       1
_symmetry_cell_setting            triclinic
loop_
_symmetry_equiv_pos_as_xyz
  x,y,z
_cell_length_a                    30.0262
_cell_length_b                    28.3379
_cell_length_c                    26.7282
_cell_angle_alpha                 90.0001
_cell_angle_beta                  90.0561
_cell_angle_gamma                 89.9998
loop_
_atom_site_label
_atom_site_type_symbol
_atom_site_fract_x
_atom_site_fract_y
_atom_site_fract_z
_atom_site_U_iso_or_equiv
_atom_site_adp_type
_atom_site_occupancy
C1     C     0.16388   0.25001   0.16665   0.00000  Uiso   1.00
C2     C     0.21554   0.44760   0.14314   0.00000  Uiso   1.00
C3     C     0.24999   0.25000   0.07284   0.00000  Uiso   1.00
C4     C     0.25001   0.25000   0.26049   0.00000  Uiso   1.00
C5     C     0.25000   0.02662   0.16667   0.00000  Uiso   1.00
C6     C     0.25000   0.47332   0.16667   0.00000  Uiso   1.00
C7     C     0.25000   0.24998   0.02178   0.00000  Uiso   1.00
C8     C     0.25000   0.24998   0.31155   0.00000  Uiso   1.00
C9     C     0.04710   0.28984   0.18396   0.00000  Uiso   1.00
C10    C     0.45299   0.21046   0.18412   0.00000  Uiso   1.00
C11    C     0.45290   0.28985   0.14938   0.00000  Uiso   1.00
C12    C     0.33612   0.25001   0.16669   0.00000  Uiso   1.00
C13    C     0.04701   0.21046   0.14921   0.00000  Uiso   1.00
C14    C     0.09308   0.28992   0.18365   0.00000  Uiso   1.00
C15    C     0.40702   0.21029   0.18383   0.00000  Uiso   1.00
C16    C     0.40692   0.28992   0.14969   0.00000  Uiso   1.00
C17    C     0.09298   0.21029   0.14950   0.00000  Uiso   1.00
C18    C     0.11600   0.25006   0.16661   0.00000  Uiso   1.00
C19    C     0.38400   0.25006   0.16673   0.00000  Uiso   1.00
C20    C     0.02405   0.25016   0.16662   0.00000  Uiso   1.00
C21    C     0.47595   0.25016   0.16672   0.00000  Uiso   1.00
C22    C     0.29308   0.04116   0.04881   0.00000  Uiso   1.00
C23    C     0.25224   0.10214   0.12258   0.00000  Uiso   1.00
C24    C     0.35592   0.47207   0.18295   0.00000  Uiso   1.00
C25    C     0.20698   0.04124   0.28460   0.00000  Uiso   1.00
C26    C     0.14412   0.47218   0.15045   0.00000  Uiso   1.00
C27    C     0.28317   0.39776   0.19045   0.00000  Uiso   1.00
C28    C     0.24776   0.10214   0.21075   0.00000  Uiso   1.00
C29    C     0.21683   0.39776   0.14289   0.00000  Uiso   1.00
C30    C     0.25348   0.05211   0.12146   0.00000  Uiso   1.00
C31    C     0.28446   0.44760   0.19019   0.00000  Uiso   1.00
C32    C     0.24652   0.05211   0.21188   0.00000  Uiso   1.00
H33    H     0.02957   0.32045   0.19815   0.00000  Uiso   1.00
H34    H     0.30908   0.37819   0.20947   0.00000  Uiso   1.00
H35    H     0.24700   0.12174   0.24536   0.00000  Uiso   1.00
H36    H     0.19091   0.37820   0.12387   0.00000  Uiso   1.00
H37    H     0.32358   0.04372   0.07244   0.00000  Uiso   1.00
H38    H     0.28691   0.07493   0.02888   0.00000  Uiso   1.00
H39    H     0.29948   0.01390   0.01992   0.00000  Uiso   1.00
H40    H     0.34824   0.49012   0.14696   0.00000  Uiso   1.00
H41    H     0.36894   0.43591   0.17586   0.00000  Uiso   1.00
H42    H     0.38270   0.49245   0.20171   0.00000  Uiso   1.00
H43    H     0.17646   0.04393   0.26100   0.00000  Uiso   1.00
H44    H     0.47061   0.17988   0.19830   0.00000  Uiso   1.00
H45    H     0.21326   0.07495   0.30457   0.00000  Uiso   1.00
H46    H     0.20053   0.01395   0.31345   0.00000  Uiso   1.00
H47    H     0.15187   0.49033   0.18638   0.00000  Uiso   1.00
H48    H     0.13110   0.43605   0.15769   0.00000  Uiso   1.00
H49    H     0.11733   0.49252   0.13168   0.00000  Uiso   1.00
H50    H     0.47043   0.32046   0.13520   0.00000  Uiso   1.00
H51    H     0.02939   0.17988   0.13503   0.00000  Uiso   1.00
H52    H     0.11064   0.32075   0.19733   0.00000  Uiso   1.00
H53    H     0.38954   0.17945   0.19755   0.00000  Uiso   1.00
H54    H     0.38936   0.32075   0.13601   0.00000  Uiso   1.00
H55    H     0.11046   0.17945   0.13578   0.00000  Uiso   1.00
H56    H     0.25300   0.12173   0.08797   0.00000  Uiso   1.00
N57    N     0.25000   0.12624   0.16667   0.00000  Uiso   1.00
N58    N     0.25000   0.37377   0.16667   0.00000  Uiso   1.00
O59    O     0.18453   0.28974   0.16667   0.00000  Uiso   1.00
O60    O     0.31846   0.47102   0.21465   0.00000  Uiso   1.00
O61    O     0.24470   0.02746   0.25670   0.00000  Uiso   1.00
O62    O     0.18154   0.47102   0.11869   0.00000  Uiso   1.00
O63    O     0.31547   0.21026   0.16666   0.00000  Uiso   1.00
O64    O     0.31547   0.28974   0.16666   0.00000  Uiso   1.00
O65    O     0.18453   0.21026   0.16667   0.00000  Uiso   1.00
O66    O     0.25000   0.28973   0.09511   0.00000  Uiso   1.00
O67    O     0.25000   0.21027   0.23822   0.00000  Uiso   1.00
O68    O     0.25000   0.28973   0.23822   0.00000  Uiso   1.00
O69    O     0.25000   0.21027   0.09511   0.00000  Uiso   1.00
O70    O     0.25530   0.02747   0.07664   0.00000  Uiso   1.00
Zn71   Zn    0.25000   0.30307   0.16667   0.00000  Uiso   1.00
Zn72   Zn    0.25000   0.19693   0.16667   0.00000  Uiso   1.00
C73    C     0.66388   0.25001   0.16665   0.00000  Uiso   1.00
C74    C     0.71554   0.44760   0.14314   0.00000  Uiso   1.00
C75    C     0.74999   0.25000   0.07284   0.00000  Uiso   1.00
C76    C     0.75001   0.25000   0.26049   0.00000  Uiso   1.00
C77    C     0.75000   0.02662   0.16667   0.00000  Uiso   1.00
C78    C     0.75000   0.47332   0.16667   0.00000  Uiso   1.00
C79    C     0.75000   0.24998   0.02178   0.00000  Uiso   1.00
C80    C     0.75000   0.24998   0.31155   0.00000  Uiso   1.00
C81    C     0.54710   0.28984   0.18396   0.00000  Uiso   1.00
C82    C     0.95299   0.21046   0.18412   0.00000  Uiso   1.00
C83    C     0.95290   0.28985   0.14938   0.00000  Uiso   1.00
C84    C     0.83612   0.25001   0.16669   0.00000  Uiso   1.00
C85    C     0.54701   0.21046   0.14921   0.00000  Uiso   1.00
C86    C     0.59308   0.28992   0.18365   0.00000  Uiso   1.00
C87    C     0.90702   0.21029   0.18383   0.00000  Uiso   1.00
C88    C     0.90692   0.28992   0.14969   0.00000  Uiso   1.00
C89    C     0.59298   0.21029   0.14950   0.00000  Uiso   1.00
C90    C     0.61600   0.25006   0.16661   0.00000  Uiso   1.00
C91    C     0.88400   0.25006   0.16673   0.00000  Uiso   1.00
C92    C     0.52405   0.25016   0.16662   0.00000  Uiso   1.00
C93    C     0.97595   0.25016   0.16672   0.00000  Uiso   1.00
C94    C     0.79308   0.04116   0.04881   0.00000  Uiso   1.00
C95    C     0.75224   0.10214   0.12258   0.00000  Uiso   1.00
C96    C     0.85592   0.47207   0.18295   0.00000  Uiso   1.00
C97    C     0.70698   0.04124   0.28460   0.00000  Uiso   1.00
C98    C     0.64412   0.47218   0.15045   0.00000  Uiso   1.00
C99    C     0.78317   0.39776   0.19045   0.00000  Uiso   1.00
C100   C     0.74776   0.10214   0.21075   0.00000  Uiso   1.00
C101   C     0.71683   0.39776   0.14289   0.00000  Uiso   1.00
C102   C     0.75348   0.05211   0.12146   0.00000  Uiso   1.00
C103   C     0.78446   0.44760   0.19019   0.00000  Uiso   1.00
C104   C     0.74652   0.05211   0.21188   0.00000  Uiso   1.00
H105   H     0.52957   0.32045   0.19815   0.00000  Uiso   1.00
H106   H     0.80908   0.37819   0.20947   0.00000  Uiso   1.00
H107   H     0.74700   0.12174   0.24536   0.00000  Uiso   1.00
H108   H     0.69091   0.37820   0.12387   0.00000  Uiso   1.00
H109   H     0.82358   0.04372   0.07244   0.00000  Uiso   1.00
H110   H     0.78691   0.07493   0.02888   0.00000  Uiso   1.00
H111   H     0.79948   0.01390   0.01992   0.00000  Uiso   1.00
H112   H     0.84824   0.49012   0.14696   0.00000  Uiso   1.00
H113   H     0.86894   0.43591   0.17586   0.00000  Uiso   1.00
H114   H     0.88270   0.49245   0.20171   0.00000  Uiso   1.00
H115   H     0.67646   0.04393   0.26100   0.00000  Uiso   1.00
H116   H     0.97061   0.17988   0.19830   0.00000  Uiso   1.00
H117   H     0.71326   0.07495   0.30457   0.00000  Uiso   1.00
H118   H     0.70053   0.01395   0.31345   0.00000  Uiso   1.00
H119   H     0.65187   0.49033   0.18638   0.00000  Uiso   1.00
H120   H     0.63110   0.43605   0.15769   0.00000  Uiso   1.00
H121   H     0.61733   0.49252   0.13168   0.00000  Uiso   1.00
H122   H     0.97043   0.32046   0.13520   0.00000  Uiso   1.00
H123   H     0.52939   0.17988   0.13503   0.00000  Uiso   1.00
H124   H     0.61064   0.32075   0.19733   0.00000  Uiso   1.00
H125   H     0.88954   0.17945   0.19755   0.00000  Uiso   1.00
H126   H     0.88936   0.32075   0.13601   0.00000  Uiso   1.00
H127   H     0.61046   0.17945   0.13578   0.00000  Uiso   1.00
H128   H     0.75300   0.12173   0.08797   0.00000  Uiso   1.00
N129   N     0.75000   0.12624   0.16667   0.00000  Uiso   1.00
N130   N     0.75000   0.37377   0.16667   0.00000  Uiso   1.00
O131   O     0.68453   0.28974   0.16667   0.00000  Uiso   1.00
O132   O     0.81846   0.47102   0.21465   0.00000  Uiso   1.00
O133   O     0.74470   0.02746   0.25670   0.00000  Uiso   1.00
O134   O     0.68154   0.47102   0.11869   0.00000  Uiso   1.00
O135   O     0.81547   0.21026   0.16666   0.00000  Uiso   1.00
O136   O     0.81547   0.28974   0.16666   0.00000  Uiso   1.00
O137   O     0.68453   0.21026   0.16667   0.00000  Uiso   1.00
O138   O     0.75000   0.28973   0.09511   0.00000  Uiso   1.00
O139   O     0.75000   0.21027   0.23822   0.00000  Uiso   1.00
O140   O     0.75000   0.28973   0.23822   0.00000  Uiso   1.00
O141   O     0.75000   0.21027   0.09511   0.00000  Uiso   1.00
O142   O     0.75530   0.02747   0.07664   0.00000  Uiso   1.00
Zn143  Zn    0.75000   0.30307   0.16667   0.00000  Uiso   1.00
Zn144  Zn    0.75000   0.19693   0.16667   0.00000  Uiso   1.00
C145   C     0.16388   0.75001   0.16665   0.00000  Uiso   1.00
C146   C     0.21554   0.94760   0.14314   0.00000  Uiso   1.00
C147   C     0.24999   0.75000   0.07284   0.00000  Uiso   1.00
C148   C     0.25001   0.75000   0.26049   0.00000  Uiso   1.00
C149   C     0.25000   0.52662   0.16667   0.00000  Uiso   1.00
C150   C     0.25000   0.97332   0.16667   0.00000  Uiso   1.00
C151   C     0.25000   0.74998   0.02178   0.00000  Uiso   1.00
C152   C     0.25000   0.74998   0.31155   0.00000  Uiso   1.00
C153   C     0.04710   0.78984   0.18396   0.00000  Uiso   1.00
C154   C     0.45299   0.71046   0.18412   0.00000  Uiso   1.00
C155   C     0.45290   0.78985   0.14938   0.00000  Uiso   1.00
C156   C     0.33612   0.75001   0.16669   0.00000  Uiso   1.00
C157   C     0.04701   0.71046   0.14921   0.00000  Uiso   1.00
C158   C     0.09308   0.78992   0.18365   0.00000  Uiso   1.00
C159   C     0.40702   0.71029   0.18383   0.00000  Uiso   1.00
C160   C     0.40692   0.78992   0.14969   0.00000  Uiso   1.00
C161   C     0.09298   0.71029   0.14950   0.00000  Uiso   1.00
C162   C     0.11600   0.75006   0.16661   0.00000  Uiso   1.00
C163   C     0.38400   0.75006   0.16673   0.00000  Uiso   1.00
C164   C     0.02405   0.75016   0.16662   0.00000  Uiso   1.00
C165   C     0.47595   0.75016   0.16672   0.00000  Uiso   1.00
C166   C     0.29308   0.54116   0.04881   0.00000  Uiso   1.00
C167   C     0.25224   0.60214   0.12258   0.00000  Uiso   1.00
C168   C     0.35592   0.97207   0.18295   0.00000  Uiso   1.00
C169   C     0.20698   0.54124   0.28460   0.00000  Uiso   1.00
C170   C     0.14412   0.97218   0.15045   0.00000  Uiso   1.00
C171   C     0.28317   0.89776   0.19045   0.00000  Uiso   1.00
C172   C     0.24776   0.60214   0.21075   0.00000  Uiso   1.00
C173   C     0.21683   0.89776   0.14289   0.00000  Uiso   1.00
C174   C     0.25348   0.55211   0.12146   0.00000  Uiso   1.00
C175   C     0.28446   0.94760   0.19019   0.00000  Uiso   1.00
C176   C     0.24652   0.55211   0.21188   0.00000  Uiso   1.00
H177   H     0.02957   0.82045   0.19815   0.00000  Uiso   1.00
H178   H     0.30908   0.87819   0.20947   0.00000  Uiso   1.00
H179   H     0.24700   0.62174   0.24536   0.00000  Uiso   1.00
H180   H     0.19091   0.87820   0.12387   0.00000  Uiso   1.00
H181   H     0.32358   0.54372   0.07244   0.00000  Uiso   1.00
H182   H     0.28691   0.57493   0.02888   0.00000  Uiso   1.00
H183   H     0.29948   0.51390   0.01992   0.00000  Uiso   1.00
H184   H     0.34824   0.99012   0.14696   0.00000  Uiso   1.00
H185   H     0.36894   0.93591   0.17586   0.00000  Uiso   1.00
H186   H     0.38270   0.99245   0.20171   0.00000  Uiso   1.00
H187   H     0.17646   0.54393   0.26100   0.00000  Uiso   1.00
H188   H     0.47061   0.67988   0.19830   0.00000  Uiso   1.00
H189   H     0.21326   0.57495   0.30457   0.00000  Uiso   1.00
H190   H     0.20053   0.51395   0.31345   0.00000  Uiso   1.00
H191   H     0.15187   0.99033   0.18638   0.00000  Uiso   1.00
H192   H     0.13110   0.93605   0.15769   0.00000  Uiso   1.00
H193   H     0.11733   0.99252   0.13168   0.00000  Uiso   1.00
H194   H     0.47043   0.82046   0.13520   0.00000  Uiso   1.00
H195   H     0.02939   0.67988   0.13503   0.00000  Uiso   1.00
H196   H     0.11064   0.82075   0.19733   0.00000  Uiso   1.00
H197   H     0.38954   0.67945   0.19755   0.00000  Uiso   1.00
H198   H     0.38936   0.82075   0.13601   0.00000  Uiso   1.00
H199   H     0.11046   0.67945   0.13578   0.00000  Uiso   1.00
H200   H     0.25300   0.62173   0.08797   0.00000  Uiso   1.00
N201   N     0.25000   0.62624   0.16667   0.00000  Uiso   1.00
N202   N     0.25000   0.87377   0.16667   0.00000  Uiso   1.00
O203   O     0.18453   0.78974   0.16667   0.00000  Uiso   1.00
O204   O     0.31846   0.97102   0.21465   0.00000  Uiso   1.00
O205   O     0.24470   0.52746   0.25670   0.00000  Uiso   1.00
O206   O     0.18154   0.97102   0.11869   0.00000  Uiso   1.00
O207   O     0.31547   0.71026   0.16666   0.00000  Uiso   1.00
O208   O     0.31547   0.78974   0.16666   0.00000  Uiso   1.00
O209   O     0.18453   0.71026   0.16667   0.00000  Uiso   1.00
O210   O     0.25000   0.78973   0.09511   0.00000  Uiso   1.00
O211   O     0.25000   0.71027   0.23822   0.00000  Uiso   1.00
O212   O     0.25000   0.78973   0.23822   0.00000  Uiso   1.00
O213   O     0.25000   0.71027   0.09511   0.00000  Uiso   1.00
O214   O     0.25530   0.52747   0.07664   0.00000  Uiso   1.00
Zn215  Zn    0.25000   0.80307   0.16667   0.00000  Uiso   1.00
Zn216  Zn    0.25000   0.69693   0.16667   0.00000  Uiso   1.00
C217   C     0.66388   0.75001   0.16665   0.00000  Uiso   1.00
C218   C     0.71554   0.94760   0.14314   0.00000  Uiso   1.00
C219   C     0.74999   0.75000   0.07284   0.00000  Uiso   1.00
C220   C     0.75001   0.75000   0.26049   0.00000  Uiso   1.00
C221   C     0.75000   0.52662   0.16667   0.00000  Uiso   1.00
C222   C     0.75000   0.97332   0.16667   0.00000  Uiso   1.00
C223   C     0.75000   0.74998   0.02178   0.00000  Uiso   1.00
C224   C     0.75000   0.74998   0.31155   0.00000  Uiso   1.00
C225   C     0.54710   0.78984   0.18396   0.00000  Uiso   1.00
C226   C     0.95299   0.71046   0.18412   0.00000  Uiso   1.00
C227   C     0.95290   0.78985   0.14938   0.00000  Uiso   1.00
C228   C     0.83612   0.75001   0.16669   0.00000  Uiso   1.00
C229   C     0.54701   0.71046   0.14921   0.00000  Uiso   1.00
C230   C     0.59308   0.78992   0.18365   0.00000  Uiso   1.00
C231   C     0.90702   0.71029   0.18383   0.00000  Uiso   1.00
C232   C     0.90692   0.78992   0.14969   0.00000  Uiso   1.00
C233   C     0.59298   0.71029   0.14950   0.00000  Uiso   1.00
C234   C     0.61600   0.75006   0.16661   0.00000  Uiso   1.00
C235   C     0.88400   0.75006   0.16673   0.00000  Uiso   1.00
C236   C     0.52405   0.75016   0.16662   0.00000  Uiso   1.00
C237   C     0.97595   0.75016   0.16672   0.00000  Uiso   1.00
C238   C     0.79308   0.54116   0.04881   0.00000  Uiso   1.00
C239   C     0.75224   0.60214   0.12258   0.00000  Uiso   1.00
C240   C     0.85592   0.97207   0.18295   0.00000  Uiso   1.00
C241   C     0.70698   0.54124   0.28460   0.00000  Uiso   1.00
C242   C     0.64412   0.97218   0.15045   0.00000  Uiso   1.00
C243   C     0.78317   0.89776   0.19045   0.00000  Uiso   1.00
C244   C     0.74776   0.60214   0.21075   0.00000  Uiso   1.00
C245   C     0.71683   0.89776   0.14289   0.00000  Uiso   1.00
C246   C     0.75348   0.55211   0.12146   0.00000  Uiso   1.00
C247   C     0.78446   0.94760   0.19019   0.00000  Uiso   1.00
C248   C     0.74652   0.55211   0.21188   0.00000  Uiso   1.00
H249   H     0.52957   0.82045   0.19815   0.00000  Uiso   1.00
H250   H     0.80908   0.87819   0.20947   0.00000  Uiso   1.00
H251   H     0.74700   0.62174   0.24536   0.00000  Uiso   1.00
H252   H     0.69091   0.87820   0.12387   0.00000  Uiso   1.00
H253   H     0.82358   0.54372   0.07244   0.00000  Uiso   1.00
H254   H     0.78691   0.57493   0.02888   0.00000  Uiso   1.00
H255   H     0.79948   0.51390   0.01992   0.00000  Uiso   1.00
H256   H     0.84824   0.99012   0.14696   0.00000  Uiso   1.00
H257   H     0.86894   0.93591   0.17586   0.00000  Uiso   1.00
H258   H     0.88270   0.99245   0.20171   0.00000  Uiso   1.00
H259   H     0.67646   0.54393   0.26100   0.00000  Uiso   1.00
H260   H     0.97061   0.67988   0.19830   0.00000  Uiso   1.00
H261   H     0.71326   0.57495   0.30457   0.00000  Uiso   1.00
H262   H     0.70053   0.51395   0.31345   0.00000  Uiso   1.00
H263   H     0.65187   0.99033   0.18638   0.00000  Uiso   1.00
H264   H     0.63110   0.93605   0.15769   0.00000  Uiso   1.00
H265   H     0.61733   0.99252   0.13168   0.00000  Uiso   1.00
H266   H     0.97043   0.82046   0.13520   0.00000  Uiso   1.00
H267   H     0.52939   0.67988   0.13503   0.00000  Uiso   1.00
H268   H     0.61064   0.82075   0.19733   0.00000  Uiso   1.00
H269   H     0.88954   0.67945   0.19755   0.00000  Uiso   1.00
H270   H     0.88936   0.82075   0.13601   0.00000  Uiso   1.00
H271   H     0.61046   0.67945   0.13578   0.00000  Uiso   1.00
H272   H     0.75300   0.62173   0.08797   0.00000  Uiso   1.00
N273   N     0.75000   0.62624   0.16667   0.00000  Uiso   1.00
N274   N     0.75000   0.87377   0.16667   0.00000  Uiso   1.00
O275   O     0.68453   0.78974   0.16667   0.00000  Uiso   1.00
O276   O     0.81846   0.97102   0.21465   0.00000  Uiso   1.00
O277   O     0.74470   0.52746   0.25670   0.00000  Uiso   1.00
O278   O     0.68154   0.97102   0.11869   0.00000  Uiso   1.00
O279   O     0.81547   0.71026   0.16666   0.00000  Uiso   1.00
O280   O     0.81547   0.78974   0.16666   0.00000  Uiso   1.00
O281   O     0.68453   0.71026   0.16667   0.00000  Uiso   1.00
O282   O     0.75000   0.78973   0.09511   0.00000  Uiso   1.00
O283   O     0.75000   0.71027   0.23822   0.00000  Uiso   1.00
O284   O     0.75000   0.78973   0.23822   0.00000  Uiso   1.00
O285   O     0.75000   0.71027   0.09511   0.00000  Uiso   1.00
O286   O     0.75530   0.52747   0.07664   0.00000  Uiso   1.00
Zn287  Zn    0.75000   0.80307   0.16667   0.00000  Uiso   1.00
Zn288  Zn    0.75000   0.69693   0.16667   0.00000  Uiso   1.00
C289   C     0.16388   0.25001   0.49998   0.00000  Uiso   1.00
C290   C     0.21554   0.44760   0.47647   0.00000  Uiso   1.00
C291   C     0.24999   0.25000   0.40618   0.00000  Uiso   1.00
C292   C     0.25001   0.25000   0.59382   0.00000  Uiso   1.00
C293   C     0.25000   0.02662   0.50000   0.00000  Uiso   1.00
C294   C     0.25000   0.47332   0.50000   0.00000  Uiso   1.00
C295   C     0.25000   0.24998   0.35512   0.00000  Uiso   1.00
C296   C     0.25000   0.24998   0.64488   0.00000  Uiso   1.00
C297   C     0.04710   0.28984   0.51730   0.00000  Uiso   1.00
C298   C     0.45299   0.21046   0.51746   0.00000  Uiso   1.00
C299   C     0.45290   0.28985   0.48271   0.00000  Uiso   1.00
C300   C     0.33612   0.25001   0.50002   0.00000  Uiso   1.00
C301   C     0.04701   0.21046   0.48254   0.00000  Uiso   1.00
C302   C     0.09308   0.28992   0.51698   0.00000  Uiso   1.00
C303   C     0.40702   0.21029   0.51717   0.00000  Uiso   1.00
C304   C     0.40692   0.28992   0.48302   0.00000  Uiso   1.00
C305   C     0.09298   0.21029   0.48283   0.00000  Uiso   1.00
C306   C     0.11600   0.25006   0.49994   0.00000  Uiso   1.00
C307   C     0.38400   0.25006   0.50006   0.00000  Uiso   1.00
C308   C     0.02405   0.25016   0.49995   0.00000  Uiso   1.00
C309   C     0.47595   0.25016   0.50005   0.00000  Uiso   1.00
C310   C     0.29308   0.04116   0.38214   0.00000  Uiso   1.00
C311   C     0.25224   0.10214   0.45591   0.00000  Uiso   1.00
C312   C     0.35592   0.47207   0.51629   0.00000  Uiso   1.00
C313   C     0.20698   0.04124   0.61793   0.00000  Uiso   1.00
C314   C     0.14412   0.47218   0.48379   0.00000  Uiso   1.00
C315   C     0.28317   0.39776   0.52378   0.00000  Uiso   1.00
C316   C     0.24776   0.10214   0.54409   0.00000  Uiso   1.00
C317   C     0.21683   0.39776   0.47622   0.00000  Uiso   1.00
C318   C     0.25348   0.05211   0.45479   0.00000  Uiso   1.00
C319   C     0.28446   0.44760   0.52353   0.00000  Uiso   1.00
C320   C     0.24652   0.05211   0.54521   0.00000  Uiso   1.00
H321   H     0.02957   0.32045   0.53148   0.00000  Uiso   1.00
H322   H     0.30908   0.37819   0.54280   0.00000  Uiso   1.00
H323   H     0.24700   0.12174   0.57869   0.00000  Uiso   1.00
H324   H     0.19091   0.37820   0.45720   0.00000  Uiso   1.00
H325   H     0.32358   0.04372   0.40577   0.00000  Uiso   1.00
H326   H     0.28691   0.07493   0.36221   0.00000  Uiso   1.00
H327   H     0.29948   0.01390   0.35325   0.00000  Uiso   1.00
H328   H     0.34824   0.49012   0.48029   0.00000  Uiso   1.00
H329   H     0.36894   0.43591   0.50919   0.00000  Uiso   1.00
H330   H     0.38270   0.49245   0.53504   0.00000  Uiso   1.00
H331   H     0.17646   0.04393   0.59434   0.00000  Uiso   1.00
H332   H     0.47061   0.17988   0.53164   0.00000  Uiso   1.00
H333   H     0.21326   0.07495   0.63791   0.00000  Uiso   1.00
H334   H     0.20053   0.01395   0.64678   0.00000  Uiso   1.00
H335   H     0.15187   0.49033   0.51971   0.00000  Uiso   1.00
H336   H     0.13110   0.43605   0.49102   0.00000  Uiso   1.00
H337   H     0.11733   0.49252   0.46502   0.00000  Uiso   1.00
H338   H     0.47043   0.32046   0.46853   0.00000  Uiso   1.00
H339   H     0.02939   0.17988   0.46836   0.00000  Uiso   1.00
H340   H     0.11064   0.32075   0.53066   0.00000  Uiso   1.00
H341   H     0.38954   0.17945   0.53088   0.00000  Uiso   1.00
H342   H     0.38936   0.32075   0.46934   0.00000  Uiso   1.00
H343   H     0.11046   0.17945   0.46911   0.00000  Uiso   1.00
H344   H     0.25300   0.12173   0.42130   0.00000  Uiso   1.00
N345   N     0.25000   0.12624   0.50000   0.00000  Uiso   1.00
N346   N     0.25000   0.37377   0.50000   0.00000  Uiso   1.00
O347   O     0.18453   0.28974   0.50000   0.00000  Uiso   1.00
O348   O     0.31846   0.47102   0.54799   0.00000  Uiso   1.00
O349   O     0.24470   0.02746   0.59003   0.00000  Uiso   1.00
O350   O     0.18154   0.47102   0.45202   0.00000  Uiso   1.00
O351   O     0.31547   0.21026   0.50000   0.00000  Uiso   1.00
O352   O     0.31547   0.28974   0.50000   0.00000  Uiso   1.00
O353   O     0.18453   0.21026   0.50000   0.00000  Uiso   1.00
O354   O     0.25000   0.28973   0.42845   0.00000  Uiso   1.00
O355   O     0.25000   0.21027   0.57155   0.00000  Uiso   1.00
O356   O     0.25000   0.28973   0.57155   0.00000  Uiso   1.00
O357   O     0.25000   0.21027   0.42845   0.00000  Uiso   1.00
O358   O     0.25530   0.02747   0.40997   0.00000  Uiso   1.00
Zn359  Zn    0.25000   0.30307   0.50000   0.00000  Uiso   1.00
Zn360  Zn    0.25000   0.19693   0.50000   0.00000  Uiso   1.00
C361   C     0.66388   0.25001   0.49998   0.00000  Uiso   1.00
C362   C     0.71554   0.44760   0.47647   0.00000  Uiso   1.00
C363   C     0.74999   0.25000   0.40618   0.00000  Uiso   1.00
C364   C     0.75001   0.25000   0.59382   0.00000  Uiso   1.00
C365   C     0.75000   0.02662   0.50000   0.00000  Uiso   1.00
C366   C     0.75000   0.47332   0.50000   0.00000  Uiso   1.00
C367   C     0.75000   0.24998   0.35512   0.00000  Uiso   1.00
C368   C     0.75000   0.24998   0.64488   0.00000  Uiso   1.00
C369   C     0.54710   0.28984   0.51730   0.00000  Uiso   1.00
C370   C     0.95299   0.21046   0.51746   0.00000  Uiso   1.00
C371   C     0.95290   0.28985   0.48271   0.00000  Uiso   1.00
C372   C     0.83612   0.25001   0.50002   0.00000  Uiso   1.00
C373   C     0.54701   0.21046   0.48254   0.00000  Uiso   1.00
C374   C     0.59308   0.28992   0.51698   0.00000  Uiso   1.00
C375   C     0.90702   0.21029   0.51717   0.00000  Uiso   1.00
C376   C     0.90692   0.28992   0.48302   0.00000  Uiso   1.00
C377   C     0.59298   0.21029   0.48283   0.00000  Uiso   1.00
C378   C     0.61600   0.25006   0.49994   0.00000  Uiso   1.00
C379   C     0.88400   0.25006   0.50006   0.00000  Uiso   1.00
C380   C     0.52405   0.25016   0.49995   0.00000  Uiso   1.00
C381   C     0.97595   0.25016   0.50005   0.00000  Uiso   1.00
C382   C     0.79308   0.04116   0.38214   0.00000  Uiso   1.00
C383   C     0.75224   0.10214   0.45591   0.00000  Uiso   1.00
C384   C     0.85592   0.47207   0.51629   0.00000  Uiso   1.00
C385   C     0.70698   0.04124   0.61793   0.00000  Uiso   1.00
C386   C     0.64412   0.47218   0.48379   0.00000  Uiso   1.00
C387   C     0.78317   0.39776   0.52378   0.00000  Uiso   1.00
C388   C     0.74776   0.10214   0.54409   0.00000  Uiso   1.00
C389   C     0.71683   0.39776   0.47622   0.00000  Uiso   1.00
C390   C     0.75348   0.05211   0.45479   0.00000  Uiso   1.00
C391   C     0.78446   0.44760   0.52353   0.00000  Uiso   1.00
C392   C     0.74652   0.05211   0.54521   0.00000  Uiso   1.00
H393   H     0.52957   0.32045   0.53148   0.00000  Uiso   1.00
H394   H     0.80908   0.37819   0.54280   0.00000  Uiso   1.00
H395   H     0.74700   0.12174   0.57869   0.00000  Uiso   1.00
H396   H     0.69091   0.37820   0.45720   0.00000  Uiso   1.00
H397   H     0.82358   0.04372   0.40577   0.00000  Uiso   1.00
H398   H     0.78691   0.07493   0.36221   0.00000  Uiso   1.00
H399   H     0.79948   0.01390   0.35325   0.00000  Uiso   1.00
H400   H     0.84824   0.49012   0.48029   0.00000  Uiso   1.00
H401   H     0.86894   0.43591   0.50919   0.00000  Uiso   1.00
H402   H     0.88270   0.49245   0.53504   0.00000  Uiso   1.00
H403   H     0.67646   0.04393   0.59434   0.00000  Uiso   1.00
H404   H     0.97061   0.17988   0.53164   0.00000  Uiso   1.00
H405   H     0.71326   0.07495   0.63791   0.00000  Uiso   1.00
H406   H     0.70053   0.01395   0.64678   0.00000  Uiso   1.00
H407   H     0.65187   0.49033   0.51971   0.00000  Uiso   1.00
H408   H     0.63110   0.43605   0.49102   0.00000  Uiso   1.00
H409   H     0.61733   0.49252   0.46502   0.00000  Uiso   1.00
H410   H     0.97043   0.32046   0.46853   0.00000  Uiso   1.00
H411   H     0.52939   0.17988   0.46836   0.00000  Uiso   1.00
H412   H     0.61064   0.32075   0.53066   0.00000  Uiso   1.00
H413   H     0.88954   0.17945   0.53088   0.00000  Uiso   1.00
H414   H     0.88936   0.32075   0.46934   0.00000  Uiso   1.00
H415   H     0.61046   0.17945   0.46911   0.00000  Uiso   1.00
H416   H     0.75300   0.12173   0.42130   0.00000  Uiso   1.00
N417   N     0.75000   0.12624   0.50000   0.00000  Uiso   1.00
N418   N     0.75000   0.37377   0.50000   0.00000  Uiso   1.00
O419   O     0.68453   0.28974   0.50000   0.00000  Uiso   1.00
O420   O     0.81846   0.47102   0.54799   0.00000  Uiso   1.00
O421   O     0.74470   0.02746   0.59003   0.00000  Uiso   1.00
O422   O     0.68154   0.47102   0.45202   0.00000  Uiso   1.00
O423   O     0.81547   0.21026   0.50000   0.00000  Uiso   1.00
O424   O     0.81547   0.28974   0.50000   0.00000  Uiso   1.00
O425   O     0.68453   0.21026   0.50000   0.00000  Uiso   1.00
O426   O     0.75000   0.28973   0.42845   0.00000  Uiso   1.00
O427   O     0.75000   0.21027   0.57155   0.00000  Uiso   1.00
O428   O     0.75000   0.28973   0.57155   0.00000  Uiso   1.00
O429   O     0.75000   0.21027   0.42845   0.00000  Uiso   1.00
O430   O     0.75530   0.02747   0.40997   0.00000  Uiso   1.00
Zn431  Zn    0.75000   0.30307   0.50000   0.00000  Uiso   1.00
Zn432  Zn    0.75000   0.19693   0.50000   0.00000  Uiso   1.00
C433   C     0.16388   0.75001   0.49998   0.00000  Uiso   1.00
C434   C     0.21554   0.94760   0.47647   0.00000  Uiso   1.00
C435   C     0.24999   0.75000   0.40618   0.00000  Uiso   1.00
C436   C     0.25001   0.75000   0.59382   0.00000  Uiso   1.00
C437   C     0.25000   0.52662   0.50000   0.00000  Uiso   1.00
C438   C     0.25000   0.97332   0.50000   0.00000  Uiso   1.00
C439   C     0.25000   0.74998   0.35512   0.00000  Uiso   1.00
C440   C     0.25000   0.74998   0.64488   0.00000  Uiso   1.00
C441   C     0.04710   0.78984   0.51730   0.00000  Uiso   1.00
C442   C     0.45299   0.71046   0.51746   0.00000  Uiso   1.00
C443   C     0.45290   0.78985   0.48271   0.00000  Uiso   1.00
C444   C     0.33612   0.75001   0.50002   0.00000  Uiso   1.00
C445   C     0.04701   0.71046   0.48254   0.00000  Uiso   1.00
C446   C     0.09308   0.78992   0.51698   0.00000  Uiso   1.00
C447   C     0.40702   0.71029   0.51717   0.00000  Uiso   1.00
C448   C     0.40692   0.78992   0.48302   0.00000  Uiso   1.00
C449   C     0.09298   0.71029   0.48283   0.00000  Uiso   1.00
C450   C     0.11600   0.75006   0.49994   0.00000  Uiso   1.00
C451   C     0.38400   0.75006   0.50006   0.00000  Uiso   1.00
C452   C     0.02405   0.75016   0.49995   0.00000  Uiso   1.00
C453   C     0.47595   0.75016   0.50005   0.00000  Uiso   1.00
C454   C     0.29308   0.54116   0.38214   0.00000  Uiso   1.00
C455   C     0.25224   0.60214   0.45591   0.00000  Uiso   1.00
C456   C     0.35592   0.97207   0.51629   0.00000  Uiso   1.00
C457   C     0.20698   0.54124   0.61793   0.00000  Uiso   1.00
C458   C     0.14412   0.97218   0.48379   0.00000  Uiso   1.00
C459   C     0.28317   0.89776   0.52378   0.00000  Uiso   1.00
C460   C     0.24776   0.60214   0.54409   0.00000  Uiso   1.00
C461   C     0.21683   0.89776   0.47622   0.00000  Uiso   1.00
C462   C     0.25348   0.55211   0.45479   0.00000  Uiso   1.00
C463   C     0.28446   0.94760   0.52353   0.00000  Uiso   1.00
C464   C     0.24652   0.55211   0.54521   0.00000  Uiso   1.00
H465   H     0.02957   0.82045   0.53148   0.00000  Uiso   1.00
H466   H     0.30908   0.87819   0.54280   0.00000  Uiso   1.00
H467   H     0.24700   0.62174   0.57869   0.00000  Uiso   1.00
H468   H     0.19091   0.87820   0.45720   0.00000  Uiso   1.00
H469   H     0.32358   0.54372   0.40577   0.00000  Uiso   1.00
H470   H     0.28691   0.57493   0.36221   0.00000  Uiso   1.00
H471   H     0.29948   0.51390   0.35325   0.00000  Uiso   1.00
H472   H     0.34824   0.99012   0.48029   0.00000  Uiso   1.00
H473   H     0.36894   0.93591   0.50919   0.00000  Uiso   1.00
H474   H     0.38270   0.99245   0.53504   0.00000  Uiso   1.00
H475   H     0.17646   0.54393   0.59434   0.00000  Uiso   1.00
H476   H     0.47061   0.67988   0.53164   0.00000  Uiso   1.00
H477   H     0.21326   0.57495   0.63791   0.00000  Uiso   1.00
H478   H     0.20053   0.51395   0.64678   0.00000  Uiso   1.00
H479   H     0.15187   0.99033   0.51971   0.00000  Uiso   1.00
H480   H     0.13110   0.93605   0.49102   0.00000  Uiso   1.00
H481   H     0.11733   0.99252   0.46502   0.00000  Uiso   1.00
H482   H     0.47043   0.82046   0.46853   0.00000  Uiso   1.00
H483   H     0.02939   0.67988   0.46836   0.00000  Uiso   1.00
H484   H     0.11064   0.82075   0.53066   0.00000  Uiso   1.00
H485   H     0.38954   0.67945   0.53088   0.00000  Uiso   1.00
H486   H     0.38936   0.82075   0.46934   0.00000  Uiso   1.00
H487   H     0.11046   0.67945   0.46911   0.00000  Uiso   1.00
H488   H     0.25300   0.62173   0.42130   0.00000  Uiso   1.00
N489   N     0.25000   0.62624   0.50000   0.00000  Uiso   1.00
N490   N     0.25000   0.87377   0.50000   0.00000  Uiso   1.00
O491   O     0.18453   0.78974   0.50000   0.00000  Uiso   1.00
O492   O     0.31846   0.97102   0.54799   0.00000  Uiso   1.00
O493   O     0.24470   0.52746   0.59003   0.00000  Uiso   1.00
O494   O     0.18154   0.97102   0.45202   0.00000  Uiso   1.00
O495   O     0.31547   0.71026   0.50000   0.00000  Uiso   1.00
O496   O     0.31547   0.78974   0.50000   0.00000  Uiso   1.00
O497   O     0.18453   0.71026   0.50000   0.00000  Uiso   1.00
O498   O     0.25000   0.78973   0.42845   0.00000  Uiso   1.00
O499   O     0.25000   0.71027   0.57155   0.00000  Uiso   1.00
O500   O     0.25000   0.78973   0.57155   0.00000  Uiso   1.00
O501   O     0.25000   0.71027   0.42845   0.00000  Uiso   1.00
O502   O     0.25530   0.52747   0.40997   0.00000  Uiso   1.00
Zn503  Zn    0.25000   0.80307   0.50000   0.00000  Uiso   1.00
Zn504  Zn    0.25000   0.69693   0.50000   0.00000  Uiso   1.00
C505   C     0.66388   0.75001   0.49998   0.00000  Uiso   1.00
C506   C     0.71554   0.94760   0.47647   0.00000  Uiso   1.00
C507   C     0.74999   0.75000   0.40618   0.00000  Uiso   1.00
C508   C     0.75001   0.75000   0.59382   0.00000  Uiso   1.00
C509   C     0.75000   0.52662   0.50000   0.00000  Uiso   1.00
C510   C     0.75000   0.97332   0.50000   0.00000  Uiso   1.00
C511   C     0.75000   0.74998   0.35512   0.00000  Uiso   1.00
C512   C     0.75000   0.74998   0.64488   0.00000  Uiso   1.00
C513   C     0.54710   0.78984   0.51730   0.00000  Uiso   1.00
C514   C     0.95299   0.71046   0.51746   0.00000  Uiso   1.00
C515   C     0.95290   0.78985   0.48271   0.00000  Uiso   1.00
C516   C     0.83612   0.75001   0.50002   0.00000  Uiso   1.00
C517   C     0.54701   0.71046   0.48254   0.00000  Uiso   1.00
C518   C     0.59308   0.78992   0.51698   0.00000  Uiso   1.00
C519   C     0.90702   0.71029   0.51717   0.00000  Uiso   1.00
C520   C     0.90692   0.78992   0.48302   0.00000  Uiso   1.00
C521   C     0.59298   0.71029   0.48283   0.00000  Uiso   1.00
C522   C     0.61600   0.75006   0.49994   0.00000  Uiso   1.00
C523   C     0.88400   0.75006   0.50006   0.00000  Uiso   1.00
C524   C     0.52405   0.75016   0.49995   0.00000  Uiso   1.00
C525   C     0.97595   0.75016   0.50005   0.00000  Uiso   1.00
C526   C     0.79308   0.54116   0.38214   0.00000  Uiso   1.00
C527   C     0.75224   0.60214   0.45591   0.00000  Uiso   1.00
C528   C     0.85592   0.97207   0.51629   0.00000  Uiso   1.00
C529   C     0.70698   0.54124   0.61793   0.00000  Uiso   1.00
C530   C     0.64412   0.97218   0.48379   0.00000  Uiso   1.00
C531   C     0.78317   0.89776   0.52378   0.00000  Uiso   1.00
C532   C     0.74776   0.60214   0.54409   0.00000  Uiso   1.00
C533   C     0.71683   0.89776   0.47622   0.00000  Uiso   1.00
C534   C     0.75348   0.55211   0.45479   0.00000  Uiso   1.00
C535   C     0.78446   0.94760   0.52353   0.00000  Uiso   1.00
C536   C     0.74652   0.55211   0.54521   0.00000  Uiso   1.00
H537   H     0.52957   0.82045   0.53148   0.00000  Uiso   1.00
H538   H     0.80908   0.87819   0.54280   0.00000  Uiso   1.00
H539   H     0.74700   0.62174   0.57869   0.00000  Uiso   1.00
H540   H     0.69091   0.87820   0.45720   0.00000  Uiso   1.00
H541   H     0.82358   0.54372   0.40577   0.00000  Uiso   1.00
H542   H     0.78691   0.57493   0.36221   0.00000  Uiso   1.00
H543   H     0.79948   0.51390   0.35325   0.00000  Uiso   1.00
H544   H     0.84824   0.99012   0.48029   0.00000  Uiso   1.00
H545   H     0.86894   0.93591   0.50919   0.00000  Uiso   1.00
H546   H     0.88270   0.99245   0.53504   0.00000  Uiso   1.00
H547   H     0.67646   0.54393   0.59434   0.00000  Uiso   1.00
H548   H     0.97061   0.67988   0.53164   0.00000  Uiso   1.00
H549   H     0.71326   0.57495   0.63791   0.00000  Uiso   1.00
H550   H     0.70053   0.51395   0.64678   0.00000  Uiso   1.00
H551   H     0.65187   0.99033   0.51971   0.00000  Uiso   1.00
H552   H     0.63110   0.93605   0.49102   0.00000  Uiso   1.00
H553   H     0.61733   0.99252   0.46502   0.00000  Uiso   1.00
H554   H     0.97043   0.82046   0.46853   0.00000  Uiso   1.00
H555   H     0.52939   0.67988   0.46836   0.00000  Uiso   1.00
H556   H     0.61064   0.82075   0.53066   0.00000  Uiso   1.00
H557   H     0.88954   0.67945   0.53088   0.00000  Uiso   1.00
H558   H     0.88936   0.82075   0.46934   0.00000  Uiso   1.00
H559   H     0.61046   0.67945   0.46911   0.00000  Uiso   1.00
H560   H     0.75300   0.62173   0.42130   0.00000  Uiso   1.00
N561   N     0.75000   0.62624   0.50000   0.00000  Uiso   1.00
N562   N     0.75000   0.87377   0.50000   0.00000  Uiso   1.00
O563   O     0.68453   0.78974   0.50000   0.00000  Uiso   1.00
O564   O     0.81846   0.97102   0.54799   0.00000  Uiso   1.00
O565   O     0.74470   0.52746   0.59003   0.00000  Uiso   1.00
O566   O     0.68154   0.97102   0.45202   0.00000  Uiso   1.00
O567   O     0.81547   0.71026   0.50000   0.00000  Uiso   1.00
O568   O     0.81547   0.78974   0.50000   0.00000  Uiso   1.00
O569   O     0.68453   0.71026   0.50000   0.00000  Uiso   1.00
O570   O     0.75000   0.78973   0.42845   0.00000  Uiso   1.00
O571   O     0.75000   0.71027   0.57155   0.00000  Uiso   1.00
O572   O     0.75000   0.78973   0.57155   0.00000  Uiso   1.00
O573   O     0.75000   0.71027   0.42845   0.00000  Uiso   1.00
O574   O     0.75530   0.52747   0.40997   0.00000  Uiso   1.00
Zn575  Zn    0.75000   0.80307   0.50000   0.00000  Uiso   1.00
Zn576  Zn    0.75000   0.69693   0.50000   0.00000  Uiso   1.00
C577   C     0.16388   0.25001   0.83331   0.00000  Uiso   1.00
C578   C     0.21554   0.44760   0.80981   0.00000  Uiso   1.00
C579   C     0.24999   0.25000   0.73951   0.00000  Uiso   1.00
C580   C     0.25001   0.25000   0.92716   0.00000  Uiso   1.00
C581   C     0.25000   0.02662   0.83334   0.00000  Uiso   1.00
C582   C     0.25000   0.47332   0.83334   0.00000  Uiso   1.00
C583   C     0.25000   0.24998   0.68845   0.00000  Uiso   1.00
C584   C     0.25000   0.24998   0.97822   0.00000  Uiso   1.00
C585   C     0.04710   0.28984   0.85063   0.00000  Uiso   1.00
C586   C     0.45299   0.21046   0.85079   0.00000  Uiso   1.00
C587   C     0.45290   0.28985   0.81605   0.00000  Uiso   1.00
C588   C     0.33612   0.25001   0.83335   0.00000  Uiso   1.00
C589   C     0.04701   0.21046   0.81588   0.00000  Uiso   1.00
C590   C     0.09308   0.28992   0.85032   0.00000  Uiso   1.00
C591   C     0.40702   0.21029   0.85050   0.00000  Uiso   1.00
C592   C     0.40692   0.28992   0.81635   0.00000  Uiso   1.00
C593   C     0.09298   0.21029   0.81617   0.00000  Uiso   1.00
C594   C     0.11600   0.25006   0.83327   0.00000  Uiso   1.00
C595   C     0.38400   0.25006   0.83339   0.00000  Uiso   1.00
C596   C     0.02405   0.25016   0.83329   0.00000  Uiso   1.00
C597   C     0.47595   0.25016   0.83338   0.00000  Uiso   1.00
C598   C     0.29308   0.04116   0.71547   0.00000  Uiso   1.00
C599   C     0.25224   0.10214   0.78925   0.00000  Uiso   1.00
C600   C     0.35592   0.47207   0.84962   0.00000  Uiso   1.00
C601   C     0.20698   0.04124   0.95126   0.00000  Uiso   1.00
C602   C     0.14412   0.47218   0.81712   0.00000  Uiso   1.00
C603   C     0.28317   0.39776   0.85711   0.00000  Uiso   1.00
C604   C     0.24776   0.10214   0.87742   0.00000  Uiso   1.00
C605   C     0.21683   0.39776   0.80955   0.00000  Uiso   1.00
C606   C     0.25348   0.05211   0.78813   0.00000  Uiso   1.00
C607   C     0.28446   0.44760   0.85686   0.00000  Uiso   1.00
C608   C     0.24652   0.05211   0.87855   0.00000  Uiso   1.00
H609   H     0.02957   0.32045   0.86481   0.00000  Uiso   1.00
H610   H     0.30908   0.37819   0.87614   0.00000  Uiso   1.00
H611   H     0.24700   0.12174   0.91203   0.00000  Uiso   1.00
H612   H     0.19091   0.37820   0.79053   0.00000  Uiso   1.00
H613   H     0.32358   0.04372   0.73911   0.00000  Uiso   1.00
H614   H     0.28691   0.07493   0.69555   0.00000  Uiso   1.00
H615   H     0.29948   0.01390   0.68658   0.00000  Uiso   1.00
H616   H     0.34824   0.49012   0.81362   0.00000  Uiso   1.00
H617   H     0.36894   0.43591   0.84252   0.00000  Uiso   1.00
H618   H     0.38270   0.49245   0.86837   0.00000  Uiso   1.00
H619   H     0.17646   0.04393   0.92767   0.00000  Uiso   1.00
H620   H     0.47061   0.17988   0.86497   0.00000  Uiso   1.00
H621   H     0.21326   0.07495   0.97124   0.00000  Uiso   1.00
H622   H     0.20053   0.01395   0.98011   0.00000  Uiso   1.00
H623   H     0.15187   0.49033   0.85304   0.00000  Uiso   1.00
H624   H     0.13110   0.43605   0.82436   0.00000  Uiso   1.00
H625   H     0.11733   0.49252   0.79835   0.00000  Uiso   1.00
H626   H     0.47043   0.32046   0.80186   0.00000  Uiso   1.00
H627   H     0.02939   0.17988   0.80169   0.00000  Uiso   1.00
H628   H     0.11064   0.32075   0.86400   0.00000  Uiso   1.00
H629   H     0.38954   0.17945   0.86422   0.00000  Uiso   1.00
H630   H     0.38936   0.32075   0.80268   0.00000  Uiso   1.00
H631   H     0.11046   0.17945   0.80244   0.00000  Uiso   1.00
H632   H     0.25300   0.12173   0.75464   0.00000  Uiso   1.00
N633   N     0.25000   0.12624   0.83333   0.00000  Uiso   1.00
N634   N     0.25000   0.37377   0.83333   0.00000  Uiso   1.00
O635   O     0.18453   0.28974   0.83334   0.00000  Uiso   1.00
O636   O     0.31846   0.47102   0.88132   0.00000  Uiso   1.00
O637   O     0.24470   0.02746   0.92336   0.00000  Uiso   1.00
O638   O     0.18154   0.47102   0.78535   0.00000  Uiso   1.00
O639   O     0.31547   0.21026   0.83333   0.00000  Uiso   1.00
O640   O     0.31547   0.28974   0.83333   0.00000  Uiso   1.00
O641   O     0.18453   0.21026   0.83334   0.00000  Uiso   1.00
O642   O     0.25000   0.28973   0.76178   0.00000  Uiso   1.00
O643   O     0.25000   0.21027   0.90489   0.00000  Uiso   1.00
O644   O     0.25000   0.28973   0.90489   0.00000  Uiso   1.00
O645   O     0.25000   0.21027   0.76178   0.00000  Uiso   1.00
O646   O     0.25530   0.02747   0.74331   0.00000  Uiso   1.00
Zn647  Zn    0.25000   0.30307   0.83333   0.00000  Uiso   1.00
Zn648  Zn    0.25000   0.19693   0.83333   0.00000  Uiso   1.00
C649   C     0.66388   0.25001   0.83331   0.00000  Uiso   1.00
C650   C     0.71554   0.44760   0.80981   0.00000  Uiso   1.00
C651   C     0.74999   0.25000   0.73951   0.00000  Uiso   1.00
C652   C     0.75001   0.25000   0.92716   0.00000  Uiso   1.00
C653   C     0.75000   0.02662   0.83334   0.00000  Uiso   1.00
C654   C     0.75000   0.47332   0.83334   0.00000  Uiso   1.00
C655   C     0.75000   0.24998   0.68845   0.00000  Uiso   1.00
C656   C     0.75000   0.24998   0.97822   0.00000  Uiso   1.00
C657   C     0.54710   0.28984   0.85063   0.00000  Uiso   1.00
C658   C     0.95299   0.21046   0.85079   0.00000  Uiso   1.00
C659   C     0.95290   0.28985   0.81605   0.00000  Uiso   1.00
C660   C     0.83612   0.25001   0.83335   0.00000  Uiso   1.00
C661   C     0.54701   0.21046   0.81588   0.00000  Uiso   1.00
C662   C     0.59308   0.28992   0.85032   0.00000  Uiso   1.00
C663   C     0.90702   0.21029   0.85050   0.00000  Uiso   1.00
C664   C     0.90692   0.28992   0.81635   0.00000  Uiso   1.00
C665   C     0.59298   0.21029   0.81617   0.00000  Uiso   1.00
C666   C     0.61600   0.25006   0.83327   0.00000  Uiso   1.00
C667   C     0.88400   0.25006   0.83339   0.00000  Uiso   1.00
C668   C     0.52405   0.25016   0.83329   0.00000  Uiso   1.00
C669   C     0.97595   0.25016   0.83338   0.00000  Uiso   1.00
C670   C     0.79308   0.04116   0.71547   0.00000  Uiso   1.00
C671   C     0.75224   0.10214   0.78925   0.00000  Uiso   1.00
C672   C     0.85592   0.47207   0.84962   0.00000  Uiso   1.00
C673   C     0.70698   0.04124   0.95126   0.00000  Uiso   1.00
C674   C     0.64412   0.47218   0.81712   0.00000  Uiso   1.00
C675   C     0.78317   0.39776   0.85711   0.00000  Uiso   1.00
C676   C     0.74776   0.10214   0.87742   0.00000  Uiso   1.00
C677   C     0.71683   0.39776   0.80955   0.00000  Uiso   1.00
C678   C     0.75348   0.05211   0.78813   0.00000  Uiso   1.00
C679   C     0.78446   0.44760   0.85686   0.00000  Uiso   1.00
C680   C     0.74652   0.05211   0.87855   0.00000  Uiso   1.00
H681   H     0.52957   0.32045   0.86481   0.00000  Uiso   1.00
H682   H     0.80908   0.37819   0.87614   0.00000  Uiso   1.00
H683   H     0.74700   0.12174   0.91203   0.00000  Uiso   1.00
H684   H     0.69091   0.37820   0.79053   0.00000  Uiso   1.00
H685   H     0.82358   0.04372   0.73911   0.00000  Uiso   1.00
H686   H     0.78691   0.07493   0.69555   0.00000  Uiso   1.00
H687   H     0.79948   0.01390   0.68658   0.00000  Uiso   1.00
H688   H     0.84824   0.49012   0.81362   0.00000  Uiso   1.00
H689   H     0.86894   0.43591   0.84252   0.00000  Uiso   1.00
H690   H     0.88270   0.49245   0.86837   0.00000  Uiso   1.00
H691   H     0.67646   0.04393   0.92767   0.00000  Uiso   1.00
H692   H     0.97061   0.17988   0.86497   0.00000  Uiso   1.00
H693   H     0.71326   0.07495   0.97124   0.00000  Uiso   1.00
H694   H     0.70053   0.01395   0.98011   0.00000  Uiso   1.00
H695   H     0.65187   0.49033   0.85304   0.00000  Uiso   1.00
H696   H     0.63110   0.43605   0.82436   0.00000  Uiso   1.00
H697   H     0.61733   0.49252   0.79835   0.00000  Uiso   1.00
H698   H     0.97043   0.32046   0.80186   0.00000  Uiso   1.00
H699   H     0.52939   0.17988   0.80169   0.00000  Uiso   1.00
H700   H     0.61064   0.32075   0.86400   0.00000  Uiso   1.00
H701   H     0.88954   0.17945   0.86422   0.00000  Uiso   1.00
H702   H     0.88936   0.32075   0.80268   0.00000  Uiso   1.00
H703   H     0.61046   0.17945   0.80244   0.00000  Uiso   1.00
H704   H     0.75300   0.12173   0.75464   0.00000  Uiso   1.00
N705   N     0.75000   0.12624   0.83333   0.00000  Uiso   1.00
N706   N     0.75000   0.37377   0.83333   0.00000  Uiso   1.00
O707   O     0.68453   0.28974   0.83334   0.00000  Uiso   1.00
O708   O     0.81846   0.47102   0.88132   0.00000  Uiso   1.00
O709   O     0.74470   0.02746   0.92336   0.00000  Uiso   1.00
O710   O     0.68154   0.47102   0.78535   0.00000  Uiso   1.00
O711   O     0.81547   0.21026   0.83333   0.00000  Uiso   1.00
O712   O     0.81547   0.28974   0.83333   0.00000  Uiso   1.00
O713   O     0.68453   0.21026   0.83334   0.00000  Uiso   1.00
O714   O     0.75000   0.28973   0.76178   0.00000  Uiso   1.00
O715   O     0.75000   0.21027   0.90489   0.00000  Uiso   1.00
O716   O     0.75000   0.28973   0.90489   0.00000  Uiso   1.00
O717   O     0.75000   0.21027   0.76178   0.00000  Uiso   1.00
O718   O     0.75530   0.02747   0.74331   0.00000  Uiso   1.00
Zn719  Zn    0.75000   0.30307   0.83333   0.00000  Uiso   1.00
Zn720  Zn    0.75000   0.19693   0.83333   0.00000  Uiso   1.00
C721   C     0.16388   0.75001   0.83331   0.00000  Uiso   1.00
C722   C     0.21554   0.94760   0.80981   0.00000  Uiso   1.00
C723   C     0.24999   0.75000   0.73951   0.00000  Uiso   1.00
C724   C     0.25001   0.75000   0.92716   0.00000  Uiso   1.00
C725   C     0.25000   0.52662   0.83334   0.00000  Uiso   1.00
C726   C     0.25000   0.97332   0.83334   0.00000  Uiso   1.00
C727   C     0.25000   0.74998   0.68845   0.00000  Uiso   1.00
C728   C     0.25000   0.74998   0.97822   0.00000  Uiso   1.00
C729   C     0.04710   0.78984   0.85063   0.00000  Uiso   1.00
C730   C     0.45299   0.71046   0.85079   0.00000  Uiso   1.00
C731   C     0.45290   0.78985   0.81605   0.00000  Uiso   1.00
C732   C     0.33612   0.75001   0.83335   0.00000  Uiso   1.00
C733   C     0.04701   0.71046   0.81588   0.00000  Uiso   1.00
C734   C     0.09308   0.78992   0.85032   0.00000  Uiso   1.00
C735   C     0.40702   0.71029   0.85050   0.00000  Uiso   1.00
C736   C     0.40692   0.78992   0.81635   0.00000  Uiso   1.00
C737   C     0.09298   0.71029   0.81617   0.00000  Uiso   1.00
C738   C     0.11600   0.75006   0.83327   0.00000  Uiso   1.00
C739   C     0.38400   0.75006   0.83339   0.00000  Uiso   1.00
C740   C     0.02405   0.75016   0.83329   0.00000  Uiso   1.00
C741   C     0.47595   0.75016   0.83338   0.00000  Uiso   1.00
C742   C     0.29308   0.54116   0.71547   0.00000  Uiso   1.00
C743   C     0.25224   0.60214   0.78925   0.00000  Uiso   1.00
C744   C     0.35592   0.97207   0.84962   0.00000  Uiso   1.00
C745   C     0.20698   0.54124   0.95126   0.00000  Uiso   1.00
C746   C     0.14412   0.97218   0.81712   0.00000  Uiso   1.00
C747   C     0.28317   0.89776   0.85711   0.00000  Uiso   1.00
C748   C     0.24776   0.60214   0.87742   0.00000  Uiso   1.00
C749   C     0.21683   0.89776   0.80955   0.00000  Uiso   1.00
C750   C     0.25348   0.55211   0.78813   0.00000  Uiso   1.00
C751   C     0.28446   0.94760   0.85686   0.00000  Uiso   1.00
C752   C     0.24652   0.55211   0.87855   0.00000  Uiso   1.00
H753   H     0.02957   0.82045   0.86481   0.00000  Uiso   1.00
H754   H     0.30908   0.87819   0.87614   0.00000  Uiso   1.00
H755   H     0.24700   0.62174   0.91203   0.00000  Uiso   1.00
H756   H     0.19091   0.87820   0.79053   0.00000  Uiso   1.00
H757   H     0.32358   0.54372   0.73911   0.00000  Uiso   1.00
H758   H     0.28691   0.57493   0.69555   0.00000  Uiso   1.00
H759   H     0.29948   0.51390   0.68658   0.00000  Uiso   1.00
H760   H     0.34824   0.99012   0.81362   0.00000  Uiso   1.00
H761   H     0.36894   0.93591   0.84252   0.00000  Uiso   1.00
H762   H     0.38270   0.99245   0.86837   0.00000  Uiso   1.00
H763   H     0.17646   0.54393   0.92767   0.00000  Uiso   1.00
H764   H     0.47061   0.67988   0.86497   0.00000  Uiso   1.00
H765   H     0.21326   0.57495   0.97124   0.00000  Uiso   1.00
H766   H     0.20053   0.51395   0.98011   0.00000  Uiso   1.00
H767   H     0.15187   0.99033   0.85304   0.00000  Uiso   1.00
H768   H     0.13110   0.93605   0.82436   0.00000  Uiso   1.00
H769   H     0.11733   0.99252   0.79835   0.00000  Uiso   1.00
H770   H     0.47043   0.82046   0.80186   0.00000  Uiso   1.00
H771   H     0.02939   0.67988   0.80169   0.00000  Uiso   1.00
H772   H     0.11064   0.82075   0.86400   0.00000  Uiso   1.00
H773   H     0.38954   0.67945   0.86422   0.00000  Uiso   1.00
H774   H     0.38936   0.82075   0.80268   0.00000  Uiso   1.00
H775   H     0.11046   0.67945   0.80244   0.00000  Uiso   1.00
H776   H     0.25300   0.62173   0.75464   0.00000  Uiso   1.00
N777   N     0.25000   0.62624   0.83333   0.00000  Uiso   1.00
N778   N     0.25000   0.87377   0.83333   0.00000  Uiso   1.00
O779   O     0.18453   0.78974   0.83334   0.00000  Uiso   1.00
O780   O     0.31846   0.97102   0.88132   0.00000  Uiso   1.00
O781   O     0.24470   0.52746   0.92336   0.00000  Uiso   1.00
O782   O     0.18154   0.97102   0.78535   0.00000  Uiso   1.00
O783   O     0.31547   0.71026   0.83333   0.00000  Uiso   1.00
O784   O     0.31547   0.78974   0.83333   0.00000  Uiso   1.00
O785   O     0.18453   0.71026   0.83334   0.00000  Uiso   1.00
O786   O     0.25000   0.78973   0.76178   0.00000  Uiso   1.00
O787   O     0.25000   0.71027   0.90489   0.00000  Uiso   1.00
O788   O     0.25000   0.78973   0.90489   0.00000  Uiso   1.00
O789   O     0.25000   0.71027   0.76178   0.00000  Uiso   1.00
O790   O     0.25530   0.52747   0.74331   0.00000  Uiso   1.00
Zn791  Zn    0.25000   0.80307   0.83333   0.00000  Uiso   1.00
Zn792  Zn    0.25000   0.69693   0.83333   0.00000  Uiso   1.00
C793   C     0.66388   0.75001   0.83331   0.00000  Uiso   1.00
C794   C     0.71554   0.94760   0.80981   0.00000  Uiso   1.00
C795   C     0.74999   0.75000   0.73951   0.00000  Uiso   1.00
C796   C     0.75001   0.75000   0.92716   0.00000  Uiso   1.00
C797   C     0.75000   0.52662   0.83334   0.00000  Uiso   1.00
C798   C     0.75000   0.97332   0.83334   0.00000  Uiso   1.00
C799   C     0.75000   0.74998   0.68845   0.00000  Uiso   1.00
C800   C     0.75000   0.74998   0.97822   0.00000  Uiso   1.00
C801   C     0.54710   0.78984   0.85063   0.00000  Uiso   1.00
C802   C     0.95299   0.71046   0.85079   0.00000  Uiso   1.00
C803   C     0.95290   0.78985   0.81605   0.00000  Uiso   1.00
C804   C     0.83612   0.75001   0.83335   0.00000  Uiso   1.00
C805   C     0.54701   0.71046   0.81588   0.00000  Uiso   1.00
C806   C     0.59308   0.78992   0.85032   0.00000  Uiso   1.00
C807   C     0.90702   0.71029   0.85050   0.00000  Uiso   1.00
C808   C     0.90692   0.78992   0.81635   0.00000  Uiso   1.00
C809   C     0.59298   0.71029   0.81617   0.00000  Uiso   1.00
C810   C     0.61600   0.75006   0.83327   0.00000  Uiso   1.00
C811   C     0.88400   0.75006   0.83339   0.00000  Uiso   1.00
C812   C     0.52405   0.75016   0.83329   0.00000  Uiso   1.00
C813   C     0.97595   0.75016   0.83338   0.00000  Uiso   1.00
C814   C     0.79308   0.54116   0.71547   0.00000  Uiso   1.00
C815   C     0.75224   0.60214   0.78925   0.00000  Uiso   1.00
C816   C     0.85592   0.97207   0.84962   0.00000  Uiso   1.00
C817   C     0.70698   0.54124   0.95126   0.00000  Uiso   1.00
C818   C     0.64412   0.97218   0.81712   0.00000  Uiso   1.00
C819   C     0.78317   0.89776   0.85711   0.00000  Uiso   1.00
C820   C     0.74776   0.60214   0.87742   0.00000  Uiso   1.00
C821   C     0.71683   0.89776   0.80955   0.00000  Uiso   1.00
C822   C     0.75348   0.55211   0.78813   0.00000  Uiso   1.00
C823   C     0.78446   0.94760   0.85686   0.00000  Uiso   1.00
C824   C     0.74652   0.55211   0.87855   0.00000  Uiso   1.00
H825   H     0.52957   0.82045   0.86481   0.00000  Uiso   1.00
H826   H     0.80908   0.87819   0.87614   0.00000  Uiso   1.00
H827   H     0.74700   0.62174   0.91203   0.00000  Uiso   1.00
H828   H     0.69091   0.87820   0.79053   0.00000  Uiso   1.00
H829   H     0.82358   0.54372   0.73911   0.00000  Uiso   1.00
H830   H     0.78691   0.57493   0.69555   0.00000  Uiso   1.00
H831   H     0.79948   0.51390   0.68658   0.00000  Uiso   1.00
H832   H     0.84824   0.99012   0.81362   0.00000  Uiso   1.00
H833   H     0.86894   0.93591   0.84252   0.00000  Uiso   1.00
H834   H     0.88270   0.99245   0.86837   0.00000  Uiso   1.00
H835   H     0.67646   0.54393   0.92767   0.00000  Uiso   1.00
H836   H     0.97061   0.67988   0.86497   0.00000  Uiso   1.00
H837   H     0.71326   0.57495   0.97124   0.00000  Uiso   1.00
H838   H     0.70053   0.51395   0.98011   0.00000  Uiso   1.00
H839   H     0.65187   0.99033   0.85304   0.00000  Uiso   1.00
H840   H     0.63110   0.93605   0.82436   0.00000  Uiso   1.00
H841   H     0.61733   0.99252   0.79835   0.00000  Uiso   1.00
H842   H     0.97043   0.82046   0.80186   0.00000  Uiso   1.00
H843   H     0.52939   0.67988   0.80169   0.00000  Uiso   1.00
H844   H     0.61064   0.82075   0.86400   0.00000  Uiso   1.00
H845   H     0.88954   0.67945   0.86422   0.00000  Uiso   1.00
H846   H     0.88936   0.82075   0.80268   0.00000  Uiso   1.00
H847   H     0.61046   0.67945   0.80244   0.00000  Uiso   1.00
H848   H     0.75300   0.62173   0.75464   0.00000  Uiso   1.00
N849   N     0.75000   0.62624   0.83333   0.00000  Uiso   1.00
N850   N     0.75000   0.87377   0.83333   0.00000  Uiso   1.00
O851   O     0.68453   0.78974   0.83334   0.00000  Uiso   1.00
O852   O     0.81846   0.97102   0.88132   0.00000  Uiso   1.00
O853   O     0.74470   0.52746   0.92336   0.00000  Uiso   1.00
O854   O     0.68154   0.97102   0.78535   0.00000  Uiso   1.00
O855   O     0.81547   0.71026   0.83333   0.00000  Uiso   1.00
O856   O     0.81547   0.78974   0.83333   0.00000  Uiso   1.00
O857   O     0.68453   0.71026   0.83334   0.00000  Uiso   1.00
O858   O     0.75000   0.78973   0.76178   0.00000  Uiso   1.00
O859   O     0.75000   0.71027   0.90489   0.00000  Uiso   1.00
O860   O     0.75000   0.78973   0.90489   0.00000  Uiso   1.00
O861   O     0.75000   0.71027   0.76178   0.00000  Uiso   1.00
O862   O     0.75530   0.52747   0.74331   0.00000  Uiso   1.00
Zn863  Zn    0.75000   0.80307   0.83333   0.00000  Uiso   1.00
Zn864  Zn    0.75000   0.69693   0.83333   0.00000  Uiso   1.00
loop_
_geom_bond_atom_site_label_1
_geom_bond_atom_site_label_2
_geom_bond_distance
_geom_bond_site_symmetry_2
_ccdc_geom_bond_type
C1     O65     1.286   .     A
C1     C18     1.438   .     S
C1     O59     1.285   .     A
C2     C6      1.413   .     A
C2     C29     1.413   .     A
C2     O62     1.381   .     S
C3     O69     1.273   .     A
C3     C7      1.365   .     S
C3     O66     1.274   .     A
C4     O67     1.273   .     A
C4     C8      1.365   .     S
C4     O68     1.274   .     A
C5     C32     1.412   .     A
C5     C30     1.412   .     A
C5     C150    1.510   1_545 S
C6     C31     1.413   .     A
C6     C149    1.510   .     S
C7     C584    1.165   1_554 S
C8     C295    1.165   .     S
C9     C14     1.380   .     A
C9     C20     1.399   .     A
C9     H33     1.083   .     S
C10    C21     1.399   .     A
C10    C15     1.380   .     A
C10    H44     1.083   .     S
C11    C16     1.380   .     A
C11    H50     1.083   .     S
C11    C21     1.399   .     A
C12    C19     1.438   .     S
C12    O64     1.285   .     A
C12    O63     1.286   .     A
C13    C17     1.380   .     A
C13    H51     1.083   .     S
C13    C20     1.399   .     A
C14    C18     1.399   .     A
C14    H52     1.084   .     S
C15    H53     1.084   .     S
C15    C19     1.399   .     A
C16    C19     1.399   .     A
C16    H54     1.084   .     S
C17    C18     1.399   .     A
C17    H55     1.084   .     S
C20    C93     1.444   1_455 S
C21    C92     1.444   .     S
C22    H39     1.109   .     S
C22    O70     1.411   .     S
C22    H38     1.110   .     S
C22    H37     1.114   .     S
C23    C30     1.419   .     A
C23    H56     1.079   .     S
C23    N57     1.364   .     A
C24    H42     1.109   .     S
C24    H41     1.113   .     S
C24    O60     1.409   .     S
C24    H40     1.114   .     S
C25    H43     1.114   .     S
C25    O61     1.412   .     S
C25    H45     1.110   .     S
C25    H46     1.109   .     S
C26    H48     1.113   .     S
C26    O62     1.409   .     S
C26    H47     1.114   .     S
C26    H49     1.109   .     S
C27    H34     1.082   .     S
C27    C31     1.413   .     A
C27    N58     1.363   .     A
C28    N57     1.364   .     A
C28    C32     1.419   .     A
C28    H35     1.079   .     S
C29    N58     1.363   .     A
C29    H36     1.082   .     S
C30    O70     1.388   .     S
C31    O60     1.381   .     S
C32    O61     1.388   .     S
N57    Zn72    2.003   .     S
N58    Zn71    2.003   .     S
O59    Zn71    2.002   .     S
O63    Zn72    2.002   .     S
O64    Zn71    2.002   .     S
O65    Zn72    2.002   .     S
O66    Zn71    1.949   .     S
O67    Zn72    1.949   .     S
O68    Zn71    1.949   .     S
O69    Zn72    1.949   .     S
C73    O137    1.286   .     A
C73    C90     1.438   .     S
C73    O131    1.285   .     A
C74    C78     1.413   .     A
C74    C101    1.413   .     A
C74    O134    1.381   .     S
C75    O141    1.273   .     A
C75    C79     1.365   .     S
C75    O138    1.274   .     A
C76    O139    1.273   .     A
C76    C80     1.365   .     S
C76    O140    1.274   .     A
C77    C104    1.412   .     A
C77    C102    1.412   .     A
C77    C222    1.510   1_545 S
C78    C103    1.413   .     A
C78    C221    1.510   .     S
C79    C656    1.165   1_554 S
C80    C367    1.165   .     S
C81    C86     1.380   .     A
C81    C92     1.399   .     A
C81    H105    1.083   .     S
C82    C93     1.399   .     A
C82    C87     1.380   .     A
C82    H116    1.083   .     S
C83    C88     1.380   .     A
C83    H122    1.083   .     S
C83    C93     1.399   .     A
C84    C91     1.438   .     S
C84    O136    1.285   .     A
C84    O135    1.286   .     A
C85    C89     1.380   .     A
C85    H123    1.083   .     S
C85    C92     1.399   .     A
C86    C90     1.399   .     A
C86    H124    1.084   .     S
C87    H125    1.084   .     S
C87    C91     1.399   .     A
C88    C91     1.399   .     A
C88    H126    1.084   .     S
C89    C90     1.399   .     A
C89    H127    1.084   .     S
C93    C20     1.444   1_655 S
C94    H111    1.109   .     S
C94    O142    1.411   .     S
C94    H110    1.110   .     S
C94    H109    1.114   .     S
C95    C102    1.419   .     A
C95    H128    1.079   .     S
C95    N129    1.364   .     A
C96    H114    1.109   .     S
C96    H113    1.113   .     S
C96    O132    1.409   .     S
C96    H112    1.114   .     S
C97    H115    1.114   .     S
C97    O133    1.412   .     S
C97    H117    1.110   .     S
C97    H118    1.109   .     S
C98    H120    1.113   .     S
C98    O134    1.409   .     S
C98    H119    1.114   .     S
C98    H121    1.109   .     S
C99    H106    1.082   .     S
C99    C103    1.413   .     A
C99    N130    1.363   .     A
C100   N129    1.364   .     A
C100   C104    1.419   .     A
C100   H107    1.079   .     S
C101   N130    1.363   .     A
C101   H108    1.082   .     S
C102   O142    1.388   .     S
C103   O132    1.381   .     S
C104   O133    1.388   .     S
N129   Zn144   2.003   .     S
N130   Zn143   2.003   .     S
O131   Zn143   2.002   .     S
O135   Zn144   2.002   .     S
O136   Zn143   2.002   .     S
O137   Zn144   2.002   .     S
O138   Zn143   1.949   .     S
O139   Zn144   1.949   .     S
O140   Zn143   1.949   .     S
O141   Zn144   1.949   .     S
C145   O209    1.286   .     A
C145   C162    1.438   .     S
C145   O203    1.285   .     A
C146   C150    1.413   .     A
C146   C173    1.413   .     A
C146   O206    1.381   .     S
C147   O213    1.273   .     A
C147   C151    1.365   .     S
C147   O210    1.274   .     A
C148   O211    1.273   .     A
C148   C152    1.365   .     S
C148   O212    1.274   .     A
C149   C176    1.412   .     A
C149   C174    1.412   .     A
C150   C175    1.413   .     A
C150   C5      1.510   1_565 S
C151   C728    1.165   1_554 S
C152   C439    1.165   .     S
C153   C158    1.380   .     A
C153   C164    1.399   .     A
C153   H177    1.083   .     S
C154   C165    1.399   .     A
C154   C159    1.380   .     A
C154   H188    1.083   .     S
C155   C160    1.380   .     A
C155   H194    1.083   .     S
C155   C165    1.399   .     A
C156   C163    1.438   .     S
C156   O208    1.285   .     A
C156   O207    1.286   .     A
C157   C161    1.380   .     A
C157   H195    1.083   .     S
C157   C164    1.399   .     A
C158   C162    1.399   .     A
C158   H196    1.084   .     S
C159   H197    1.084   .     S
C159   C163    1.399   .     A
C160   C163    1.399   .     A
C160   H198    1.084   .     S
C161   C162    1.399   .     A
C161   H199    1.084   .     S
C164   C237    1.444   1_455 S
C165   C236    1.444   .     S
C166   H183    1.109   .     S
C166   O214    1.411   .     S
C166   H182    1.110   .     S
C166   H181    1.114   .     S
C167   C174    1.419   .     A
C167   H200    1.079   .     S
C167   N201    1.364   .     A
C168   H186    1.109   .     S
C168   H185    1.113   .     S
C168   O204    1.409   .     S
C168   H184    1.114   .     S
C169   H187    1.114   .     S
C169   O205    1.412   .     S
C169   H189    1.110   .     S
C169   H190    1.109   .     S
C170   H192    1.113   .     S
C170   O206    1.409   .     S
C170   H191    1.114   .     S
C170   H193    1.109   .     S
C171   H178    1.082   .     S
C171   C175    1.413   .     A
C171   N202    1.363   .     A
C172   N201    1.364   .     A
C172   C176    1.419   .     A
C172   H179    1.079   .     S
C173   N202    1.363   .     A
C173   H180    1.082   .     S
C174   O214    1.388   .     S
C175   O204    1.381   .     S
C176   O205    1.388   .     S
N201   Zn216   2.003   .     S
N202   Zn215   2.003   .     S
O203   Zn215   2.002   .     S
O207   Zn216   2.002   .     S
O208   Zn215   2.002   .     S
O209   Zn216   2.002   .     S
O210   Zn215   1.949   .     S
O211   Zn216   1.949   .     S
O212   Zn215   1.949   .     S
O213   Zn216   1.949   .     S
C217   O281    1.286   .     A
C217   C234    1.438   .     S
C217   O275    1.285   .     A
C218   C222    1.413   .     A
C218   C245    1.413   .     A
C218   O278    1.381   .     S
C219   O285    1.273   .     A
C219   C223    1.365   .     S
C219   O282    1.274   .     A
C220   O283    1.273   .     A
C220   C224    1.365   .     S
C220   O284    1.274   .     A
C221   C248    1.412   .     A
C221   C246    1.412   .     A
C222   C247    1.413   .     A
C222   C77     1.510   1_565 S
C223   C800    1.165   1_554 S
C224   C511    1.165   .     S
C225   C230    1.380   .     A
C225   C236    1.399   .     A
C225   H249    1.083   .     S
C226   C237    1.399   .     A
C226   C231    1.380   .     A
C226   H260    1.083   .     S
C227   C232    1.380   .     A
C227   H266    1.083   .     S
C227   C237    1.399   .     A
C228   C235    1.438   .     S
C228   O280    1.285   .     A
C228   O279    1.286   .     A
C229   C233    1.380   .     A
C229   H267    1.083   .     S
C229   C236    1.399   .     A
C230   C234    1.399   .     A
C230   H268    1.084   .     S
C231   H269    1.084   .     S
C231   C235    1.399   .     A
C232   C235    1.399   .     A
C232   H270    1.084   .     S
C233   C234    1.399   .     A
C233   H271    1.084   .     S
C237   C164    1.444   1_655 S
C238   H255    1.109   .     S
C238   O286    1.411   .     S
C238   H254    1.110   .     S
C238   H253    1.114   .     S
C239   C246    1.419   .     A
C239   H272    1.079   .     S
C239   N273    1.364   .     A
C240   H258    1.109   .     S
C240   H257    1.113   .     S
C240   O276    1.409   .     S
C240   H256    1.114   .     S
C241   H259    1.114   .     S
C241   O277    1.412   .     S
C241   H261    1.110   .     S
C241   H262    1.109   .     S
C242   H264    1.113   .     S
C242   O278    1.409   .     S
C242   H263    1.114   .     S
C242   H265    1.109   .     S
C243   H250    1.082   .     S
C243   C247    1.413   .     A
C243   N274    1.363   .     A
C244   N273    1.364   .     A
C244   C248    1.419   .     A
C244   H251    1.079   .     S
C245   N274    1.363   .     A
C245   H252    1.082   .     S
C246   O286    1.388   .     S
C247   O276    1.381   .     S
C248   O277    1.388   .     S
N273   Zn288   2.003   .     S
N274   Zn287   2.003   .     S
O275   Zn287   2.002   .     S
O279   Zn288   2.002   .     S
O280   Zn287   2.002   .     S
O281   Zn288   2.002   .     S
O282   Zn287   1.949   .     S
O283   Zn288   1.949   .     S
O284   Zn287   1.949   .     S
O285   Zn288   1.949   .     S
C289   O353    1.286   .     A
C289   C306    1.438   .     S
C289   O347    1.285   .     A
C290   C294    1.413   .     A
C290   C317    1.413   .     A
C290   O350    1.381   .     S
C291   O357    1.273   .     A
C291   C295    1.365   .     S
C291   O354    1.274   .     A
C292   O355    1.273   .     A
C292   C296    1.365   .     S
C292   O356    1.274   .     A
C293   C320    1.412   .     A
C293   C318    1.412   .     A
C293   C438    1.510   1_545 S
C294   C319    1.413   .     A
C294   C437    1.510   .     S
C296   C583    1.165   .     S
C297   C302    1.380   .     A
C297   C308    1.399   .     A
C297   H321    1.083   .     S
C298   C309    1.399   .     A
C298   C303    1.380   .     A
C298   H332    1.083   .     S
C299   C304    1.380   .     A
C299   H338    1.083   .     S
C299   C309    1.399   .     A
C300   C307    1.438   .     S
C300   O352    1.285   .     A
C300   O351    1.286   .     A
C301   C305    1.380   .     A
C301   H339    1.083   .     S
C301   C308    1.399   .     A
C302   C306    1.399   .     A
C302   H340    1.084   .     S
C303   H341    1.084   .     S
C303   C307    1.399   .     A
C304   C307    1.399   .     A
C304   H342    1.084   .     S
C305   C306    1.399   .     A
C305   H343    1.084   .     S
C308   C381    1.444   1_455 S
C309   C380    1.444   .     S
C310   H327    1.109   .     S
C310   O358    1.411   .     S
C310   H326    1.110   .     S
C310   H325    1.114   .     S
C311   C318    1.419   .     A
C311   H344    1.079   .     S
C311   N345    1.364   .     A
C312   H330    1.109   .     S
C312   H329    1.113   .     S
C312   O348    1.409   .     S
C312   H328    1.114   .     S
C313   H331    1.114   .     S
C313   O349    1.412   .     S
C313   H333    1.110   .     S
C313   H334    1.109   .     S
C314   H336    1.113   .     S
C314   O350    1.409   .     S
C314   H335    1.114   .     S
C314   H337    1.109   .     S
C315   H322    1.082   .     S
C315   C319    1.413   .     A
C315   N346    1.363   .     A
C316   N345    1.364   .     A
C316   C320    1.419   .     A
C316   H323    1.079   .     S
C317   N346    1.363   .     A
C317   H324    1.082   .     S
C318   O358    1.388   .     S
C319   O348    1.381   .     S
C320   O349    1.388   .     S
N345   Zn360   2.003   .     S
N346   Zn359   2.003   .     S
O347   Zn359   2.002   .     S
O351   Zn360   2.002   .     S
O352   Zn359   2.002   .     S
O353   Zn360   2.002   .     S
O354   Zn359   1.949   .     S
O355   Zn360   1.949   .     S
O356   Zn359   1.949   .     S
O357   Zn360   1.949   .     S
C361   O425    1.286   .     A
C361   C378    1.438   .     S
C361   O419    1.285   .     A
C362   C366    1.413   .     A
C362   C389    1.413   .     A
C362   O422    1.381   .     S
C363   O429    1.273   .     A
C363   C367    1.365   .     S
C363   O426    1.274   .     A
C364   O427    1.273   .     A
C364   C368    1.365   .     S
C364   O428    1.274   .     A
C365   C392    1.412   .     A
C365   C390    1.412   .     A
C365   C510    1.510   1_545 S
C366   C391    1.413   .     A
C366   C509    1.510   .     S
C368   C655    1.165   .     S
C369   C374    1.380   .     A
C369   C380    1.399   .     A
C369   H393    1.083   .     S
C370   C381    1.399   .     A
C370   C375    1.380   .     A
C370   H404    1.083   .     S
C371   C376    1.380   .     A
C371   H410    1.083   .     S
C371   C381    1.399   .     A
C372   C379    1.438   .     S
C372   O424    1.285   .     A
C372   O423    1.286   .     A
C373   C377    1.380   .     A
C373   H411    1.083   .     S
C373   C380    1.399   .     A
C374   C378    1.399   .     A
C374   H412    1.084   .     S
C375   H413    1.084   .     S
C375   C379    1.399   .     A
C376   C379    1.399   .     A
C376   H414    1.084   .     S
C377   C378    1.399   .     A
C377   H415    1.084   .     S
C381   C308    1.444   1_655 S
C382   H399    1.109   .     S
C382   O430    1.411   .     S
C382   H398    1.110   .     S
C382   H397    1.114   .     S
C383   C390    1.419   .     A
C383   H416    1.079   .     S
C383   N417    1.364   .     A
C384   H402    1.109   .     S
C384   H401    1.113   .     S
C384   O420    1.409   .     S
C384   H400    1.114   .     S
C385   H403    1.114   .     S
C385   O421    1.412   .     S
C385   H405    1.110   .     S
C385   H406    1.109   .     S
C386   H408    1.113   .     S
C386   O422    1.409   .     S
C386   H407    1.114   .     S
C386   H409    1.109   .     S
C387   H394    1.082   .     S
C387   C391    1.413   .     A
C387   N418    1.363   .     A
C388   N417    1.364   .     A
C388   C392    1.419   .     A
C388   H395    1.079   .     S
C389   N418    1.363   .     A
C389   H396    1.082   .     S
C390   O430    1.388   .     S
C391   O420    1.381   .     S
C392   O421    1.388   .     S
N417   Zn432   2.003   .     S
N418   Zn431   2.003   .     S
O419   Zn431   2.002   .     S
O423   Zn432   2.002   .     S
O424   Zn431   2.002   .     S
O425   Zn432   2.002   .     S
O426   Zn431   1.949   .     S
O427   Zn432   1.949   .     S
O428   Zn431   1.949   .     S
O429   Zn432   1.949   .     S
C433   O497    1.286   .     A
C433   C450    1.438   .     S
C433   O491    1.285   .     A
C434   C438    1.413   .     A
C434   C461    1.413   .     A
C434   O494    1.381   .     S
C435   O501    1.273   .     A
C435   C439    1.365   .     S
C435   O498    1.274   .     A
C436   O499    1.273   .     A
C436   C440    1.365   .     S
C436   O500    1.274   .     A
C437   C464    1.412   .     A
C437   C462    1.412   .     A
C438   C463    1.413   .     A
C438   C293    1.510   1_565 S
C440   C727    1.165   .     S
C441   C446    1.380   .     A
C441   C452    1.399   .     A
C441   H465    1.083   .     S
C442   C453    1.399   .     A
C442   C447    1.380   .     A
C442   H476    1.083   .     S
C443   C448    1.380   .     A
C443   H482    1.083   .     S
C443   C453    1.399   .     A
C444   C451    1.438   .     S
C444   O496    1.285   .     A
C444   O495    1.286   .     A
C445   C449    1.380   .     A
C445   H483    1.083   .     S
C445   C452    1.399   .     A
C446   C450    1.399   .     A
C446   H484    1.084   .     S
C447   H485    1.084   .     S
C447   C451    1.399   .     A
C448   C451    1.399   .     A
C448   H486    1.084   .     S
C449   C450    1.399   .     A
C449   H487    1.084   .     S
C452   C525    1.444   1_455 S
C453   C524    1.444   .     S
C454   H471    1.109   .     S
C454   O502    1.411   .     S
C454   H470    1.110   .     S
C454   H469    1.114   .     S
C455   C462    1.419   .     A
C455   H488    1.079   .     S
C455   N489    1.364   .     A
C456   H474    1.109   .     S
C456   H473    1.113   .     S
C456   O492    1.409   .     S
C456   H472    1.114   .     S
C457   H475    1.114   .     S
C457   O493    1.412   .     S
C457   H477    1.110   .     S
C457   H478    1.109   .     S
C458   H480    1.113   .     S
C458   O494    1.409   .     S
C458   H479    1.114   .     S
C458   H481    1.109   .     S
C459   H466    1.082   .     S
C459   C463    1.413   .     A
C459   N490    1.363   .     A
C460   N489    1.364   .     A
C460   C464    1.419   .     A
C460   H467    1.079   .     S
C461   N490    1.363   .     A
C461   H468    1.082   .     S
C462   O502    1.388   .     S
C463   O492    1.381   .     S
C464   O493    1.388   .     S
N489   Zn504   2.003   .     S
N490   Zn503   2.003   .     S
O491   Zn503   2.002   .     S
O495   Zn504   2.002   .     S
O496   Zn503   2.002   .     S
O497   Zn504   2.002   .     S
O498   Zn503   1.949   .     S
O499   Zn504   1.949   .     S
O500   Zn503   1.949   .     S
O501   Zn504   1.949   .     S
C505   O569    1.286   .     A
C505   C522    1.438   .     S
C505   O563    1.285   .     A
C506   C510    1.413   .     A
C506   C533    1.413   .     A
C506   O566    1.381   .     S
C507   O573    1.273   .     A
C507   C511    1.365   .     S
C507   O570    1.274   .     A
C508   O571    1.273   .     A
C508   C512    1.365   .     S
C508   O572    1.274   .     A
C509   C536    1.412   .     A
C509   C534    1.412   .     A
C510   C535    1.413   .     A
C510   C365    1.510   1_565 S
C512   C799    1.165   .     S
C513   C518    1.380   .     A
C513   C524    1.399   .     A
C513   H537    1.083   .     S
C514   C525    1.399   .     A
C514   C519    1.380   .     A
C514   H548    1.083   .     S
C515   C520    1.380   .     A
C515   H554    1.083   .     S
C515   C525    1.399   .     A
C516   C523    1.438   .     S
C516   O568    1.285   .     A
C516   O567    1.286   .     A
C517   C521    1.380   .     A
C517   H555    1.083   .     S
C517   C524    1.399   .     A
C518   C522    1.399   .     A
C518   H556    1.084   .     S
C519   H557    1.084   .     S
C519   C523    1.399   .     A
C520   C523    1.399   .     A
C520   H558    1.084   .     S
C521   C522    1.399   .     A
C521   H559    1.084   .     S
C525   C452    1.444   1_655 S
C526   H543    1.109   .     S
C526   O574    1.411   .     S
C526   H542    1.110   .     S
C526   H541    1.114   .     S
C527   C534    1.419   .     A
C527   H560    1.079   .     S
C527   N561    1.364   .     A
C528   H546    1.109   .     S
C528   H545    1.113   .     S
C528   O564    1.409   .     S
C528   H544    1.114   .     S
C529   H547    1.114   .     S
C529   O565    1.412   .     S
C529   H549    1.110   .     S
C529   H550    1.109   .     S
C530   H552    1.113   .     S
C530   O566    1.409   .     S
C530   H551    1.114   .     S
C530   H553    1.109   .     S
C531   H538    1.082   .     S
C531   C535    1.413   .     A
C531   N562    1.363   .     A
C532   N561    1.364   .     A
C532   C536    1.419   .     A
C532   H539    1.079   .     S
C533   N562    1.363   .     A
C533   H540    1.082   .     S
C534   O574    1.388   .     S
C535   O564    1.381   .     S
C536   O565    1.388   .     S
N561   Zn576   2.003   .     S
N562   Zn575   2.003   .     S
O563   Zn575   2.002   .     S
O567   Zn576   2.002   .     S
O568   Zn575   2.002   .     S
O569   Zn576   2.002   .     S
O570   Zn575   1.949   .     S
O571   Zn576   1.949   .     S
O572   Zn575   1.949   .     S
O573   Zn576   1.949   .     S
C577   O641    1.286   .     A
C577   C594    1.438   .     S
C577   O635    1.285   .     A
C578   C582    1.413   .     A
C578   C605    1.413   .     A
C578   O638    1.381   .     S
C579   O645    1.273   .     A
C579   C583    1.365   .     S
C579   O642    1.274   .     A
C580   O643    1.273   .     A
C580   C584    1.365   .     S
C580   O644    1.274   .     A
C581   C608    1.412   .     A
C581   C606    1.412   .     A
C581   C726    1.510   1_545 S
C582   C607    1.413   .     A
C582   C725    1.510   .     S
C584   C7      1.165   1_556 S
C585   C590    1.380   .     A
C585   C596    1.399   .     A
C585   H609    1.083   .     S
C586   C597    1.399   .     A
C586   C591    1.380   .     A
C586   H620    1.083   .     S
C587   C592    1.380   .     A
C587   H626    1.083   .     S
C587   C597    1.399   .     A
C588   C595    1.438   .     S
C588   O640    1.285   .     A
C588   O639    1.286   .     A
C589   C593    1.380   .     A
C589   H627    1.083   .     S
C589   C596    1.399   .     A
C590   C594    1.399   .     A
C590   H628    1.084   .     S
C591   H629    1.084   .     S
C591   C595    1.399   .     A
C592   C595    1.399   .     A
C592   H630    1.084   .     S
C593   C594    1.399   .     A
C593   H631    1.084   .     S
C596   C669    1.444   1_455 S
C597   C668    1.444   .     S
C598   H615    1.109   .     S
C598   O646    1.411   .     S
C598   H614    1.110   .     S
C598   H613    1.114   .     S
C599   C606    1.419   .     A
C599   H632    1.079   .     S
C599   N633    1.364   .     A
C600   H618    1.109   .     S
C600   H617    1.113   .     S
C600   O636    1.409   .     S
C600   H616    1.114   .     S
C601   H619    1.114   .     S
C601   O637    1.412   .     S
C601   H621    1.110   .     S
C601   H622    1.109   .     S
C602   H624    1.113   .     S
C602   O638    1.409   .     S
C602   H623    1.114   .     S
C602   H625    1.109   .     S
C603   H610    1.082   .     S
C603   C607    1.413   .     A
C603   N634    1.363   .     A
C604   N633    1.364   .     A
C604   C608    1.419   .     A
C604   H611    1.079   .     S
C605   N634    1.363   .     A
C605   H612    1.082   .     S
C606   O646    1.388   .     S
C607   O636    1.381   .     S
C608   O637    1.388   .     S
N633   Zn648   2.003   .     S
N634   Zn647   2.003   .     S
O635   Zn647   2.002   .     S
O639   Zn648   2.002   .     S
O640   Zn647   2.002   .     S
O641   Zn648   2.002   .     S
O642   Zn647   1.949   .     S
O643   Zn648   1.949   .     S
O644   Zn647   1.949   .     S
O645   Zn648   1.949   .     S
C649   O713    1.286   .     A
C649   C666    1.438   .     S
C649   O707    1.285   .     A
C650   C654    1.413   .     A
C650   C677    1.413   .     A
C650   O710    1.381   .     S
C651   O717    1.273   .     A
C651   C655    1.365   .     S
C651   O714    1.274   .     A
C652   O715    1.273   .     A
C652   C656    1.365   .     S
C652   O716    1.274   .     A
C653   C680    1.412   .     A
C653   C678    1.412   .     A
C653   C798    1.510   1_545 S
C654   C679    1.413   .     A
C654   C797    1.510   .     S
C656   C79     1.165   1_556 S
C657   C662    1.380   .     A
C657   C668    1.399   .     A
C657   H681    1.083   .     S
C658   C669    1.399   .     A
C658   C663    1.380   .     A
C658   H692    1.083   .     S
C659   C664    1.380   .     A
C659   H698    1.083   .     S
C659   C669    1.399   .     A
C660   C667    1.438   .     S
C660   O712    1.285   .     A
C660   O711    1.286   .     A
C661   C665    1.380   .     A
C661   H699    1.083   .     S
C661   C668    1.399   .     A
C662   C666    1.399   .     A
C662   H700    1.084   .     S
C663   H701    1.084   .     S
C663   C667    1.399   .     A
C664   C667    1.399   .     A
C664   H702    1.084   .     S
C665   C666    1.399   .     A
C665   H703    1.084   .     S
C669   C596    1.444   1_655 S
C670   H687    1.109   .     S
C670   O718    1.411   .     S
C670   H686    1.110   .     S
C670   H685    1.114   .     S
C671   C678    1.419   .     A
C671   H704    1.079   .     S
C671   N705    1.364   .     A
C672   H690    1.109   .     S
C672   H689    1.113   .     S
C672   O708    1.409   .     S
C672   H688    1.114   .     S
C673   H691    1.114   .     S
C673   O709    1.412   .     S
C673   H693    1.110   .     S
C673   H694    1.109   .     S
C674   H696    1.113   .     S
C674   O710    1.409   .     S
C674   H695    1.114   .     S
C674   H697    1.109   .     S
C675   H682    1.082   .     S
C675   C679    1.413   .     A
C675   N706    1.363   .     A
C676   N705    1.364   .     A
C676   C680    1.419   .     A
C676   H683    1.079   .     S
C677   N706    1.363   .     A
C677   H684    1.082   .     S
C678   O718    1.388   .     S
C679   O708    1.381   .     S
C680   O709    1.388   .     S
N705   Zn720   2.003   .     S
N706   Zn719   2.003   .     S
O707   Zn719   2.002   .     S
O711   Zn720   2.002   .     S
O712   Zn719   2.002   .     S
O713   Zn720   2.002   .     S
O714   Zn719   1.949   .     S
O715   Zn720   1.949   .     S
O716   Zn719   1.949   .     S
O717   Zn720   1.949   .     S
C721   O785    1.286   .     A
C721   C738    1.438   .     S
C721   O779    1.285   .     A
C722   C726    1.413   .     A
C722   C749    1.413   .     A
C722   O782    1.381   .     S
C723   O789    1.273   .     A
C723   C727    1.365   .     S
C723   O786    1.274   .     A
C724   O787    1.273   .     A
C724   C728    1.365   .     S
C724   O788    1.274   .     A
C725   C752    1.412   .     A
C725   C750    1.412   .     A
C726   C751    1.413   .     A
C726   C581    1.510   1_565 S
C728   C151    1.165   1_556 S
C729   C734    1.380   .     A
C729   C740    1.399   .     A
C729   H753    1.083   .     S
C730   C741    1.399   .     A
C730   C735    1.380   .     A
C730   H764    1.083   .     S
C731   C736    1.380   .     A
C731   H770    1.083   .     S
C731   C741    1.399   .     A
C732   C739    1.438   .     S
C732   O784    1.285   .     A
C732   O783    1.286   .     A
C733   C737    1.380   .     A
C733   H771    1.083   .     S
C733   C740    1.399   .     A
C734   C738    1.399   .     A
C734   H772    1.084   .     S
C735   H773    1.084   .     S
C735   C739    1.399   .     A
C736   C739    1.399   .     A
C736   H774    1.084   .     S
C737   C738    1.399   .     A
C737   H775    1.084   .     S
C740   C813    1.444   1_455 S
C741   C812    1.444   .     S
C742   H759    1.109   .     S
C742   O790    1.411   .     S
C742   H758    1.110   .     S
C742   H757    1.114   .     S
C743   C750    1.419   .     A
C743   H776    1.079   .     S
C743   N777    1.364   .     A
C744   H762    1.109   .     S
C744   H761    1.113   .     S
C744   O780    1.409   .     S
C744   H760    1.114   .     S
C745   H763    1.114   .     S
C745   O781    1.412   .     S
C745   H765    1.110   .     S
C745   H766    1.109   .     S
C746   H768    1.113   .     S
C746   O782    1.409   .     S
C746   H767    1.114   .     S
C746   H769    1.109   .     S
C747   H754    1.082   .     S
C747   C751    1.413   .     A
C747   N778    1.363   .     A
C748   N777    1.364   .     A
C748   C752    1.419   .     A
C748   H755    1.079   .     S
C749   N778    1.363   .     A
C749   H756    1.082   .     S
C750   O790    1.388   .     S
C751   O780    1.381   .     S
C752   O781    1.388   .     S
N777   Zn792   2.003   .     S
N778   Zn791   2.003   .     S
O779   Zn791   2.002   .     S
O783   Zn792   2.002   .     S
O784   Zn791   2.002   .     S
O785   Zn792   2.002   .     S
O786   Zn791   1.949   .     S
O787   Zn792   1.949   .     S
O788   Zn791   1.949   .     S
O789   Zn792   1.949   .     S
C793   O857    1.286   .     A
C793   C810    1.438   .     S
C793   O851    1.285   .     A
C794   C798    1.413   .     A
C794   C821    1.413   .     A
C794   O854    1.381   .     S
C795   O861    1.273   .     A
C795   C799    1.365   .     S
C795   O858    1.274   .     A
C796   O859    1.273   .     A
C796   C800    1.365   .     S
C796   O860    1.274   .     A
C797   C824    1.412   .     A
C797   C822    1.412   .     A
C798   C823    1.413   .     A
C798   C653    1.510   1_565 S
C800   C223    1.165   1_556 S
C801   C806    1.380   .     A
C801   C812    1.399   .     A
C801   H825    1.083   .     S
C802   C813    1.399   .     A
C802   C807    1.380   .     A
C802   H836    1.083   .     S
C803   C808    1.380   .     A
C803   H842    1.083   .     S
C803   C813    1.399   .     A
C804   C811    1.438   .     S
C804   O856    1.285   .     A
C804   O855    1.286   .     A
C805   C809    1.380   .     A
C805   H843    1.083   .     S
C805   C812    1.399   .     A
C806   C810    1.399   .     A
C806   H844    1.084   .     S
C807   H845    1.084   .     S
C807   C811    1.399   .     A
C808   C811    1.399   .     A
C808   H846    1.084   .     S
C809   C810    1.399   .     A
C809   H847    1.084   .     S
C813   C740    1.444   1_655 S
C814   H831    1.109   .     S
C814   O862    1.411   .     S
C814   H830    1.110   .     S
C814   H829    1.114   .     S
C815   C822    1.419   .     A
C815   H848    1.079   .     S
C815   N849    1.364   .     A
C816   H834    1.109   .     S
C816   H833    1.113   .     S
C816   O852    1.409   .     S
C816   H832    1.114   .     S
C817   H835    1.114   .     S
C817   O853    1.412   .     S
C817   H837    1.110   .     S
C817   H838    1.109   .     S
C818   H840    1.113   .     S
C818   O854    1.409   .     S
C818   H839    1.114   .     S
C818   H841    1.109   .     S
C819   H826    1.082   .     S
C819   C823    1.413   .     A
C819   N850    1.363   .     A
C820   N849    1.364   .     A
C820   C824    1.419   .     A
C820   H827    1.079   .     S
C821   N850    1.363   .     A
C821   H828    1.082   .     S
C822   O862    1.388   .     S
C823   O852    1.381   .     S
C824   O853    1.388   .     S
N849   Zn864   2.003   .     S
N850   Zn863   2.003   .     S
O851   Zn863   2.002   .     S
O855   Zn864   2.002   .     S
O856   Zn863   2.002   .     S
O857   Zn864   2.002   .     S
O858   Zn863   1.949   .     S
O859   Zn864   1.949   .     S
O860   Zn863   1.949   .     S
O861   Zn864   1.949   .     S
