data_str_m1_o10_o18_pcu_sym.34
_audit_creation_date              2020-01-03
_audit_creation_method            'Materials Studio'
_symmetry_space_group_name_H-M    'P1'
_symmetry_Int_Tables_number       1
_symmetry_cell_setting            triclinic
loop_
_symmetry_equiv_pos_as_xyz
  x,y,z
_cell_length_a                    32.6693
_cell_length_b                    32.6169
_cell_length_c                    35.2515
_cell_angle_alpha                 98.8700
_cell_angle_beta                  73.3845
_cell_angle_gamma                 98.8765
loop_
_atom_site_label
_atom_site_type_symbol
_atom_site_fract_x
_atom_site_fract_y
_atom_site_fract_z
_atom_site_U_iso_or_equiv
_atom_site_adp_type
_atom_site_occupancy
C1     C     0.05288   0.16021   0.25790   0.00000  Uiso   1.00
C2     C     0.17504   0.11273   0.46322   0.00000  Uiso   1.00
C3     C     0.19246   0.08918   0.48294   0.00000  Uiso   1.00
C4     C     0.28089   0.17334   0.24161   0.00000  Uiso   1.00
C5     C     0.19328   0.10152   0.02271   0.00000  Uiso   1.00
C6     C     0.17356   0.13755   0.04280   0.00000  Uiso   1.00
C7     C     0.21328   0.07899   0.04283   0.00000  Uiso   1.00
C8     C     0.21317   0.09348   0.08318   0.00000  Uiso   1.00
C9     C     0.18135   0.15483   0.07923   0.00000  Uiso   1.00
C10    C     0.32622   0.17583   0.24008   0.00000  Uiso   1.00
C11    C     0.00734   0.15507   0.26327   0.00000  Uiso   1.00
C12    C     0.11162   0.22992   0.42300   0.00000  Uiso   1.00
C13    C     0.18565   0.32351   0.24540   0.00000  Uiso   1.00
C14    C     0.15092   0.01153   0.25849   0.00000  Uiso   1.00
C15    C     0.15568   0.05603   0.25854   0.00000  Uiso   1.00
C16    C     0.17792   0.27795   0.24267   0.00000  Uiso   1.00
C17    C     0.18828   0.14458   0.14376   0.00000  Uiso   1.00
C18    C     0.14604   0.18869   0.35654   0.00000  Uiso   1.00
C19    C     0.13565   0.19727   0.40083   0.00000  Uiso   1.00
C20    C     0.19744   0.13204   0.10071   0.00000  Uiso   1.00
C21    C     0.09682   0.23177   0.46514   0.00000  Uiso   1.00
C22    C     0.23240   0.03878   0.02212   0.00000  Uiso   1.00
C23    C     0.14940   0.17082   0.42110   0.00000  Uiso   1.00
C24    C     0.19690   0.00194   0.02239   0.00000  Uiso   1.00
C25    C     0.21530   0.29502   0.00116   0.00000  Uiso   1.00
C26    C     0.31273   0.12562   0.29307   0.00000  Uiso   1.00
C27    C     0.00423   0.10396   0.31387   0.00000  Uiso   1.00
C28    C     0.30692   0.07588   0.34327   0.00000  Uiso   1.00
C29    C     0.23135   0.01371   0.23705   0.00000  Uiso   1.00
C30    C     0.26905   0.32041   0.22255   0.00000  Uiso   1.00
C31    C     0.31210   0.01405   0.22039   0.00000  Uiso   1.00
C32    C     0.23015   0.06842   0.10734   0.00000  Uiso   1.00
C33    C     0.27903   0.07890   0.10043   0.00000  Uiso   1.00
C34    C     0.13827   0.17390   0.46296   0.00000  Uiso   1.00
C35    C     0.29775   0.04607   0.11484   0.00000  Uiso   1.00
C36    C     0.06495   0.26242   0.48817   0.00000  Uiso   1.00
C37    C     0.08764   0.30230   0.00604   0.00000  Uiso   1.00
C38    C     0.05560   0.33242   0.02997   0.00000  Uiso   1.00
C39    C     0.09049   0.17829   0.09104   0.00000  Uiso   1.00
C40    C     0.07252   0.13317   0.09938   0.00000  Uiso   1.00
C41    C     0.04777   0.13170   0.14312   0.00000  Uiso   1.00
C42    C     0.11137   0.20438   0.48516   0.00000  Uiso   1.00
C43    C     0.15423   0.14791   0.48320   0.00000  Uiso   1.00
C44    C     0.14815   0.15651   0.02504   0.00000  Uiso   1.00
C45    C     0.11492   0.18142   0.04726   0.00000  Uiso   1.00
C46    C     0.09887   0.20615   0.02697   0.00000  Uiso   1.00
H47    H     0.07608   0.22684   0.04479   0.00000  Uiso   1.00
H48    H     0.17916   0.33040   0.05365   0.00000  Uiso   1.00
H49    H     0.17363   0.00882   0.00738   0.00000  Uiso   1.00
H50    H     0.25198   0.04302   0.49130   0.00000  Uiso   1.00
H51    H     0.25589   0.03058   0.03608   0.00000  Uiso   1.00
H52    H     0.28451   0.09462   0.36686   0.00000  Uiso   1.00
H53    H     0.28805   0.05133   0.32756   0.00000  Uiso   1.00
H54    H     0.32569   0.06047   0.35758   0.00000  Uiso   1.00
H55    H     0.02681   0.08440   0.29135   0.00000  Uiso   1.00
H56    H     0.02295   0.12780   0.33042   0.00000  Uiso   1.00
H57    H     0.28990   0.14392   0.31674   0.00000  Uiso   1.00
H58    H     0.01555   0.19542   0.21923   0.00000  Uiso   1.00
H59    H     0.29454   0.10064   0.27705   0.00000  Uiso   1.00
H60    H     0.31642   0.03927   0.20124   0.00000  Uiso   1.00
H61    H     0.31384   0.02822   0.25068   0.00000  Uiso   1.00
H62    H     0.00542   0.32768   0.20763   0.00000  Uiso   1.00
H63    H     0.26545   0.29697   0.24342   0.00000  Uiso   1.00
H64    H     0.26978   0.30422   0.19226   0.00000  Uiso   1.00
H65    H     0.23490   0.03523   0.21444   0.00000  Uiso   1.00
H66    H     0.23474   0.03287   0.26517   0.00000  Uiso   1.00
H67    H     0.29035   0.01461   0.09941   0.00000  Uiso   1.00
H68    H     0.33320   0.05331   0.10807   0.00000  Uiso   1.00
H69    H     0.17422   0.18602   0.09175   0.00000  Uiso   1.00
H70    H     0.28422   0.04573   0.14747   0.00000  Uiso   1.00
H71    H     0.29534   0.08064   0.06832   0.00000  Uiso   1.00
H72    H     0.28608   0.10998   0.11678   0.00000  Uiso   1.00
H73    H     0.21474   0.07425   0.13976   0.00000  Uiso   1.00
H74    H     0.22113   0.03449   0.10009   0.00000  Uiso   1.00
H75    H     0.03785   0.00828   0.01063   0.00000  Uiso   1.00
H76    H     0.03230   0.31759   0.05515   0.00000  Uiso   1.00
H77    H     0.07308   0.02766   0.04222   0.00000  Uiso   1.00
H78    H     0.10543   0.29441   0.02596   0.00000  Uiso   1.00
H79    H     0.11113   0.31821   0.48166   0.00000  Uiso   1.00
H80    H     0.20624   0.06188   0.46573   0.00000  Uiso   1.00
H81    H     0.04675   0.27087   0.46895   0.00000  Uiso   1.00
H82    H     0.03918   0.24734   0.01156   0.00000  Uiso   1.00
H83    H     0.06843   0.14684   0.16268   0.00000  Uiso   1.00
H84    H     0.01855   0.14794   0.15017   0.00000  Uiso   1.00
H85    H     0.03786   0.09880   0.14939   0.00000  Uiso   1.00
H86    H     0.05063   0.11999   0.08036   0.00000  Uiso   1.00
H87    H     0.09875   0.11308   0.09249   0.00000  Uiso   1.00
H88    H     0.10959   0.19326   0.11173   0.00000  Uiso   1.00
H89    H     0.06238   0.19641   0.09957   0.00000  Uiso   1.00
H90    H     0.17033   0.14860   0.40322   0.00000  Uiso   1.00
H91    H     0.17644   0.10102   0.43264   0.00000  Uiso   1.00
H92    H     0.23235   0.29878   0.46955   0.00000  Uiso   1.00
H93    H     0.23799   0.28671   0.01618   0.00000  Uiso   1.00
H94    H     0.18874   0.26913   0.00196   0.00000  Uiso   1.00
I95    I     0.08486   0.31829   0.26607   0.00000  Uiso   1.00
I96    I     0.10294   0.28067   0.39439   0.00000  Uiso   1.00
O97    O     0.16667   0.16667   0.25000   0.00000  Uiso   1.00
O98    O     0.15693   0.12393   0.16625   0.00000  Uiso   1.00
O99    O     0.12687   0.20646   0.33749   0.00000  Uiso   1.00
O100   O     0.21088   0.17493   0.15877   0.00000  Uiso   1.00
O101   O     0.17198   0.16135   0.33749   0.00000  Uiso   1.00
O102   O     0.17849   0.08101   0.27820   0.00000  Uiso   1.00
O103   O     0.14581   0.26136   0.26767   0.00000  Uiso   1.00
O104   O     0.07452   0.13251   0.23607   0.00000  Uiso   1.00
O105   O     0.26785   0.19179   0.21805   0.00000  Uiso   1.00
O106   O     0.06990   0.18960   0.27820   0.00000  Uiso   1.00
O107   O     0.25440   0.15277   0.26767   0.00000  Uiso   1.00
O108   O     0.13800   0.06903   0.23607   0.00000  Uiso   1.00
O109   O     0.20437   0.25527   0.21805   0.00000  Uiso   1.00
Zn110  Zn    0.19244   0.14090   0.28277   0.00000  Uiso   1.00
Zn111  Zn    0.13459   0.12378   0.22257   0.00000  Uiso   1.00
Zn112  Zn    0.21166   0.19664   0.21188   0.00000  Uiso   1.00
Zn113  Zn    0.12798   0.20535   0.28277   0.00000  Uiso   1.00
C114   C     0.38621   0.16021   0.25790   0.00000  Uiso   1.00
C115   C     0.50838   0.11273   0.46322   0.00000  Uiso   1.00
C116   C     0.52579   0.08918   0.48294   0.00000  Uiso   1.00
C117   C     0.61422   0.17334   0.24161   0.00000  Uiso   1.00
C118   C     0.52661   0.10152   0.02271   0.00000  Uiso   1.00
C119   C     0.50689   0.13755   0.04280   0.00000  Uiso   1.00
C120   C     0.54661   0.07899   0.04283   0.00000  Uiso   1.00
C121   C     0.54650   0.09348   0.08318   0.00000  Uiso   1.00
C122   C     0.51469   0.15483   0.07923   0.00000  Uiso   1.00
C123   C     0.65955   0.17583   0.24008   0.00000  Uiso   1.00
C124   C     0.34067   0.15507   0.26327   0.00000  Uiso   1.00
C125   C     0.44495   0.22992   0.42300   0.00000  Uiso   1.00
C126   C     0.51899   0.32351   0.24540   0.00000  Uiso   1.00
C127   C     0.48425   0.01153   0.25849   0.00000  Uiso   1.00
C128   C     0.48901   0.05603   0.25854   0.00000  Uiso   1.00
C129   C     0.51125   0.27795   0.24267   0.00000  Uiso   1.00
C130   C     0.52162   0.14458   0.14376   0.00000  Uiso   1.00
C131   C     0.47937   0.18869   0.35654   0.00000  Uiso   1.00
C132   C     0.46898   0.19727   0.40083   0.00000  Uiso   1.00
C133   C     0.53077   0.13204   0.10071   0.00000  Uiso   1.00
C134   C     0.43015   0.23177   0.46514   0.00000  Uiso   1.00
C135   C     0.56574   0.03878   0.02212   0.00000  Uiso   1.00
C136   C     0.48274   0.17082   0.42110   0.00000  Uiso   1.00
C137   C     0.53023   0.00194   0.02239   0.00000  Uiso   1.00
C138   C     0.54863   0.29502   0.00116   0.00000  Uiso   1.00
C139   C     0.64606   0.12562   0.29307   0.00000  Uiso   1.00
C140   C     0.33756   0.10396   0.31387   0.00000  Uiso   1.00
C141   C     0.64026   0.07588   0.34327   0.00000  Uiso   1.00
C142   C     0.56469   0.01371   0.23705   0.00000  Uiso   1.00
C143   C     0.60239   0.32041   0.22255   0.00000  Uiso   1.00
C144   C     0.64543   0.01405   0.22039   0.00000  Uiso   1.00
C145   C     0.56348   0.06842   0.10734   0.00000  Uiso   1.00
C146   C     0.61236   0.07890   0.10043   0.00000  Uiso   1.00
C147   C     0.47161   0.17390   0.46296   0.00000  Uiso   1.00
C148   C     0.63109   0.04607   0.11484   0.00000  Uiso   1.00
C149   C     0.39828   0.26242   0.48817   0.00000  Uiso   1.00
C150   C     0.42097   0.30230   0.00604   0.00000  Uiso   1.00
C151   C     0.38893   0.33242   0.02997   0.00000  Uiso   1.00
C152   C     0.42383   0.17829   0.09104   0.00000  Uiso   1.00
C153   C     0.40585   0.13317   0.09938   0.00000  Uiso   1.00
C154   C     0.38110   0.13170   0.14312   0.00000  Uiso   1.00
C155   C     0.44471   0.20438   0.48516   0.00000  Uiso   1.00
C156   C     0.48757   0.14791   0.48320   0.00000  Uiso   1.00
C157   C     0.48148   0.15651   0.02504   0.00000  Uiso   1.00
C158   C     0.44826   0.18142   0.04726   0.00000  Uiso   1.00
C159   C     0.43221   0.20615   0.02697   0.00000  Uiso   1.00
H160   H     0.40941   0.22684   0.04479   0.00000  Uiso   1.00
H161   H     0.51249   0.33040   0.05365   0.00000  Uiso   1.00
H162   H     0.50696   0.00882   0.00738   0.00000  Uiso   1.00
H163   H     0.58532   0.04302   0.49130   0.00000  Uiso   1.00
H164   H     0.58923   0.03058   0.03608   0.00000  Uiso   1.00
H165   H     0.61784   0.09462   0.36686   0.00000  Uiso   1.00
H166   H     0.62138   0.05133   0.32756   0.00000  Uiso   1.00
H167   H     0.65902   0.06047   0.35758   0.00000  Uiso   1.00
H168   H     0.36014   0.08440   0.29135   0.00000  Uiso   1.00
H169   H     0.35629   0.12780   0.33042   0.00000  Uiso   1.00
H170   H     0.62324   0.14392   0.31674   0.00000  Uiso   1.00
H171   H     0.34889   0.19542   0.21923   0.00000  Uiso   1.00
H172   H     0.62788   0.10064   0.27705   0.00000  Uiso   1.00
H173   H     0.64975   0.03927   0.20124   0.00000  Uiso   1.00
H174   H     0.64718   0.02822   0.25068   0.00000  Uiso   1.00
H175   H     0.33875   0.32768   0.20763   0.00000  Uiso   1.00
H176   H     0.59879   0.29697   0.24342   0.00000  Uiso   1.00
H177   H     0.60312   0.30422   0.19226   0.00000  Uiso   1.00
H178   H     0.56823   0.03523   0.21444   0.00000  Uiso   1.00
H179   H     0.56807   0.03287   0.26517   0.00000  Uiso   1.00
H180   H     0.62368   0.01461   0.09941   0.00000  Uiso   1.00
H181   H     0.66654   0.05331   0.10807   0.00000  Uiso   1.00
H182   H     0.50756   0.18602   0.09175   0.00000  Uiso   1.00
H183   H     0.61755   0.04573   0.14747   0.00000  Uiso   1.00
H184   H     0.62867   0.08064   0.06832   0.00000  Uiso   1.00
H185   H     0.61941   0.10998   0.11678   0.00000  Uiso   1.00
H186   H     0.54807   0.07425   0.13976   0.00000  Uiso   1.00
H187   H     0.55447   0.03449   0.10009   0.00000  Uiso   1.00
H188   H     0.37118   0.00828   0.01063   0.00000  Uiso   1.00
H189   H     0.36564   0.31759   0.05515   0.00000  Uiso   1.00
H190   H     0.40641   0.02766   0.04222   0.00000  Uiso   1.00
H191   H     0.43876   0.29441   0.02596   0.00000  Uiso   1.00
H192   H     0.44446   0.31821   0.48166   0.00000  Uiso   1.00
H193   H     0.53958   0.06188   0.46573   0.00000  Uiso   1.00
H194   H     0.38008   0.27087   0.46895   0.00000  Uiso   1.00
H195   H     0.37251   0.24734   0.01156   0.00000  Uiso   1.00
H196   H     0.40177   0.14684   0.16268   0.00000  Uiso   1.00
H197   H     0.35188   0.14794   0.15017   0.00000  Uiso   1.00
H198   H     0.37120   0.09880   0.14939   0.00000  Uiso   1.00
H199   H     0.38396   0.11999   0.08036   0.00000  Uiso   1.00
H200   H     0.43208   0.11308   0.09249   0.00000  Uiso   1.00
H201   H     0.44293   0.19326   0.11173   0.00000  Uiso   1.00
H202   H     0.39571   0.19641   0.09957   0.00000  Uiso   1.00
H203   H     0.50367   0.14860   0.40322   0.00000  Uiso   1.00
H204   H     0.50977   0.10102   0.43264   0.00000  Uiso   1.00
H205   H     0.56568   0.29878   0.46955   0.00000  Uiso   1.00
H206   H     0.57132   0.28671   0.01618   0.00000  Uiso   1.00
H207   H     0.52207   0.26913   0.00196   0.00000  Uiso   1.00
I208   I     0.41820   0.31829   0.26607   0.00000  Uiso   1.00
I209   I     0.43628   0.28067   0.39439   0.00000  Uiso   1.00
O210   O     0.50000   0.16667   0.25000   0.00000  Uiso   1.00
O211   O     0.49027   0.12393   0.16625   0.00000  Uiso   1.00
O212   O     0.46020   0.20646   0.33749   0.00000  Uiso   1.00
O213   O     0.54421   0.17493   0.15877   0.00000  Uiso   1.00
O214   O     0.50532   0.16135   0.33749   0.00000  Uiso   1.00
O215   O     0.51182   0.08101   0.27820   0.00000  Uiso   1.00
O216   O     0.47914   0.26136   0.26767   0.00000  Uiso   1.00
O217   O     0.40785   0.13251   0.23607   0.00000  Uiso   1.00
O218   O     0.60119   0.19179   0.21805   0.00000  Uiso   1.00
O219   O     0.40323   0.18960   0.27820   0.00000  Uiso   1.00
O220   O     0.58773   0.15277   0.26767   0.00000  Uiso   1.00
O221   O     0.47133   0.06903   0.23607   0.00000  Uiso   1.00
O222   O     0.53771   0.25527   0.21805   0.00000  Uiso   1.00
Zn223  Zn    0.52577   0.14090   0.28277   0.00000  Uiso   1.00
Zn224  Zn    0.46792   0.12378   0.22257   0.00000  Uiso   1.00
Zn225  Zn    0.54500   0.19664   0.21188   0.00000  Uiso   1.00
Zn226  Zn    0.46131   0.20535   0.28277   0.00000  Uiso   1.00
C227   C     0.71955   0.16021   0.25790   0.00000  Uiso   1.00
C228   C     0.84171   0.11273   0.46322   0.00000  Uiso   1.00
C229   C     0.85913   0.08918   0.48294   0.00000  Uiso   1.00
C230   C     0.94755   0.17334   0.24161   0.00000  Uiso   1.00
C231   C     0.85994   0.10152   0.02271   0.00000  Uiso   1.00
C232   C     0.84023   0.13755   0.04280   0.00000  Uiso   1.00
C233   C     0.87995   0.07899   0.04283   0.00000  Uiso   1.00
C234   C     0.87983   0.09348   0.08318   0.00000  Uiso   1.00
C235   C     0.84802   0.15483   0.07923   0.00000  Uiso   1.00
C236   C     0.99288   0.17583   0.24008   0.00000  Uiso   1.00
C237   C     0.67401   0.15507   0.26327   0.00000  Uiso   1.00
C238   C     0.77828   0.22992   0.42300   0.00000  Uiso   1.00
C239   C     0.85232   0.32351   0.24540   0.00000  Uiso   1.00
C240   C     0.81758   0.01153   0.25849   0.00000  Uiso   1.00
C241   C     0.82234   0.05603   0.25854   0.00000  Uiso   1.00
C242   C     0.84458   0.27795   0.24267   0.00000  Uiso   1.00
C243   C     0.85495   0.14458   0.14376   0.00000  Uiso   1.00
C244   C     0.81270   0.18869   0.35654   0.00000  Uiso   1.00
C245   C     0.80232   0.19727   0.40083   0.00000  Uiso   1.00
C246   C     0.86410   0.13204   0.10071   0.00000  Uiso   1.00
C247   C     0.76349   0.23177   0.46514   0.00000  Uiso   1.00
C248   C     0.89907   0.03878   0.02212   0.00000  Uiso   1.00
C249   C     0.81607   0.17082   0.42110   0.00000  Uiso   1.00
C250   C     0.86356   0.00194   0.02239   0.00000  Uiso   1.00
C251   C     0.88196   0.29502   0.00116   0.00000  Uiso   1.00
C252   C     0.97939   0.12562   0.29307   0.00000  Uiso   1.00
C253   C     0.67090   0.10396   0.31387   0.00000  Uiso   1.00
C254   C     0.97359   0.07588   0.34327   0.00000  Uiso   1.00
C255   C     0.89802   0.01371   0.23705   0.00000  Uiso   1.00
C256   C     0.93572   0.32041   0.22255   0.00000  Uiso   1.00
C257   C     0.97877   0.01405   0.22039   0.00000  Uiso   1.00
C258   C     0.89682   0.06842   0.10734   0.00000  Uiso   1.00
C259   C     0.94570   0.07890   0.10043   0.00000  Uiso   1.00
C260   C     0.80494   0.17390   0.46296   0.00000  Uiso   1.00
C261   C     0.96442   0.04607   0.11484   0.00000  Uiso   1.00
C262   C     0.73161   0.26242   0.48817   0.00000  Uiso   1.00
C263   C     0.75430   0.30230   0.00604   0.00000  Uiso   1.00
C264   C     0.72226   0.33242   0.02997   0.00000  Uiso   1.00
C265   C     0.75716   0.17829   0.09104   0.00000  Uiso   1.00
C266   C     0.73918   0.13317   0.09938   0.00000  Uiso   1.00
C267   C     0.71444   0.13170   0.14312   0.00000  Uiso   1.00
C268   C     0.77804   0.20438   0.48516   0.00000  Uiso   1.00
C269   C     0.82090   0.14791   0.48320   0.00000  Uiso   1.00
C270   C     0.81482   0.15651   0.02504   0.00000  Uiso   1.00
C271   C     0.78159   0.18142   0.04726   0.00000  Uiso   1.00
C272   C     0.76554   0.20615   0.02697   0.00000  Uiso   1.00
H273   H     0.74274   0.22684   0.04479   0.00000  Uiso   1.00
H274   H     0.84583   0.33040   0.05365   0.00000  Uiso   1.00
H275   H     0.84029   0.00882   0.00738   0.00000  Uiso   1.00
H276   H     0.91865   0.04302   0.49130   0.00000  Uiso   1.00
H277   H     0.92256   0.03058   0.03608   0.00000  Uiso   1.00
H278   H     0.95117   0.09462   0.36686   0.00000  Uiso   1.00
H279   H     0.95472   0.05133   0.32756   0.00000  Uiso   1.00
H280   H     0.99236   0.06047   0.35758   0.00000  Uiso   1.00
H281   H     0.69348   0.08440   0.29135   0.00000  Uiso   1.00
H282   H     0.68962   0.12780   0.33042   0.00000  Uiso   1.00
H283   H     0.95657   0.14392   0.31674   0.00000  Uiso   1.00
H284   H     0.68222   0.19542   0.21923   0.00000  Uiso   1.00
H285   H     0.96121   0.10064   0.27705   0.00000  Uiso   1.00
H286   H     0.98309   0.03927   0.20124   0.00000  Uiso   1.00
H287   H     0.98051   0.02822   0.25068   0.00000  Uiso   1.00
H288   H     0.67209   0.32768   0.20763   0.00000  Uiso   1.00
H289   H     0.93212   0.29697   0.24342   0.00000  Uiso   1.00
H290   H     0.93645   0.30422   0.19226   0.00000  Uiso   1.00
H291   H     0.90156   0.03523   0.21444   0.00000  Uiso   1.00
H292   H     0.90141   0.03287   0.26517   0.00000  Uiso   1.00
H293   H     0.95701   0.01461   0.09941   0.00000  Uiso   1.00
H294   H     0.99987   0.05331   0.10807   0.00000  Uiso   1.00
H295   H     0.84089   0.18602   0.09175   0.00000  Uiso   1.00
H296   H     0.95088   0.04573   0.14747   0.00000  Uiso   1.00
H297   H     0.96201   0.08064   0.06832   0.00000  Uiso   1.00
H298   H     0.95274   0.10998   0.11678   0.00000  Uiso   1.00
H299   H     0.88140   0.07425   0.13976   0.00000  Uiso   1.00
H300   H     0.88780   0.03449   0.10009   0.00000  Uiso   1.00
H301   H     0.70451   0.00828   0.01063   0.00000  Uiso   1.00
H302   H     0.69897   0.31759   0.05515   0.00000  Uiso   1.00
H303   H     0.73975   0.02766   0.04222   0.00000  Uiso   1.00
H304   H     0.77210   0.29441   0.02596   0.00000  Uiso   1.00
H305   H     0.77779   0.31821   0.48166   0.00000  Uiso   1.00
H306   H     0.87291   0.06188   0.46573   0.00000  Uiso   1.00
H307   H     0.71342   0.27087   0.46895   0.00000  Uiso   1.00
H308   H     0.70584   0.24734   0.01156   0.00000  Uiso   1.00
H309   H     0.73510   0.14684   0.16268   0.00000  Uiso   1.00
H310   H     0.68522   0.14794   0.15017   0.00000  Uiso   1.00
H311   H     0.70453   0.09880   0.14939   0.00000  Uiso   1.00
H312   H     0.71729   0.11999   0.08036   0.00000  Uiso   1.00
H313   H     0.76542   0.11308   0.09249   0.00000  Uiso   1.00
H314   H     0.77626   0.19326   0.11173   0.00000  Uiso   1.00
H315   H     0.72905   0.19641   0.09957   0.00000  Uiso   1.00
H316   H     0.83700   0.14860   0.40322   0.00000  Uiso   1.00
H317   H     0.84310   0.10102   0.43264   0.00000  Uiso   1.00
H318   H     0.89902   0.29878   0.46955   0.00000  Uiso   1.00
H319   H     0.90465   0.28671   0.01618   0.00000  Uiso   1.00
H320   H     0.85541   0.26913   0.00196   0.00000  Uiso   1.00
I321   I     0.75153   0.31829   0.26607   0.00000  Uiso   1.00
I322   I     0.76961   0.28067   0.39439   0.00000  Uiso   1.00
O323   O     0.83333   0.16667   0.25000   0.00000  Uiso   1.00
O324   O     0.82360   0.12393   0.16625   0.00000  Uiso   1.00
O325   O     0.79354   0.20646   0.33749   0.00000  Uiso   1.00
O326   O     0.87755   0.17493   0.15877   0.00000  Uiso   1.00
O327   O     0.83865   0.16135   0.33749   0.00000  Uiso   1.00
O328   O     0.84515   0.08101   0.27820   0.00000  Uiso   1.00
O329   O     0.81247   0.26136   0.26767   0.00000  Uiso   1.00
O330   O     0.74119   0.13251   0.23607   0.00000  Uiso   1.00
O331   O     0.93452   0.19179   0.21805   0.00000  Uiso   1.00
O332   O     0.73656   0.18960   0.27820   0.00000  Uiso   1.00
O333   O     0.92106   0.15277   0.26767   0.00000  Uiso   1.00
O334   O     0.80467   0.06903   0.23607   0.00000  Uiso   1.00
O335   O     0.87104   0.25527   0.21805   0.00000  Uiso   1.00
Zn336  Zn    0.85910   0.14090   0.28277   0.00000  Uiso   1.00
Zn337  Zn    0.80125   0.12378   0.22257   0.00000  Uiso   1.00
Zn338  Zn    0.87833   0.19664   0.21188   0.00000  Uiso   1.00
Zn339  Zn    0.79465   0.20535   0.28277   0.00000  Uiso   1.00
C340   C     0.05288   0.49355   0.25790   0.00000  Uiso   1.00
C341   C     0.17504   0.44606   0.46322   0.00000  Uiso   1.00
C342   C     0.19246   0.42251   0.48294   0.00000  Uiso   1.00
C343   C     0.28089   0.50668   0.24161   0.00000  Uiso   1.00
C344   C     0.19328   0.43485   0.02271   0.00000  Uiso   1.00
C345   C     0.17356   0.47088   0.04280   0.00000  Uiso   1.00
C346   C     0.21328   0.41233   0.04283   0.00000  Uiso   1.00
C347   C     0.21317   0.42681   0.08318   0.00000  Uiso   1.00
C348   C     0.18135   0.48816   0.07923   0.00000  Uiso   1.00
C349   C     0.32622   0.50916   0.24008   0.00000  Uiso   1.00
C350   C     0.00734   0.48840   0.26327   0.00000  Uiso   1.00
C351   C     0.11162   0.56325   0.42300   0.00000  Uiso   1.00
C352   C     0.18565   0.65685   0.24540   0.00000  Uiso   1.00
C353   C     0.15092   0.34486   0.25849   0.00000  Uiso   1.00
C354   C     0.15568   0.38937   0.25854   0.00000  Uiso   1.00
C355   C     0.17792   0.61129   0.24267   0.00000  Uiso   1.00
C356   C     0.18828   0.47792   0.14376   0.00000  Uiso   1.00
C357   C     0.14604   0.52202   0.35654   0.00000  Uiso   1.00
C358   C     0.13565   0.53060   0.40083   0.00000  Uiso   1.00
C359   C     0.19744   0.46538   0.10071   0.00000  Uiso   1.00
C360   C     0.09682   0.56510   0.46514   0.00000  Uiso   1.00
C361   C     0.23240   0.37211   0.02212   0.00000  Uiso   1.00
C362   C     0.14940   0.50415   0.42110   0.00000  Uiso   1.00
C363   C     0.19690   0.33527   0.02239   0.00000  Uiso   1.00
C364   C     0.21530   0.62835   0.00116   0.00000  Uiso   1.00
C365   C     0.31273   0.45896   0.29307   0.00000  Uiso   1.00
C366   C     0.00423   0.43729   0.31387   0.00000  Uiso   1.00
C367   C     0.30692   0.40921   0.34327   0.00000  Uiso   1.00
C368   C     0.23135   0.34704   0.23705   0.00000  Uiso   1.00
C369   C     0.26905   0.65375   0.22255   0.00000  Uiso   1.00
C370   C     0.31210   0.34739   0.22039   0.00000  Uiso   1.00
C371   C     0.23015   0.40175   0.10734   0.00000  Uiso   1.00
C372   C     0.27903   0.41224   0.10043   0.00000  Uiso   1.00
C373   C     0.13827   0.50724   0.46296   0.00000  Uiso   1.00
C374   C     0.29775   0.37940   0.11484   0.00000  Uiso   1.00
C375   C     0.06495   0.59575   0.48817   0.00000  Uiso   1.00
C376   C     0.08764   0.63563   0.00604   0.00000  Uiso   1.00
C377   C     0.05560   0.66575   0.02997   0.00000  Uiso   1.00
C378   C     0.09049   0.51162   0.09104   0.00000  Uiso   1.00
C379   C     0.07252   0.46650   0.09938   0.00000  Uiso   1.00
C380   C     0.04777   0.46503   0.14312   0.00000  Uiso   1.00
C381   C     0.11137   0.53771   0.48516   0.00000  Uiso   1.00
C382   C     0.15423   0.48124   0.48320   0.00000  Uiso   1.00
C383   C     0.14815   0.48984   0.02504   0.00000  Uiso   1.00
C384   C     0.11492   0.51475   0.04726   0.00000  Uiso   1.00
C385   C     0.09887   0.53949   0.02697   0.00000  Uiso   1.00
H386   H     0.07608   0.56018   0.04479   0.00000  Uiso   1.00
H387   H     0.17916   0.66374   0.05365   0.00000  Uiso   1.00
H388   H     0.17363   0.34215   0.00738   0.00000  Uiso   1.00
H389   H     0.25198   0.37636   0.49130   0.00000  Uiso   1.00
H390   H     0.25589   0.36392   0.03608   0.00000  Uiso   1.00
H391   H     0.28451   0.42795   0.36686   0.00000  Uiso   1.00
H392   H     0.28805   0.38466   0.32756   0.00000  Uiso   1.00
H393   H     0.32569   0.39380   0.35758   0.00000  Uiso   1.00
H394   H     0.02681   0.41774   0.29135   0.00000  Uiso   1.00
H395   H     0.02295   0.46113   0.33042   0.00000  Uiso   1.00
H396   H     0.28990   0.47725   0.31674   0.00000  Uiso   1.00
H397   H     0.01555   0.52875   0.21923   0.00000  Uiso   1.00
H398   H     0.29454   0.43398   0.27705   0.00000  Uiso   1.00
H399   H     0.31642   0.37260   0.20124   0.00000  Uiso   1.00
H400   H     0.31384   0.36156   0.25068   0.00000  Uiso   1.00
H401   H     0.00542   0.66102   0.20763   0.00000  Uiso   1.00
H402   H     0.26545   0.63031   0.24342   0.00000  Uiso   1.00
H403   H     0.26978   0.63755   0.19226   0.00000  Uiso   1.00
H404   H     0.23490   0.36856   0.21444   0.00000  Uiso   1.00
H405   H     0.23474   0.36620   0.26517   0.00000  Uiso   1.00
H406   H     0.29035   0.34794   0.09941   0.00000  Uiso   1.00
H407   H     0.33320   0.38664   0.10807   0.00000  Uiso   1.00
H408   H     0.17422   0.51936   0.09175   0.00000  Uiso   1.00
H409   H     0.28422   0.37906   0.14747   0.00000  Uiso   1.00
H410   H     0.29534   0.41398   0.06832   0.00000  Uiso   1.00
H411   H     0.28608   0.44331   0.11678   0.00000  Uiso   1.00
H412   H     0.21474   0.40758   0.13976   0.00000  Uiso   1.00
H413   H     0.22113   0.36782   0.10009   0.00000  Uiso   1.00
H414   H     0.03785   0.34161   0.01063   0.00000  Uiso   1.00
H415   H     0.03230   0.65092   0.05515   0.00000  Uiso   1.00
H416   H     0.07308   0.36100   0.04222   0.00000  Uiso   1.00
H417   H     0.10543   0.62774   0.02596   0.00000  Uiso   1.00
H418   H     0.11113   0.65155   0.48166   0.00000  Uiso   1.00
H419   H     0.20624   0.39522   0.46573   0.00000  Uiso   1.00
H420   H     0.04675   0.60421   0.46895   0.00000  Uiso   1.00
H421   H     0.03918   0.58068   0.01156   0.00000  Uiso   1.00
H422   H     0.06843   0.48017   0.16268   0.00000  Uiso   1.00
H423   H     0.01855   0.48128   0.15017   0.00000  Uiso   1.00
H424   H     0.03786   0.43213   0.14939   0.00000  Uiso   1.00
H425   H     0.05063   0.45333   0.08036   0.00000  Uiso   1.00
H426   H     0.09875   0.44642   0.09249   0.00000  Uiso   1.00
H427   H     0.10959   0.52659   0.11173   0.00000  Uiso   1.00
H428   H     0.06238   0.52974   0.09957   0.00000  Uiso   1.00
H429   H     0.17033   0.48193   0.40322   0.00000  Uiso   1.00
H430   H     0.17644   0.43435   0.43264   0.00000  Uiso   1.00
H431   H     0.23235   0.63211   0.46955   0.00000  Uiso   1.00
H432   H     0.23799   0.62004   0.01618   0.00000  Uiso   1.00
H433   H     0.18874   0.60246   0.00196   0.00000  Uiso   1.00
I434   I     0.08486   0.65162   0.26607   0.00000  Uiso   1.00
I435   I     0.10294   0.61401   0.39439   0.00000  Uiso   1.00
O436   O     0.16667   0.50000   0.25000   0.00000  Uiso   1.00
O437   O     0.15693   0.45726   0.16625   0.00000  Uiso   1.00
O438   O     0.12687   0.53979   0.33749   0.00000  Uiso   1.00
O439   O     0.21088   0.50826   0.15877   0.00000  Uiso   1.00
O440   O     0.17198   0.49468   0.33749   0.00000  Uiso   1.00
O441   O     0.17849   0.41434   0.27820   0.00000  Uiso   1.00
O442   O     0.14581   0.59469   0.26767   0.00000  Uiso   1.00
O443   O     0.07452   0.46584   0.23607   0.00000  Uiso   1.00
O444   O     0.26785   0.52512   0.21805   0.00000  Uiso   1.00
O445   O     0.06990   0.52293   0.27820   0.00000  Uiso   1.00
O446   O     0.25440   0.48610   0.26767   0.00000  Uiso   1.00
O447   O     0.13800   0.40236   0.23607   0.00000  Uiso   1.00
O448   O     0.20437   0.58860   0.21805   0.00000  Uiso   1.00
Zn449  Zn    0.19244   0.47423   0.28277   0.00000  Uiso   1.00
Zn450  Zn    0.13459   0.45711   0.22257   0.00000  Uiso   1.00
Zn451  Zn    0.21166   0.52997   0.21188   0.00000  Uiso   1.00
Zn452  Zn    0.12798   0.53868   0.28277   0.00000  Uiso   1.00
C453   C     0.38621   0.49355   0.25790   0.00000  Uiso   1.00
C454   C     0.50838   0.44606   0.46322   0.00000  Uiso   1.00
C455   C     0.52579   0.42251   0.48294   0.00000  Uiso   1.00
C456   C     0.61422   0.50668   0.24161   0.00000  Uiso   1.00
C457   C     0.52661   0.43485   0.02271   0.00000  Uiso   1.00
C458   C     0.50689   0.47088   0.04280   0.00000  Uiso   1.00
C459   C     0.54661   0.41233   0.04283   0.00000  Uiso   1.00
C460   C     0.54650   0.42681   0.08318   0.00000  Uiso   1.00
C461   C     0.51469   0.48816   0.07923   0.00000  Uiso   1.00
C462   C     0.65955   0.50916   0.24008   0.00000  Uiso   1.00
C463   C     0.34067   0.48840   0.26327   0.00000  Uiso   1.00
C464   C     0.44495   0.56325   0.42300   0.00000  Uiso   1.00
C465   C     0.51899   0.65685   0.24540   0.00000  Uiso   1.00
C466   C     0.48425   0.34486   0.25849   0.00000  Uiso   1.00
C467   C     0.48901   0.38937   0.25854   0.00000  Uiso   1.00
C468   C     0.51125   0.61129   0.24267   0.00000  Uiso   1.00
C469   C     0.52162   0.47792   0.14376   0.00000  Uiso   1.00
C470   C     0.47937   0.52202   0.35654   0.00000  Uiso   1.00
C471   C     0.46898   0.53060   0.40083   0.00000  Uiso   1.00
C472   C     0.53077   0.46538   0.10071   0.00000  Uiso   1.00
C473   C     0.43015   0.56510   0.46514   0.00000  Uiso   1.00
C474   C     0.56574   0.37211   0.02212   0.00000  Uiso   1.00
C475   C     0.48274   0.50415   0.42110   0.00000  Uiso   1.00
C476   C     0.53023   0.33527   0.02239   0.00000  Uiso   1.00
C477   C     0.54863   0.62835   0.00116   0.00000  Uiso   1.00
C478   C     0.64606   0.45896   0.29307   0.00000  Uiso   1.00
C479   C     0.33756   0.43729   0.31387   0.00000  Uiso   1.00
C480   C     0.64026   0.40921   0.34327   0.00000  Uiso   1.00
C481   C     0.56469   0.34704   0.23705   0.00000  Uiso   1.00
C482   C     0.60239   0.65375   0.22255   0.00000  Uiso   1.00
C483   C     0.64543   0.34739   0.22039   0.00000  Uiso   1.00
C484   C     0.56348   0.40175   0.10734   0.00000  Uiso   1.00
C485   C     0.61236   0.41224   0.10043   0.00000  Uiso   1.00
C486   C     0.47161   0.50724   0.46296   0.00000  Uiso   1.00
C487   C     0.63109   0.37940   0.11484   0.00000  Uiso   1.00
C488   C     0.39828   0.59575   0.48817   0.00000  Uiso   1.00
C489   C     0.42097   0.63563   0.00604   0.00000  Uiso   1.00
C490   C     0.38893   0.66575   0.02997   0.00000  Uiso   1.00
C491   C     0.42383   0.51162   0.09104   0.00000  Uiso   1.00
C492   C     0.40585   0.46650   0.09938   0.00000  Uiso   1.00
C493   C     0.38110   0.46503   0.14312   0.00000  Uiso   1.00
C494   C     0.44471   0.53771   0.48516   0.00000  Uiso   1.00
C495   C     0.48757   0.48124   0.48320   0.00000  Uiso   1.00
C496   C     0.48148   0.48984   0.02504   0.00000  Uiso   1.00
C497   C     0.44826   0.51475   0.04726   0.00000  Uiso   1.00
C498   C     0.43221   0.53949   0.02697   0.00000  Uiso   1.00
H499   H     0.40941   0.56018   0.04479   0.00000  Uiso   1.00
H500   H     0.51249   0.66374   0.05365   0.00000  Uiso   1.00
H501   H     0.50696   0.34215   0.00738   0.00000  Uiso   1.00
H502   H     0.58532   0.37636   0.49130   0.00000  Uiso   1.00
H503   H     0.58923   0.36392   0.03608   0.00000  Uiso   1.00
H504   H     0.61784   0.42795   0.36686   0.00000  Uiso   1.00
H505   H     0.62138   0.38466   0.32756   0.00000  Uiso   1.00
H506   H     0.65902   0.39380   0.35758   0.00000  Uiso   1.00
H507   H     0.36014   0.41774   0.29135   0.00000  Uiso   1.00
H508   H     0.35629   0.46113   0.33042   0.00000  Uiso   1.00
H509   H     0.62324   0.47725   0.31674   0.00000  Uiso   1.00
H510   H     0.34889   0.52875   0.21923   0.00000  Uiso   1.00
H511   H     0.62788   0.43398   0.27705   0.00000  Uiso   1.00
H512   H     0.64975   0.37260   0.20124   0.00000  Uiso   1.00
H513   H     0.64718   0.36156   0.25068   0.00000  Uiso   1.00
H514   H     0.33875   0.66102   0.20763   0.00000  Uiso   1.00
H515   H     0.59879   0.63031   0.24342   0.00000  Uiso   1.00
H516   H     0.60312   0.63755   0.19226   0.00000  Uiso   1.00
H517   H     0.56823   0.36856   0.21444   0.00000  Uiso   1.00
H518   H     0.56807   0.36620   0.26517   0.00000  Uiso   1.00
H519   H     0.62368   0.34794   0.09941   0.00000  Uiso   1.00
H520   H     0.66654   0.38664   0.10807   0.00000  Uiso   1.00
H521   H     0.50756   0.51936   0.09175   0.00000  Uiso   1.00
H522   H     0.61755   0.37906   0.14747   0.00000  Uiso   1.00
H523   H     0.62867   0.41398   0.06832   0.00000  Uiso   1.00
H524   H     0.61941   0.44331   0.11678   0.00000  Uiso   1.00
H525   H     0.54807   0.40758   0.13976   0.00000  Uiso   1.00
H526   H     0.55447   0.36782   0.10009   0.00000  Uiso   1.00
H527   H     0.37118   0.34161   0.01063   0.00000  Uiso   1.00
H528   H     0.36564   0.65092   0.05515   0.00000  Uiso   1.00
H529   H     0.40641   0.36100   0.04222   0.00000  Uiso   1.00
H530   H     0.43876   0.62774   0.02596   0.00000  Uiso   1.00
H531   H     0.44446   0.65155   0.48166   0.00000  Uiso   1.00
H532   H     0.53958   0.39522   0.46573   0.00000  Uiso   1.00
H533   H     0.38008   0.60421   0.46895   0.00000  Uiso   1.00
H534   H     0.37251   0.58068   0.01156   0.00000  Uiso   1.00
H535   H     0.40177   0.48017   0.16268   0.00000  Uiso   1.00
H536   H     0.35188   0.48128   0.15017   0.00000  Uiso   1.00
H537   H     0.37120   0.43213   0.14939   0.00000  Uiso   1.00
H538   H     0.38396   0.45333   0.08036   0.00000  Uiso   1.00
H539   H     0.43208   0.44642   0.09249   0.00000  Uiso   1.00
H540   H     0.44293   0.52659   0.11173   0.00000  Uiso   1.00
H541   H     0.39571   0.52974   0.09957   0.00000  Uiso   1.00
H542   H     0.50367   0.48193   0.40322   0.00000  Uiso   1.00
H543   H     0.50977   0.43435   0.43264   0.00000  Uiso   1.00
H544   H     0.56568   0.63211   0.46955   0.00000  Uiso   1.00
H545   H     0.57132   0.62004   0.01618   0.00000  Uiso   1.00
H546   H     0.52207   0.60246   0.00196   0.00000  Uiso   1.00
I547   I     0.41820   0.65162   0.26607   0.00000  Uiso   1.00
I548   I     0.43628   0.61401   0.39439   0.00000  Uiso   1.00
O549   O     0.50000   0.50000   0.25000   0.00000  Uiso   1.00
O550   O     0.49027   0.45726   0.16625   0.00000  Uiso   1.00
O551   O     0.46020   0.53979   0.33749   0.00000  Uiso   1.00
O552   O     0.54421   0.50826   0.15877   0.00000  Uiso   1.00
O553   O     0.50532   0.49468   0.33749   0.00000  Uiso   1.00
O554   O     0.51182   0.41434   0.27820   0.00000  Uiso   1.00
O555   O     0.47914   0.59469   0.26767   0.00000  Uiso   1.00
O556   O     0.40785   0.46584   0.23607   0.00000  Uiso   1.00
O557   O     0.60119   0.52512   0.21805   0.00000  Uiso   1.00
O558   O     0.40323   0.52293   0.27820   0.00000  Uiso   1.00
O559   O     0.58773   0.48610   0.26767   0.00000  Uiso   1.00
O560   O     0.47133   0.40236   0.23607   0.00000  Uiso   1.00
O561   O     0.53771   0.58860   0.21805   0.00000  Uiso   1.00
Zn562  Zn    0.52577   0.47423   0.28277   0.00000  Uiso   1.00
Zn563  Zn    0.46792   0.45711   0.22257   0.00000  Uiso   1.00
Zn564  Zn    0.54500   0.52997   0.21188   0.00000  Uiso   1.00
Zn565  Zn    0.46131   0.53868   0.28277   0.00000  Uiso   1.00
C566   C     0.71955   0.49355   0.25790   0.00000  Uiso   1.00
C567   C     0.84171   0.44606   0.46322   0.00000  Uiso   1.00
C568   C     0.85913   0.42251   0.48294   0.00000  Uiso   1.00
C569   C     0.94755   0.50668   0.24161   0.00000  Uiso   1.00
C570   C     0.85994   0.43485   0.02271   0.00000  Uiso   1.00
C571   C     0.84023   0.47088   0.04280   0.00000  Uiso   1.00
C572   C     0.87995   0.41233   0.04283   0.00000  Uiso   1.00
C573   C     0.87983   0.42681   0.08318   0.00000  Uiso   1.00
C574   C     0.84802   0.48816   0.07923   0.00000  Uiso   1.00
C575   C     0.99288   0.50916   0.24008   0.00000  Uiso   1.00
C576   C     0.67401   0.48840   0.26327   0.00000  Uiso   1.00
C577   C     0.77828   0.56325   0.42300   0.00000  Uiso   1.00
C578   C     0.85232   0.65685   0.24540   0.00000  Uiso   1.00
C579   C     0.81758   0.34486   0.25849   0.00000  Uiso   1.00
C580   C     0.82234   0.38937   0.25854   0.00000  Uiso   1.00
C581   C     0.84458   0.61129   0.24267   0.00000  Uiso   1.00
C582   C     0.85495   0.47792   0.14376   0.00000  Uiso   1.00
C583   C     0.81270   0.52202   0.35654   0.00000  Uiso   1.00
C584   C     0.80232   0.53060   0.40083   0.00000  Uiso   1.00
C585   C     0.86410   0.46538   0.10071   0.00000  Uiso   1.00
C586   C     0.76349   0.56510   0.46514   0.00000  Uiso   1.00
C587   C     0.89907   0.37211   0.02212   0.00000  Uiso   1.00
C588   C     0.81607   0.50415   0.42110   0.00000  Uiso   1.00
C589   C     0.86356   0.33527   0.02239   0.00000  Uiso   1.00
C590   C     0.88196   0.62835   0.00116   0.00000  Uiso   1.00
C591   C     0.97939   0.45896   0.29307   0.00000  Uiso   1.00
C592   C     0.67090   0.43729   0.31387   0.00000  Uiso   1.00
C593   C     0.97359   0.40921   0.34327   0.00000  Uiso   1.00
C594   C     0.89802   0.34704   0.23705   0.00000  Uiso   1.00
C595   C     0.93572   0.65375   0.22255   0.00000  Uiso   1.00
C596   C     0.97877   0.34739   0.22039   0.00000  Uiso   1.00
C597   C     0.89682   0.40175   0.10734   0.00000  Uiso   1.00
C598   C     0.94570   0.41224   0.10043   0.00000  Uiso   1.00
C599   C     0.80494   0.50724   0.46296   0.00000  Uiso   1.00
C600   C     0.96442   0.37940   0.11484   0.00000  Uiso   1.00
C601   C     0.73161   0.59575   0.48817   0.00000  Uiso   1.00
C602   C     0.75430   0.63563   0.00604   0.00000  Uiso   1.00
C603   C     0.72226   0.66575   0.02997   0.00000  Uiso   1.00
C604   C     0.75716   0.51162   0.09104   0.00000  Uiso   1.00
C605   C     0.73918   0.46650   0.09938   0.00000  Uiso   1.00
C606   C     0.71444   0.46503   0.14312   0.00000  Uiso   1.00
C607   C     0.77804   0.53771   0.48516   0.00000  Uiso   1.00
C608   C     0.82090   0.48124   0.48320   0.00000  Uiso   1.00
C609   C     0.81482   0.48984   0.02504   0.00000  Uiso   1.00
C610   C     0.78159   0.51475   0.04726   0.00000  Uiso   1.00
C611   C     0.76554   0.53949   0.02697   0.00000  Uiso   1.00
H612   H     0.74274   0.56018   0.04479   0.00000  Uiso   1.00
H613   H     0.84583   0.66374   0.05365   0.00000  Uiso   1.00
H614   H     0.84029   0.34215   0.00738   0.00000  Uiso   1.00
H615   H     0.91865   0.37636   0.49130   0.00000  Uiso   1.00
H616   H     0.92256   0.36392   0.03608   0.00000  Uiso   1.00
H617   H     0.95117   0.42795   0.36686   0.00000  Uiso   1.00
H618   H     0.95472   0.38466   0.32756   0.00000  Uiso   1.00
H619   H     0.99236   0.39380   0.35758   0.00000  Uiso   1.00
H620   H     0.69348   0.41774   0.29135   0.00000  Uiso   1.00
H621   H     0.68962   0.46113   0.33042   0.00000  Uiso   1.00
H622   H     0.95657   0.47725   0.31674   0.00000  Uiso   1.00
H623   H     0.68222   0.52875   0.21923   0.00000  Uiso   1.00
H624   H     0.96121   0.43398   0.27705   0.00000  Uiso   1.00
H625   H     0.98309   0.37260   0.20124   0.00000  Uiso   1.00
H626   H     0.98051   0.36156   0.25068   0.00000  Uiso   1.00
H627   H     0.67209   0.66102   0.20763   0.00000  Uiso   1.00
H628   H     0.93212   0.63031   0.24342   0.00000  Uiso   1.00
H629   H     0.93645   0.63755   0.19226   0.00000  Uiso   1.00
H630   H     0.90156   0.36856   0.21444   0.00000  Uiso   1.00
H631   H     0.90141   0.36620   0.26517   0.00000  Uiso   1.00
H632   H     0.95701   0.34794   0.09941   0.00000  Uiso   1.00
H633   H     0.99987   0.38664   0.10807   0.00000  Uiso   1.00
H634   H     0.84089   0.51936   0.09175   0.00000  Uiso   1.00
H635   H     0.95088   0.37906   0.14747   0.00000  Uiso   1.00
H636   H     0.96201   0.41398   0.06832   0.00000  Uiso   1.00
H637   H     0.95274   0.44331   0.11678   0.00000  Uiso   1.00
H638   H     0.88140   0.40758   0.13976   0.00000  Uiso   1.00
H639   H     0.88780   0.36782   0.10009   0.00000  Uiso   1.00
H640   H     0.70451   0.34161   0.01063   0.00000  Uiso   1.00
H641   H     0.69897   0.65092   0.05515   0.00000  Uiso   1.00
H642   H     0.73975   0.36100   0.04222   0.00000  Uiso   1.00
H643   H     0.77210   0.62774   0.02596   0.00000  Uiso   1.00
H644   H     0.77779   0.65155   0.48166   0.00000  Uiso   1.00
H645   H     0.87291   0.39522   0.46573   0.00000  Uiso   1.00
H646   H     0.71342   0.60421   0.46895   0.00000  Uiso   1.00
H647   H     0.70584   0.58068   0.01156   0.00000  Uiso   1.00
H648   H     0.73510   0.48017   0.16268   0.00000  Uiso   1.00
H649   H     0.68522   0.48128   0.15017   0.00000  Uiso   1.00
H650   H     0.70453   0.43213   0.14939   0.00000  Uiso   1.00
H651   H     0.71729   0.45333   0.08036   0.00000  Uiso   1.00
H652   H     0.76542   0.44642   0.09249   0.00000  Uiso   1.00
H653   H     0.77626   0.52659   0.11173   0.00000  Uiso   1.00
H654   H     0.72905   0.52974   0.09957   0.00000  Uiso   1.00
H655   H     0.83700   0.48193   0.40322   0.00000  Uiso   1.00
H656   H     0.84310   0.43435   0.43264   0.00000  Uiso   1.00
H657   H     0.89902   0.63211   0.46955   0.00000  Uiso   1.00
H658   H     0.90465   0.62004   0.01618   0.00000  Uiso   1.00
H659   H     0.85541   0.60246   0.00196   0.00000  Uiso   1.00
I660   I     0.75153   0.65162   0.26607   0.00000  Uiso   1.00
I661   I     0.76961   0.61401   0.39439   0.00000  Uiso   1.00
O662   O     0.83333   0.50000   0.25000   0.00000  Uiso   1.00
O663   O     0.82360   0.45726   0.16625   0.00000  Uiso   1.00
O664   O     0.79354   0.53979   0.33749   0.00000  Uiso   1.00
O665   O     0.87755   0.50826   0.15877   0.00000  Uiso   1.00
O666   O     0.83865   0.49468   0.33749   0.00000  Uiso   1.00
O667   O     0.84515   0.41434   0.27820   0.00000  Uiso   1.00
O668   O     0.81247   0.59469   0.26767   0.00000  Uiso   1.00
O669   O     0.74119   0.46584   0.23607   0.00000  Uiso   1.00
O670   O     0.93452   0.52512   0.21805   0.00000  Uiso   1.00
O671   O     0.73656   0.52293   0.27820   0.00000  Uiso   1.00
O672   O     0.92106   0.48610   0.26767   0.00000  Uiso   1.00
O673   O     0.80467   0.40236   0.23607   0.00000  Uiso   1.00
O674   O     0.87104   0.58860   0.21805   0.00000  Uiso   1.00
Zn675  Zn    0.85910   0.47423   0.28277   0.00000  Uiso   1.00
Zn676  Zn    0.80125   0.45711   0.22257   0.00000  Uiso   1.00
Zn677  Zn    0.87833   0.52997   0.21188   0.00000  Uiso   1.00
Zn678  Zn    0.79465   0.53868   0.28277   0.00000  Uiso   1.00
C679   C     0.05288   0.82688   0.25790   0.00000  Uiso   1.00
C680   C     0.17504   0.77939   0.46322   0.00000  Uiso   1.00
C681   C     0.19246   0.75584   0.48294   0.00000  Uiso   1.00
C682   C     0.28089   0.84001   0.24161   0.00000  Uiso   1.00
C683   C     0.19328   0.76818   0.02271   0.00000  Uiso   1.00
C684   C     0.17356   0.80421   0.04280   0.00000  Uiso   1.00
C685   C     0.21328   0.74566   0.04283   0.00000  Uiso   1.00
C686   C     0.21317   0.76014   0.08318   0.00000  Uiso   1.00
C687   C     0.18135   0.82150   0.07923   0.00000  Uiso   1.00
C688   C     0.32622   0.84249   0.24008   0.00000  Uiso   1.00
C689   C     0.00734   0.82173   0.26327   0.00000  Uiso   1.00
C690   C     0.11162   0.89659   0.42300   0.00000  Uiso   1.00
C691   C     0.18565   0.99018   0.24540   0.00000  Uiso   1.00
C692   C     0.15092   0.67819   0.25849   0.00000  Uiso   1.00
C693   C     0.15568   0.72270   0.25854   0.00000  Uiso   1.00
C694   C     0.17792   0.94462   0.24267   0.00000  Uiso   1.00
C695   C     0.18828   0.81125   0.14376   0.00000  Uiso   1.00
C696   C     0.14604   0.85536   0.35654   0.00000  Uiso   1.00
C697   C     0.13565   0.86393   0.40083   0.00000  Uiso   1.00
C698   C     0.19744   0.79871   0.10071   0.00000  Uiso   1.00
C699   C     0.09682   0.89844   0.46514   0.00000  Uiso   1.00
C700   C     0.23240   0.70544   0.02212   0.00000  Uiso   1.00
C701   C     0.14940   0.83749   0.42110   0.00000  Uiso   1.00
C702   C     0.19690   0.66860   0.02239   0.00000  Uiso   1.00
C703   C     0.21530   0.96168   0.00116   0.00000  Uiso   1.00
C704   C     0.31273   0.79229   0.29307   0.00000  Uiso   1.00
C705   C     0.00423   0.77063   0.31387   0.00000  Uiso   1.00
C706   C     0.30692   0.74254   0.34327   0.00000  Uiso   1.00
C707   C     0.23135   0.68037   0.23705   0.00000  Uiso   1.00
C708   C     0.26905   0.98708   0.22255   0.00000  Uiso   1.00
C709   C     0.31210   0.68072   0.22039   0.00000  Uiso   1.00
C710   C     0.23015   0.73508   0.10734   0.00000  Uiso   1.00
C711   C     0.27903   0.74557   0.10043   0.00000  Uiso   1.00
C712   C     0.13827   0.84057   0.46296   0.00000  Uiso   1.00
C713   C     0.29775   0.71273   0.11484   0.00000  Uiso   1.00
C714   C     0.06495   0.92909   0.48817   0.00000  Uiso   1.00
C715   C     0.08764   0.96896   0.00604   0.00000  Uiso   1.00
C716   C     0.05560   0.99909   0.02997   0.00000  Uiso   1.00
C717   C     0.09049   0.84496   0.09104   0.00000  Uiso   1.00
C718   C     0.07252   0.79984   0.09938   0.00000  Uiso   1.00
C719   C     0.04777   0.79837   0.14312   0.00000  Uiso   1.00
C720   C     0.11137   0.87105   0.48516   0.00000  Uiso   1.00
C721   C     0.15423   0.81457   0.48320   0.00000  Uiso   1.00
C722   C     0.14815   0.82317   0.02504   0.00000  Uiso   1.00
C723   C     0.11492   0.84809   0.04726   0.00000  Uiso   1.00
C724   C     0.09887   0.87282   0.02697   0.00000  Uiso   1.00
H725   H     0.07608   0.89351   0.04479   0.00000  Uiso   1.00
H726   H     0.17916   0.99707   0.05365   0.00000  Uiso   1.00
H727   H     0.17363   0.67549   0.00738   0.00000  Uiso   1.00
H728   H     0.25198   0.70969   0.49130   0.00000  Uiso   1.00
H729   H     0.25589   0.69725   0.03608   0.00000  Uiso   1.00
H730   H     0.28451   0.76129   0.36686   0.00000  Uiso   1.00
H731   H     0.28805   0.71800   0.32756   0.00000  Uiso   1.00
H732   H     0.32569   0.72714   0.35758   0.00000  Uiso   1.00
H733   H     0.02681   0.75107   0.29135   0.00000  Uiso   1.00
H734   H     0.02295   0.79447   0.33042   0.00000  Uiso   1.00
H735   H     0.28990   0.81059   0.31674   0.00000  Uiso   1.00
H736   H     0.01555   0.86208   0.21923   0.00000  Uiso   1.00
H737   H     0.29454   0.76731   0.27705   0.00000  Uiso   1.00
H738   H     0.31642   0.70593   0.20124   0.00000  Uiso   1.00
H739   H     0.31384   0.69489   0.25068   0.00000  Uiso   1.00
H740   H     0.00542   0.99435   0.20763   0.00000  Uiso   1.00
H741   H     0.26545   0.96364   0.24342   0.00000  Uiso   1.00
H742   H     0.26978   0.97089   0.19226   0.00000  Uiso   1.00
H743   H     0.23490   0.70190   0.21444   0.00000  Uiso   1.00
H744   H     0.23474   0.69954   0.26517   0.00000  Uiso   1.00
H745   H     0.29035   0.68127   0.09941   0.00000  Uiso   1.00
H746   H     0.33320   0.71998   0.10807   0.00000  Uiso   1.00
H747   H     0.17422   0.85269   0.09175   0.00000  Uiso   1.00
H748   H     0.28422   0.71239   0.14747   0.00000  Uiso   1.00
H749   H     0.29534   0.74731   0.06832   0.00000  Uiso   1.00
H750   H     0.28608   0.77665   0.11678   0.00000  Uiso   1.00
H751   H     0.21474   0.74092   0.13976   0.00000  Uiso   1.00
H752   H     0.22113   0.70116   0.10009   0.00000  Uiso   1.00
H753   H     0.03785   0.67494   0.01063   0.00000  Uiso   1.00
H754   H     0.03230   0.98425   0.05515   0.00000  Uiso   1.00
H755   H     0.07308   0.69433   0.04222   0.00000  Uiso   1.00
H756   H     0.10543   0.96107   0.02596   0.00000  Uiso   1.00
H757   H     0.11113   0.98488   0.48166   0.00000  Uiso   1.00
H758   H     0.20624   0.72855   0.46573   0.00000  Uiso   1.00
H759   H     0.04675   0.93754   0.46895   0.00000  Uiso   1.00
H760   H     0.03918   0.91401   0.01156   0.00000  Uiso   1.00
H761   H     0.06843   0.81350   0.16268   0.00000  Uiso   1.00
H762   H     0.01855   0.81461   0.15017   0.00000  Uiso   1.00
H763   H     0.03786   0.76546   0.14939   0.00000  Uiso   1.00
H764   H     0.05063   0.78666   0.08036   0.00000  Uiso   1.00
H765   H     0.09875   0.77975   0.09249   0.00000  Uiso   1.00
H766   H     0.10959   0.85993   0.11173   0.00000  Uiso   1.00
H767   H     0.06238   0.86308   0.09957   0.00000  Uiso   1.00
H768   H     0.17033   0.81526   0.40322   0.00000  Uiso   1.00
H769   H     0.17644   0.76769   0.43264   0.00000  Uiso   1.00
H770   H     0.23235   0.96544   0.46955   0.00000  Uiso   1.00
H771   H     0.23799   0.95338   0.01618   0.00000  Uiso   1.00
H772   H     0.18874   0.93579   0.00196   0.00000  Uiso   1.00
I773   I     0.08486   0.98496   0.26607   0.00000  Uiso   1.00
I774   I     0.10294   0.94734   0.39439   0.00000  Uiso   1.00
O775   O     0.16667   0.83333   0.25000   0.00000  Uiso   1.00
O776   O     0.15693   0.79060   0.16625   0.00000  Uiso   1.00
O777   O     0.12687   0.87313   0.33749   0.00000  Uiso   1.00
O778   O     0.21088   0.84159   0.15877   0.00000  Uiso   1.00
O779   O     0.17198   0.82802   0.33749   0.00000  Uiso   1.00
O780   O     0.17849   0.74768   0.27820   0.00000  Uiso   1.00
O781   O     0.14581   0.92803   0.26767   0.00000  Uiso   1.00
O782   O     0.07452   0.79917   0.23607   0.00000  Uiso   1.00
O783   O     0.26785   0.85845   0.21805   0.00000  Uiso   1.00
O784   O     0.06990   0.85627   0.27820   0.00000  Uiso   1.00
O785   O     0.25440   0.81944   0.26767   0.00000  Uiso   1.00
O786   O     0.13800   0.73570   0.23607   0.00000  Uiso   1.00
O787   O     0.20437   0.92193   0.21805   0.00000  Uiso   1.00
Zn788  Zn    0.19244   0.80756   0.28277   0.00000  Uiso   1.00
Zn789  Zn    0.13459   0.79044   0.22257   0.00000  Uiso   1.00
Zn790  Zn    0.21166   0.86331   0.21188   0.00000  Uiso   1.00
Zn791  Zn    0.12798   0.87202   0.28277   0.00000  Uiso   1.00
C792   C     0.38621   0.82688   0.25790   0.00000  Uiso   1.00
C793   C     0.50838   0.77939   0.46322   0.00000  Uiso   1.00
C794   C     0.52579   0.75584   0.48294   0.00000  Uiso   1.00
C795   C     0.61422   0.84001   0.24161   0.00000  Uiso   1.00
C796   C     0.52661   0.76818   0.02271   0.00000  Uiso   1.00
C797   C     0.50689   0.80421   0.04280   0.00000  Uiso   1.00
C798   C     0.54661   0.74566   0.04283   0.00000  Uiso   1.00
C799   C     0.54650   0.76014   0.08318   0.00000  Uiso   1.00
C800   C     0.51469   0.82150   0.07923   0.00000  Uiso   1.00
C801   C     0.65955   0.84249   0.24008   0.00000  Uiso   1.00
C802   C     0.34067   0.82173   0.26327   0.00000  Uiso   1.00
C803   C     0.44495   0.89659   0.42300   0.00000  Uiso   1.00
C804   C     0.51899   0.99018   0.24540   0.00000  Uiso   1.00
C805   C     0.48425   0.67819   0.25849   0.00000  Uiso   1.00
C806   C     0.48901   0.72270   0.25854   0.00000  Uiso   1.00
C807   C     0.51125   0.94462   0.24267   0.00000  Uiso   1.00
C808   C     0.52162   0.81125   0.14376   0.00000  Uiso   1.00
C809   C     0.47937   0.85536   0.35654   0.00000  Uiso   1.00
C810   C     0.46898   0.86393   0.40083   0.00000  Uiso   1.00
C811   C     0.53077   0.79871   0.10071   0.00000  Uiso   1.00
C812   C     0.43015   0.89844   0.46514   0.00000  Uiso   1.00
C813   C     0.56574   0.70544   0.02212   0.00000  Uiso   1.00
C814   C     0.48274   0.83749   0.42110   0.00000  Uiso   1.00
C815   C     0.53023   0.66860   0.02239   0.00000  Uiso   1.00
C816   C     0.54863   0.96168   0.00116   0.00000  Uiso   1.00
C817   C     0.64606   0.79229   0.29307   0.00000  Uiso   1.00
C818   C     0.33756   0.77063   0.31387   0.00000  Uiso   1.00
C819   C     0.64026   0.74254   0.34327   0.00000  Uiso   1.00
C820   C     0.56469   0.68037   0.23705   0.00000  Uiso   1.00
C821   C     0.60239   0.98708   0.22255   0.00000  Uiso   1.00
C822   C     0.64543   0.68072   0.22039   0.00000  Uiso   1.00
C823   C     0.56348   0.73508   0.10734   0.00000  Uiso   1.00
C824   C     0.61236   0.74557   0.10043   0.00000  Uiso   1.00
C825   C     0.47161   0.84057   0.46296   0.00000  Uiso   1.00
C826   C     0.63109   0.71273   0.11484   0.00000  Uiso   1.00
C827   C     0.39828   0.92909   0.48817   0.00000  Uiso   1.00
C828   C     0.42097   0.96896   0.00604   0.00000  Uiso   1.00
C829   C     0.38893   0.99909   0.02997   0.00000  Uiso   1.00
C830   C     0.42383   0.84496   0.09104   0.00000  Uiso   1.00
C831   C     0.40585   0.79984   0.09938   0.00000  Uiso   1.00
C832   C     0.38110   0.79837   0.14312   0.00000  Uiso   1.00
C833   C     0.44471   0.87105   0.48516   0.00000  Uiso   1.00
C834   C     0.48757   0.81457   0.48320   0.00000  Uiso   1.00
C835   C     0.48148   0.82317   0.02504   0.00000  Uiso   1.00
C836   C     0.44826   0.84809   0.04726   0.00000  Uiso   1.00
C837   C     0.43221   0.87282   0.02697   0.00000  Uiso   1.00
H838   H     0.40941   0.89351   0.04479   0.00000  Uiso   1.00
H839   H     0.51249   0.99707   0.05365   0.00000  Uiso   1.00
H840   H     0.50696   0.67549   0.00738   0.00000  Uiso   1.00
H841   H     0.58532   0.70969   0.49130   0.00000  Uiso   1.00
H842   H     0.58923   0.69725   0.03608   0.00000  Uiso   1.00
H843   H     0.61784   0.76129   0.36686   0.00000  Uiso   1.00
H844   H     0.62138   0.71800   0.32756   0.00000  Uiso   1.00
H845   H     0.65902   0.72714   0.35758   0.00000  Uiso   1.00
H846   H     0.36014   0.75107   0.29135   0.00000  Uiso   1.00
H847   H     0.35629   0.79447   0.33042   0.00000  Uiso   1.00
H848   H     0.62324   0.81059   0.31674   0.00000  Uiso   1.00
H849   H     0.34889   0.86208   0.21923   0.00000  Uiso   1.00
H850   H     0.62788   0.76731   0.27705   0.00000  Uiso   1.00
H851   H     0.64975   0.70593   0.20124   0.00000  Uiso   1.00
H852   H     0.64718   0.69489   0.25068   0.00000  Uiso   1.00
H853   H     0.33875   0.99435   0.20763   0.00000  Uiso   1.00
H854   H     0.59879   0.96364   0.24342   0.00000  Uiso   1.00
H855   H     0.60312   0.97089   0.19226   0.00000  Uiso   1.00
H856   H     0.56823   0.70190   0.21444   0.00000  Uiso   1.00
H857   H     0.56807   0.69954   0.26517   0.00000  Uiso   1.00
H858   H     0.62368   0.68127   0.09941   0.00000  Uiso   1.00
H859   H     0.66654   0.71998   0.10807   0.00000  Uiso   1.00
H860   H     0.50756   0.85269   0.09175   0.00000  Uiso   1.00
H861   H     0.61755   0.71239   0.14747   0.00000  Uiso   1.00
H862   H     0.62867   0.74731   0.06832   0.00000  Uiso   1.00
H863   H     0.61941   0.77665   0.11678   0.00000  Uiso   1.00
H864   H     0.54807   0.74092   0.13976   0.00000  Uiso   1.00
H865   H     0.55447   0.70116   0.10009   0.00000  Uiso   1.00
H866   H     0.37118   0.67494   0.01063   0.00000  Uiso   1.00
H867   H     0.36564   0.98425   0.05515   0.00000  Uiso   1.00
H868   H     0.40641   0.69433   0.04222   0.00000  Uiso   1.00
H869   H     0.43876   0.96107   0.02596   0.00000  Uiso   1.00
H870   H     0.44446   0.98488   0.48166   0.00000  Uiso   1.00
H871   H     0.53958   0.72855   0.46573   0.00000  Uiso   1.00
H872   H     0.38008   0.93754   0.46895   0.00000  Uiso   1.00
H873   H     0.37251   0.91401   0.01156   0.00000  Uiso   1.00
H874   H     0.40177   0.81350   0.16268   0.00000  Uiso   1.00
H875   H     0.35188   0.81461   0.15017   0.00000  Uiso   1.00
H876   H     0.37120   0.76546   0.14939   0.00000  Uiso   1.00
H877   H     0.38396   0.78666   0.08036   0.00000  Uiso   1.00
H878   H     0.43208   0.77975   0.09249   0.00000  Uiso   1.00
H879   H     0.44293   0.85993   0.11173   0.00000  Uiso   1.00
H880   H     0.39571   0.86308   0.09957   0.00000  Uiso   1.00
H881   H     0.50367   0.81526   0.40322   0.00000  Uiso   1.00
H882   H     0.50977   0.76769   0.43264   0.00000  Uiso   1.00
H883   H     0.56568   0.96544   0.46955   0.00000  Uiso   1.00
H884   H     0.57132   0.95338   0.01618   0.00000  Uiso   1.00
H885   H     0.52207   0.93579   0.00196   0.00000  Uiso   1.00
I886   I     0.41820   0.98496   0.26607   0.00000  Uiso   1.00
I887   I     0.43628   0.94734   0.39439   0.00000  Uiso   1.00
O888   O     0.50000   0.83333   0.25000   0.00000  Uiso   1.00
O889   O     0.49027   0.79060   0.16625   0.00000  Uiso   1.00
O890   O     0.46020   0.87313   0.33749   0.00000  Uiso   1.00
O891   O     0.54421   0.84159   0.15877   0.00000  Uiso   1.00
O892   O     0.50532   0.82802   0.33749   0.00000  Uiso   1.00
O893   O     0.51182   0.74768   0.27820   0.00000  Uiso   1.00
O894   O     0.47914   0.92803   0.26767   0.00000  Uiso   1.00
O895   O     0.40785   0.79917   0.23607   0.00000  Uiso   1.00
O896   O     0.60119   0.85845   0.21805   0.00000  Uiso   1.00
O897   O     0.40323   0.85627   0.27820   0.00000  Uiso   1.00
O898   O     0.58773   0.81944   0.26767   0.00000  Uiso   1.00
O899   O     0.47133   0.73570   0.23607   0.00000  Uiso   1.00
O900   O     0.53771   0.92193   0.21805   0.00000  Uiso   1.00
Zn901  Zn    0.52577   0.80756   0.28277   0.00000  Uiso   1.00
Zn902  Zn    0.46792   0.79044   0.22257   0.00000  Uiso   1.00
Zn903  Zn    0.54500   0.86331   0.21188   0.00000  Uiso   1.00
Zn904  Zn    0.46131   0.87202   0.28277   0.00000  Uiso   1.00
C905   C     0.71955   0.82688   0.25790   0.00000  Uiso   1.00
C906   C     0.84171   0.77939   0.46322   0.00000  Uiso   1.00
C907   C     0.85913   0.75584   0.48294   0.00000  Uiso   1.00
C908   C     0.94755   0.84001   0.24161   0.00000  Uiso   1.00
C909   C     0.85994   0.76818   0.02271   0.00000  Uiso   1.00
C910   C     0.84023   0.80421   0.04280   0.00000  Uiso   1.00
C911   C     0.87995   0.74566   0.04283   0.00000  Uiso   1.00
C912   C     0.87983   0.76014   0.08318   0.00000  Uiso   1.00
C913   C     0.84802   0.82150   0.07923   0.00000  Uiso   1.00
C914   C     0.99288   0.84249   0.24008   0.00000  Uiso   1.00
C915   C     0.67401   0.82173   0.26327   0.00000  Uiso   1.00
C916   C     0.77828   0.89659   0.42300   0.00000  Uiso   1.00
C917   C     0.85232   0.99018   0.24540   0.00000  Uiso   1.00
C918   C     0.81758   0.67819   0.25849   0.00000  Uiso   1.00
C919   C     0.82234   0.72270   0.25854   0.00000  Uiso   1.00
C920   C     0.84458   0.94462   0.24267   0.00000  Uiso   1.00
C921   C     0.85495   0.81125   0.14376   0.00000  Uiso   1.00
C922   C     0.81270   0.85536   0.35654   0.00000  Uiso   1.00
C923   C     0.80232   0.86393   0.40083   0.00000  Uiso   1.00
C924   C     0.86410   0.79871   0.10071   0.00000  Uiso   1.00
C925   C     0.76349   0.89844   0.46514   0.00000  Uiso   1.00
C926   C     0.89907   0.70544   0.02212   0.00000  Uiso   1.00
C927   C     0.81607   0.83749   0.42110   0.00000  Uiso   1.00
C928   C     0.86356   0.66860   0.02239   0.00000  Uiso   1.00
C929   C     0.88196   0.96168   0.00116   0.00000  Uiso   1.00
C930   C     0.97939   0.79229   0.29307   0.00000  Uiso   1.00
C931   C     0.67090   0.77063   0.31387   0.00000  Uiso   1.00
C932   C     0.97359   0.74254   0.34327   0.00000  Uiso   1.00
C933   C     0.89802   0.68037   0.23705   0.00000  Uiso   1.00
C934   C     0.93572   0.98708   0.22255   0.00000  Uiso   1.00
C935   C     0.97877   0.68072   0.22039   0.00000  Uiso   1.00
C936   C     0.89682   0.73508   0.10734   0.00000  Uiso   1.00
C937   C     0.94570   0.74557   0.10043   0.00000  Uiso   1.00
C938   C     0.80494   0.84057   0.46296   0.00000  Uiso   1.00
C939   C     0.96442   0.71273   0.11484   0.00000  Uiso   1.00
C940   C     0.73161   0.92909   0.48817   0.00000  Uiso   1.00
C941   C     0.75430   0.96896   0.00604   0.00000  Uiso   1.00
C942   C     0.72226   0.99909   0.02997   0.00000  Uiso   1.00
C943   C     0.75716   0.84496   0.09104   0.00000  Uiso   1.00
C944   C     0.73918   0.79984   0.09938   0.00000  Uiso   1.00
C945   C     0.71444   0.79837   0.14312   0.00000  Uiso   1.00
C946   C     0.77804   0.87105   0.48516   0.00000  Uiso   1.00
C947   C     0.82090   0.81457   0.48320   0.00000  Uiso   1.00
C948   C     0.81482   0.82317   0.02504   0.00000  Uiso   1.00
C949   C     0.78159   0.84809   0.04726   0.00000  Uiso   1.00
C950   C     0.76554   0.87282   0.02697   0.00000  Uiso   1.00
H951   H     0.74274   0.89351   0.04479   0.00000  Uiso   1.00
H952   H     0.84583   0.99707   0.05365   0.00000  Uiso   1.00
H953   H     0.84029   0.67549   0.00738   0.00000  Uiso   1.00
H954   H     0.91865   0.70969   0.49130   0.00000  Uiso   1.00
H955   H     0.92256   0.69725   0.03608   0.00000  Uiso   1.00
H956   H     0.95117   0.76129   0.36686   0.00000  Uiso   1.00
H957   H     0.95472   0.71800   0.32756   0.00000  Uiso   1.00
H958   H     0.99236   0.72714   0.35758   0.00000  Uiso   1.00
H959   H     0.69348   0.75107   0.29135   0.00000  Uiso   1.00
H960   H     0.68962   0.79447   0.33042   0.00000  Uiso   1.00
H961   H     0.95657   0.81059   0.31674   0.00000  Uiso   1.00
H962   H     0.68222   0.86208   0.21923   0.00000  Uiso   1.00
H963   H     0.96121   0.76731   0.27705   0.00000  Uiso   1.00
H964   H     0.98309   0.70593   0.20124   0.00000  Uiso   1.00
H965   H     0.98051   0.69489   0.25068   0.00000  Uiso   1.00
H966   H     0.67209   0.99435   0.20763   0.00000  Uiso   1.00
H967   H     0.93212   0.96364   0.24342   0.00000  Uiso   1.00
H968   H     0.93645   0.97089   0.19226   0.00000  Uiso   1.00
H969   H     0.90156   0.70190   0.21444   0.00000  Uiso   1.00
H970   H     0.90141   0.69954   0.26517   0.00000  Uiso   1.00
H971   H     0.95701   0.68127   0.09941   0.00000  Uiso   1.00
H972   H     0.99987   0.71998   0.10807   0.00000  Uiso   1.00
H973   H     0.84089   0.85269   0.09175   0.00000  Uiso   1.00
H974   H     0.95088   0.71239   0.14747   0.00000  Uiso   1.00
H975   H     0.96201   0.74731   0.06832   0.00000  Uiso   1.00
H976   H     0.95274   0.77665   0.11678   0.00000  Uiso   1.00
H977   H     0.88140   0.74092   0.13976   0.00000  Uiso   1.00
H978   H     0.88780   0.70116   0.10009   0.00000  Uiso   1.00
H979   H     0.70451   0.67494   0.01063   0.00000  Uiso   1.00
H980   H     0.69897   0.98425   0.05515   0.00000  Uiso   1.00
H981   H     0.73975   0.69433   0.04222   0.00000  Uiso   1.00
H982   H     0.77210   0.96107   0.02596   0.00000  Uiso   1.00
H983   H     0.77779   0.98488   0.48166   0.00000  Uiso   1.00
H984   H     0.87291   0.72855   0.46573   0.00000  Uiso   1.00
H985   H     0.71342   0.93754   0.46895   0.00000  Uiso   1.00
H986   H     0.70584   0.91401   0.01156   0.00000  Uiso   1.00
H987   H     0.73510   0.81350   0.16268   0.00000  Uiso   1.00
H988   H     0.68522   0.81461   0.15017   0.00000  Uiso   1.00
H989   H     0.70453   0.76546   0.14939   0.00000  Uiso   1.00
H990   H     0.71729   0.78666   0.08036   0.00000  Uiso   1.00
H991   H     0.76542   0.77975   0.09249   0.00000  Uiso   1.00
H992   H     0.77626   0.85993   0.11173   0.00000  Uiso   1.00
H993   H     0.72905   0.86308   0.09957   0.00000  Uiso   1.00
H994   H     0.83700   0.81526   0.40322   0.00000  Uiso   1.00
H995   H     0.84310   0.76769   0.43264   0.00000  Uiso   1.00
H996   H     0.89902   0.96544   0.46955   0.00000  Uiso   1.00
H997   H     0.90465   0.95338   0.01618   0.00000  Uiso   1.00
H998   H     0.85541   0.93579   0.00196   0.00000  Uiso   1.00
I999   I     0.75153   0.98496   0.26607   0.00000  Uiso   1.00
I1000  I     0.76961   0.94734   0.39439   0.00000  Uiso   1.00
O1001  O     0.83333   0.83333   0.25000   0.00000  Uiso   1.00
O1002  O     0.82360   0.79060   0.16625   0.00000  Uiso   1.00
O1003  O     0.79354   0.87313   0.33749   0.00000  Uiso   1.00
O1004  O     0.87755   0.84159   0.15877   0.00000  Uiso   1.00
O1005  O     0.83865   0.82802   0.33749   0.00000  Uiso   1.00
O1006  O     0.84515   0.74768   0.27820   0.00000  Uiso   1.00
O1007  O     0.81247   0.92803   0.26767   0.00000  Uiso   1.00
O1008  O     0.74119   0.79917   0.23607   0.00000  Uiso   1.00
O1009  O     0.93452   0.85845   0.21805   0.00000  Uiso   1.00
O1010  O     0.73656   0.85627   0.27820   0.00000  Uiso   1.00
O1011  O     0.92106   0.81944   0.26767   0.00000  Uiso   1.00
O1012  O     0.80467   0.73570   0.23607   0.00000  Uiso   1.00
O1013  O     0.87104   0.92193   0.21805   0.00000  Uiso   1.00
Zn1014 Zn    0.85910   0.80756   0.28277   0.00000  Uiso   1.00
Zn1015 Zn    0.80125   0.79044   0.22257   0.00000  Uiso   1.00
Zn1016 Zn    0.87833   0.86331   0.21188   0.00000  Uiso   1.00
Zn1017 Zn    0.79465   0.87202   0.28277   0.00000  Uiso   1.00
C1018  C     0.05288   0.16021   0.75790   0.00000  Uiso   1.00
C1019  C     0.17504   0.11273   0.96322   0.00000  Uiso   1.00
C1020  C     0.19246   0.08918   0.98294   0.00000  Uiso   1.00
C1021  C     0.28089   0.17334   0.74161   0.00000  Uiso   1.00
C1022  C     0.19328   0.10152   0.52271   0.00000  Uiso   1.00
C1023  C     0.17356   0.13755   0.54280   0.00000  Uiso   1.00
C1024  C     0.21328   0.07899   0.54283   0.00000  Uiso   1.00
C1025  C     0.21317   0.09348   0.58318   0.00000  Uiso   1.00
C1026  C     0.18135   0.15483   0.57923   0.00000  Uiso   1.00
C1027  C     0.32622   0.17583   0.74008   0.00000  Uiso   1.00
C1028  C     0.00734   0.15507   0.76327   0.00000  Uiso   1.00
C1029  C     0.11162   0.22992   0.92300   0.00000  Uiso   1.00
C1030  C     0.18565   0.32351   0.74540   0.00000  Uiso   1.00
C1031  C     0.15092   0.01153   0.75849   0.00000  Uiso   1.00
C1032  C     0.15568   0.05603   0.75854   0.00000  Uiso   1.00
C1033  C     0.17792   0.27795   0.74267   0.00000  Uiso   1.00
C1034  C     0.18828   0.14458   0.64376   0.00000  Uiso   1.00
C1035  C     0.14604   0.18869   0.85654   0.00000  Uiso   1.00
C1036  C     0.13565   0.19727   0.90083   0.00000  Uiso   1.00
C1037  C     0.19744   0.13204   0.60071   0.00000  Uiso   1.00
C1038  C     0.09682   0.23177   0.96514   0.00000  Uiso   1.00
C1039  C     0.23240   0.03878   0.52212   0.00000  Uiso   1.00
C1040  C     0.14940   0.17082   0.92110   0.00000  Uiso   1.00
C1041  C     0.19690   0.00194   0.52239   0.00000  Uiso   1.00
C1042  C     0.21530   0.29502   0.50116   0.00000  Uiso   1.00
C1043  C     0.31273   0.12562   0.79307   0.00000  Uiso   1.00
C1044  C     0.00423   0.10396   0.81387   0.00000  Uiso   1.00
C1045  C     0.30692   0.07588   0.84327   0.00000  Uiso   1.00
C1046  C     0.23135   0.01371   0.73705   0.00000  Uiso   1.00
C1047  C     0.26905   0.32041   0.72255   0.00000  Uiso   1.00
C1048  C     0.31210   0.01405   0.72039   0.00000  Uiso   1.00
C1049  C     0.23015   0.06842   0.60734   0.00000  Uiso   1.00
C1050  C     0.27903   0.07890   0.60043   0.00000  Uiso   1.00
C1051  C     0.13827   0.17390   0.96296   0.00000  Uiso   1.00
C1052  C     0.29775   0.04607   0.61484   0.00000  Uiso   1.00
C1053  C     0.06495   0.26242   0.98817   0.00000  Uiso   1.00
C1054  C     0.08764   0.30230   0.50604   0.00000  Uiso   1.00
C1055  C     0.05560   0.33242   0.52997   0.00000  Uiso   1.00
C1056  C     0.09049   0.17829   0.59104   0.00000  Uiso   1.00
C1057  C     0.07252   0.13317   0.59938   0.00000  Uiso   1.00
C1058  C     0.04777   0.13170   0.64312   0.00000  Uiso   1.00
C1059  C     0.11137   0.20438   0.98516   0.00000  Uiso   1.00
C1060  C     0.15423   0.14791   0.98320   0.00000  Uiso   1.00
C1061  C     0.14815   0.15651   0.52504   0.00000  Uiso   1.00
C1062  C     0.11492   0.18142   0.54726   0.00000  Uiso   1.00
C1063  C     0.09887   0.20615   0.52697   0.00000  Uiso   1.00
H1064  H     0.07608   0.22684   0.54479   0.00000  Uiso   1.00
H1065  H     0.17916   0.33040   0.55365   0.00000  Uiso   1.00
H1066  H     0.17363   0.00882   0.50738   0.00000  Uiso   1.00
H1067  H     0.25198   0.04302   0.99130   0.00000  Uiso   1.00
H1068  H     0.25589   0.03058   0.53608   0.00000  Uiso   1.00
H1069  H     0.28451   0.09462   0.86686   0.00000  Uiso   1.00
H1070  H     0.28805   0.05133   0.82756   0.00000  Uiso   1.00
H1071  H     0.32569   0.06047   0.85758   0.00000  Uiso   1.00
H1072  H     0.02681   0.08440   0.79135   0.00000  Uiso   1.00
H1073  H     0.02295   0.12780   0.83042   0.00000  Uiso   1.00
H1074  H     0.28990   0.14392   0.81674   0.00000  Uiso   1.00
H1075  H     0.01555   0.19542   0.71923   0.00000  Uiso   1.00
H1076  H     0.29454   0.10064   0.77705   0.00000  Uiso   1.00
H1077  H     0.31642   0.03927   0.70124   0.00000  Uiso   1.00
H1078  H     0.31384   0.02822   0.75068   0.00000  Uiso   1.00
H1079  H     0.00542   0.32768   0.70763   0.00000  Uiso   1.00
H1080  H     0.26545   0.29697   0.74342   0.00000  Uiso   1.00
H1081  H     0.26978   0.30422   0.69226   0.00000  Uiso   1.00
H1082  H     0.23490   0.03523   0.71444   0.00000  Uiso   1.00
H1083  H     0.23474   0.03287   0.76517   0.00000  Uiso   1.00
H1084  H     0.29035   0.01461   0.59941   0.00000  Uiso   1.00
H1085  H     0.33320   0.05331   0.60807   0.00000  Uiso   1.00
H1086  H     0.17422   0.18602   0.59175   0.00000  Uiso   1.00
H1087  H     0.28422   0.04573   0.64747   0.00000  Uiso   1.00
H1088  H     0.29534   0.08064   0.56832   0.00000  Uiso   1.00
H1089  H     0.28608   0.10998   0.61678   0.00000  Uiso   1.00
H1090  H     0.21474   0.07425   0.63976   0.00000  Uiso   1.00
H1091  H     0.22113   0.03449   0.60009   0.00000  Uiso   1.00
H1092  H     0.03785   0.00828   0.51063   0.00000  Uiso   1.00
H1093  H     0.03230   0.31759   0.55515   0.00000  Uiso   1.00
H1094  H     0.07308   0.02766   0.54222   0.00000  Uiso   1.00
H1095  H     0.10543   0.29441   0.52596   0.00000  Uiso   1.00
H1096  H     0.11113   0.31821   0.98166   0.00000  Uiso   1.00
H1097  H     0.20624   0.06188   0.96573   0.00000  Uiso   1.00
H1098  H     0.04675   0.27087   0.96895   0.00000  Uiso   1.00
H1099  H     0.03918   0.24734   0.51156   0.00000  Uiso   1.00
H1100  H     0.06843   0.14684   0.66268   0.00000  Uiso   1.00
H1101  H     0.01855   0.14794   0.65017   0.00000  Uiso   1.00
H1102  H     0.03786   0.09880   0.64939   0.00000  Uiso   1.00
H1103  H     0.05063   0.11999   0.58036   0.00000  Uiso   1.00
H1104  H     0.09875   0.11308   0.59249   0.00000  Uiso   1.00
H1105  H     0.10959   0.19326   0.61173   0.00000  Uiso   1.00
H1106  H     0.06238   0.19641   0.59957   0.00000  Uiso   1.00
H1107  H     0.17033   0.14860   0.90322   0.00000  Uiso   1.00
H1108  H     0.17644   0.10102   0.93264   0.00000  Uiso   1.00
H1109  H     0.23235   0.29878   0.96955   0.00000  Uiso   1.00
H1110  H     0.23799   0.28671   0.51618   0.00000  Uiso   1.00
H1111  H     0.18874   0.26913   0.50196   0.00000  Uiso   1.00
I1112  I     0.08486   0.31829   0.76607   0.00000  Uiso   1.00
I1113  I     0.10294   0.28067   0.89439   0.00000  Uiso   1.00
O1114  O     0.16667   0.16667   0.75000   0.00000  Uiso   1.00
O1115  O     0.15693   0.12393   0.66625   0.00000  Uiso   1.00
O1116  O     0.12687   0.20646   0.83749   0.00000  Uiso   1.00
O1117  O     0.21088   0.17493   0.65877   0.00000  Uiso   1.00
O1118  O     0.17198   0.16135   0.83749   0.00000  Uiso   1.00
O1119  O     0.17849   0.08101   0.77820   0.00000  Uiso   1.00
O1120  O     0.14581   0.26136   0.76767   0.00000  Uiso   1.00
O1121  O     0.07452   0.13251   0.73607   0.00000  Uiso   1.00
O1122  O     0.26785   0.19179   0.71805   0.00000  Uiso   1.00
O1123  O     0.06990   0.18960   0.77820   0.00000  Uiso   1.00
O1124  O     0.25440   0.15277   0.76767   0.00000  Uiso   1.00
O1125  O     0.13800   0.06903   0.73607   0.00000  Uiso   1.00
O1126  O     0.20437   0.25527   0.71805   0.00000  Uiso   1.00
Zn1127 Zn    0.19244   0.14090   0.78277   0.00000  Uiso   1.00
Zn1128 Zn    0.13459   0.12378   0.72257   0.00000  Uiso   1.00
Zn1129 Zn    0.21166   0.19664   0.71188   0.00000  Uiso   1.00
Zn1130 Zn    0.12798   0.20535   0.78277   0.00000  Uiso   1.00
C1131  C     0.38621   0.16021   0.75790   0.00000  Uiso   1.00
C1132  C     0.50838   0.11273   0.96322   0.00000  Uiso   1.00
C1133  C     0.52579   0.08918   0.98294   0.00000  Uiso   1.00
C1134  C     0.61422   0.17334   0.74161   0.00000  Uiso   1.00
C1135  C     0.52661   0.10152   0.52271   0.00000  Uiso   1.00
C1136  C     0.50689   0.13755   0.54280   0.00000  Uiso   1.00
C1137  C     0.54661   0.07899   0.54283   0.00000  Uiso   1.00
C1138  C     0.54650   0.09348   0.58318   0.00000  Uiso   1.00
C1139  C     0.51469   0.15483   0.57923   0.00000  Uiso   1.00
C1140  C     0.65955   0.17583   0.74008   0.00000  Uiso   1.00
C1141  C     0.34067   0.15507   0.76327   0.00000  Uiso   1.00
C1142  C     0.44495   0.22992   0.92300   0.00000  Uiso   1.00
C1143  C     0.51899   0.32351   0.74540   0.00000  Uiso   1.00
C1144  C     0.48425   0.01153   0.75849   0.00000  Uiso   1.00
C1145  C     0.48901   0.05603   0.75854   0.00000  Uiso   1.00
C1146  C     0.51125   0.27795   0.74267   0.00000  Uiso   1.00
C1147  C     0.52162   0.14458   0.64376   0.00000  Uiso   1.00
C1148  C     0.47937   0.18869   0.85654   0.00000  Uiso   1.00
C1149  C     0.46898   0.19727   0.90083   0.00000  Uiso   1.00
C1150  C     0.53077   0.13204   0.60071   0.00000  Uiso   1.00
C1151  C     0.43015   0.23177   0.96514   0.00000  Uiso   1.00
C1152  C     0.56574   0.03878   0.52212   0.00000  Uiso   1.00
C1153  C     0.48274   0.17082   0.92110   0.00000  Uiso   1.00
C1154  C     0.53023   0.00194   0.52239   0.00000  Uiso   1.00
C1155  C     0.54863   0.29502   0.50116   0.00000  Uiso   1.00
C1156  C     0.64606   0.12562   0.79307   0.00000  Uiso   1.00
C1157  C     0.33756   0.10396   0.81387   0.00000  Uiso   1.00
C1158  C     0.64026   0.07588   0.84327   0.00000  Uiso   1.00
C1159  C     0.56469   0.01371   0.73705   0.00000  Uiso   1.00
C1160  C     0.60239   0.32041   0.72255   0.00000  Uiso   1.00
C1161  C     0.64543   0.01405   0.72039   0.00000  Uiso   1.00
C1162  C     0.56348   0.06842   0.60734   0.00000  Uiso   1.00
C1163  C     0.61236   0.07890   0.60043   0.00000  Uiso   1.00
C1164  C     0.47161   0.17390   0.96296   0.00000  Uiso   1.00
C1165  C     0.63109   0.04607   0.61484   0.00000  Uiso   1.00
C1166  C     0.39828   0.26242   0.98817   0.00000  Uiso   1.00
C1167  C     0.42097   0.30230   0.50604   0.00000  Uiso   1.00
C1168  C     0.38893   0.33242   0.52997   0.00000  Uiso   1.00
C1169  C     0.42383   0.17829   0.59104   0.00000  Uiso   1.00
C1170  C     0.40585   0.13317   0.59938   0.00000  Uiso   1.00
C1171  C     0.38110   0.13170   0.64312   0.00000  Uiso   1.00
C1172  C     0.44471   0.20438   0.98516   0.00000  Uiso   1.00
C1173  C     0.48757   0.14791   0.98320   0.00000  Uiso   1.00
C1174  C     0.48148   0.15651   0.52504   0.00000  Uiso   1.00
C1175  C     0.44826   0.18142   0.54726   0.00000  Uiso   1.00
C1176  C     0.43221   0.20615   0.52697   0.00000  Uiso   1.00
H1177  H     0.40941   0.22684   0.54479   0.00000  Uiso   1.00
H1178  H     0.51249   0.33040   0.55365   0.00000  Uiso   1.00
H1179  H     0.50696   0.00882   0.50738   0.00000  Uiso   1.00
H1180  H     0.58532   0.04302   0.99130   0.00000  Uiso   1.00
H1181  H     0.58923   0.03058   0.53608   0.00000  Uiso   1.00
H1182  H     0.61784   0.09462   0.86686   0.00000  Uiso   1.00
H1183  H     0.62138   0.05133   0.82756   0.00000  Uiso   1.00
H1184  H     0.65902   0.06047   0.85758   0.00000  Uiso   1.00
H1185  H     0.36014   0.08440   0.79135   0.00000  Uiso   1.00
H1186  H     0.35629   0.12780   0.83042   0.00000  Uiso   1.00
H1187  H     0.62324   0.14392   0.81674   0.00000  Uiso   1.00
H1188  H     0.34889   0.19542   0.71923   0.00000  Uiso   1.00
H1189  H     0.62788   0.10064   0.77705   0.00000  Uiso   1.00
H1190  H     0.64975   0.03927   0.70124   0.00000  Uiso   1.00
H1191  H     0.64718   0.02822   0.75068   0.00000  Uiso   1.00
H1192  H     0.33875   0.32768   0.70763   0.00000  Uiso   1.00
H1193  H     0.59879   0.29697   0.74342   0.00000  Uiso   1.00
H1194  H     0.60312   0.30422   0.69226   0.00000  Uiso   1.00
H1195  H     0.56823   0.03523   0.71444   0.00000  Uiso   1.00
H1196  H     0.56807   0.03287   0.76517   0.00000  Uiso   1.00
H1197  H     0.62368   0.01461   0.59941   0.00000  Uiso   1.00
H1198  H     0.66654   0.05331   0.60807   0.00000  Uiso   1.00
H1199  H     0.50756   0.18602   0.59175   0.00000  Uiso   1.00
H1200  H     0.61755   0.04573   0.64747   0.00000  Uiso   1.00
H1201  H     0.62867   0.08064   0.56832   0.00000  Uiso   1.00
H1202  H     0.61941   0.10998   0.61678   0.00000  Uiso   1.00
H1203  H     0.54807   0.07425   0.63976   0.00000  Uiso   1.00
H1204  H     0.55447   0.03449   0.60009   0.00000  Uiso   1.00
H1205  H     0.37118   0.00828   0.51063   0.00000  Uiso   1.00
H1206  H     0.36564   0.31759   0.55515   0.00000  Uiso   1.00
H1207  H     0.40641   0.02766   0.54222   0.00000  Uiso   1.00
H1208  H     0.43876   0.29441   0.52596   0.00000  Uiso   1.00
H1209  H     0.44446   0.31821   0.98166   0.00000  Uiso   1.00
H1210  H     0.53958   0.06188   0.96573   0.00000  Uiso   1.00
H1211  H     0.38008   0.27087   0.96895   0.00000  Uiso   1.00
H1212  H     0.37251   0.24734   0.51156   0.00000  Uiso   1.00
H1213  H     0.40177   0.14684   0.66268   0.00000  Uiso   1.00
H1214  H     0.35188   0.14794   0.65017   0.00000  Uiso   1.00
H1215  H     0.37120   0.09880   0.64939   0.00000  Uiso   1.00
H1216  H     0.38396   0.11999   0.58036   0.00000  Uiso   1.00
H1217  H     0.43208   0.11308   0.59249   0.00000  Uiso   1.00
H1218  H     0.44293   0.19326   0.61173   0.00000  Uiso   1.00
H1219  H     0.39571   0.19641   0.59957   0.00000  Uiso   1.00
H1220  H     0.50367   0.14860   0.90322   0.00000  Uiso   1.00
H1221  H     0.50977   0.10102   0.93264   0.00000  Uiso   1.00
H1222  H     0.56568   0.29878   0.96955   0.00000  Uiso   1.00
H1223  H     0.57132   0.28671   0.51618   0.00000  Uiso   1.00
H1224  H     0.52207   0.26913   0.50196   0.00000  Uiso   1.00
I1225  I     0.41820   0.31829   0.76607   0.00000  Uiso   1.00
I1226  I     0.43628   0.28067   0.89439   0.00000  Uiso   1.00
O1227  O     0.50000   0.16667   0.75000   0.00000  Uiso   1.00
O1228  O     0.49027   0.12393   0.66625   0.00000  Uiso   1.00
O1229  O     0.46020   0.20646   0.83749   0.00000  Uiso   1.00
O1230  O     0.54421   0.17493   0.65877   0.00000  Uiso   1.00
O1231  O     0.50532   0.16135   0.83749   0.00000  Uiso   1.00
O1232  O     0.51182   0.08101   0.77820   0.00000  Uiso   1.00
O1233  O     0.47914   0.26136   0.76767   0.00000  Uiso   1.00
O1234  O     0.40785   0.13251   0.73607   0.00000  Uiso   1.00
O1235  O     0.60119   0.19179   0.71805   0.00000  Uiso   1.00
O1236  O     0.40323   0.18960   0.77820   0.00000  Uiso   1.00
O1237  O     0.58773   0.15277   0.76767   0.00000  Uiso   1.00
O1238  O     0.47133   0.06903   0.73607   0.00000  Uiso   1.00
O1239  O     0.53771   0.25527   0.71805   0.00000  Uiso   1.00
Zn1240 Zn    0.52577   0.14090   0.78277   0.00000  Uiso   1.00
Zn1241 Zn    0.46792   0.12378   0.72257   0.00000  Uiso   1.00
Zn1242 Zn    0.54500   0.19664   0.71188   0.00000  Uiso   1.00
Zn1243 Zn    0.46131   0.20535   0.78277   0.00000  Uiso   1.00
C1244  C     0.71955   0.16021   0.75790   0.00000  Uiso   1.00
C1245  C     0.84171   0.11273   0.96322   0.00000  Uiso   1.00
C1246  C     0.85913   0.08918   0.98294   0.00000  Uiso   1.00
C1247  C     0.94755   0.17334   0.74161   0.00000  Uiso   1.00
C1248  C     0.85994   0.10152   0.52271   0.00000  Uiso   1.00
C1249  C     0.84023   0.13755   0.54280   0.00000  Uiso   1.00
C1250  C     0.87995   0.07899   0.54283   0.00000  Uiso   1.00
C1251  C     0.87983   0.09348   0.58318   0.00000  Uiso   1.00
C1252  C     0.84802   0.15483   0.57923   0.00000  Uiso   1.00
C1253  C     0.99288   0.17583   0.74008   0.00000  Uiso   1.00
C1254  C     0.67401   0.15507   0.76327   0.00000  Uiso   1.00
C1255  C     0.77828   0.22992   0.92300   0.00000  Uiso   1.00
C1256  C     0.85232   0.32351   0.74540   0.00000  Uiso   1.00
C1257  C     0.81758   0.01153   0.75849   0.00000  Uiso   1.00
C1258  C     0.82234   0.05603   0.75854   0.00000  Uiso   1.00
C1259  C     0.84458   0.27795   0.74267   0.00000  Uiso   1.00
C1260  C     0.85495   0.14458   0.64376   0.00000  Uiso   1.00
C1261  C     0.81270   0.18869   0.85654   0.00000  Uiso   1.00
C1262  C     0.80232   0.19727   0.90083   0.00000  Uiso   1.00
C1263  C     0.86410   0.13204   0.60071   0.00000  Uiso   1.00
C1264  C     0.76349   0.23177   0.96514   0.00000  Uiso   1.00
C1265  C     0.89907   0.03878   0.52212   0.00000  Uiso   1.00
C1266  C     0.81607   0.17082   0.92110   0.00000  Uiso   1.00
C1267  C     0.86356   0.00194   0.52239   0.00000  Uiso   1.00
C1268  C     0.88196   0.29502   0.50116   0.00000  Uiso   1.00
C1269  C     0.97939   0.12562   0.79307   0.00000  Uiso   1.00
C1270  C     0.67090   0.10396   0.81387   0.00000  Uiso   1.00
C1271  C     0.97359   0.07588   0.84327   0.00000  Uiso   1.00
C1272  C     0.89802   0.01371   0.73705   0.00000  Uiso   1.00
C1273  C     0.93572   0.32041   0.72255   0.00000  Uiso   1.00
C1274  C     0.97877   0.01405   0.72039   0.00000  Uiso   1.00
C1275  C     0.89682   0.06842   0.60734   0.00000  Uiso   1.00
C1276  C     0.94570   0.07890   0.60043   0.00000  Uiso   1.00
C1277  C     0.80494   0.17390   0.96296   0.00000  Uiso   1.00
C1278  C     0.96442   0.04607   0.61484   0.00000  Uiso   1.00
C1279  C     0.73161   0.26242   0.98817   0.00000  Uiso   1.00
C1280  C     0.75430   0.30230   0.50604   0.00000  Uiso   1.00
C1281  C     0.72226   0.33242   0.52997   0.00000  Uiso   1.00
C1282  C     0.75716   0.17829   0.59104   0.00000  Uiso   1.00
C1283  C     0.73918   0.13317   0.59938   0.00000  Uiso   1.00
C1284  C     0.71444   0.13170   0.64312   0.00000  Uiso   1.00
C1285  C     0.77804   0.20438   0.98516   0.00000  Uiso   1.00
C1286  C     0.82090   0.14791   0.98320   0.00000  Uiso   1.00
C1287  C     0.81482   0.15651   0.52504   0.00000  Uiso   1.00
C1288  C     0.78159   0.18142   0.54726   0.00000  Uiso   1.00
C1289  C     0.76554   0.20615   0.52697   0.00000  Uiso   1.00
H1290  H     0.74274   0.22684   0.54479   0.00000  Uiso   1.00
H1291  H     0.84583   0.33040   0.55365   0.00000  Uiso   1.00
H1292  H     0.84029   0.00882   0.50738   0.00000  Uiso   1.00
H1293  H     0.91865   0.04302   0.99130   0.00000  Uiso   1.00
H1294  H     0.92256   0.03058   0.53608   0.00000  Uiso   1.00
H1295  H     0.95117   0.09462   0.86686   0.00000  Uiso   1.00
H1296  H     0.95472   0.05133   0.82756   0.00000  Uiso   1.00
H1297  H     0.99236   0.06047   0.85758   0.00000  Uiso   1.00
H1298  H     0.69348   0.08440   0.79135   0.00000  Uiso   1.00
H1299  H     0.68962   0.12780   0.83042   0.00000  Uiso   1.00
H1300  H     0.95657   0.14392   0.81674   0.00000  Uiso   1.00
H1301  H     0.68222   0.19542   0.71923   0.00000  Uiso   1.00
H1302  H     0.96121   0.10064   0.77705   0.00000  Uiso   1.00
H1303  H     0.98309   0.03927   0.70124   0.00000  Uiso   1.00
H1304  H     0.98051   0.02822   0.75068   0.00000  Uiso   1.00
H1305  H     0.67209   0.32768   0.70763   0.00000  Uiso   1.00
H1306  H     0.93212   0.29697   0.74342   0.00000  Uiso   1.00
H1307  H     0.93645   0.30422   0.69226   0.00000  Uiso   1.00
H1308  H     0.90156   0.03523   0.71444   0.00000  Uiso   1.00
H1309  H     0.90141   0.03287   0.76517   0.00000  Uiso   1.00
H1310  H     0.95701   0.01461   0.59941   0.00000  Uiso   1.00
H1311  H     0.99987   0.05331   0.60807   0.00000  Uiso   1.00
H1312  H     0.84089   0.18602   0.59175   0.00000  Uiso   1.00
H1313  H     0.95088   0.04573   0.64747   0.00000  Uiso   1.00
H1314  H     0.96201   0.08064   0.56832   0.00000  Uiso   1.00
H1315  H     0.95274   0.10998   0.61678   0.00000  Uiso   1.00
H1316  H     0.88140   0.07425   0.63976   0.00000  Uiso   1.00
H1317  H     0.88780   0.03449   0.60009   0.00000  Uiso   1.00
H1318  H     0.70451   0.00828   0.51063   0.00000  Uiso   1.00
H1319  H     0.69897   0.31759   0.55515   0.00000  Uiso   1.00
H1320  H     0.73975   0.02766   0.54222   0.00000  Uiso   1.00
H1321  H     0.77210   0.29441   0.52596   0.00000  Uiso   1.00
H1322  H     0.77779   0.31821   0.98166   0.00000  Uiso   1.00
H1323  H     0.87291   0.06188   0.96573   0.00000  Uiso   1.00
H1324  H     0.71342   0.27087   0.96895   0.00000  Uiso   1.00
H1325  H     0.70584   0.24734   0.51156   0.00000  Uiso   1.00
H1326  H     0.73510   0.14684   0.66268   0.00000  Uiso   1.00
H1327  H     0.68522   0.14794   0.65017   0.00000  Uiso   1.00
H1328  H     0.70453   0.09880   0.64939   0.00000  Uiso   1.00
H1329  H     0.71729   0.11999   0.58036   0.00000  Uiso   1.00
H1330  H     0.76542   0.11308   0.59249   0.00000  Uiso   1.00
H1331  H     0.77626   0.19326   0.61173   0.00000  Uiso   1.00
H1332  H     0.72905   0.19641   0.59957   0.00000  Uiso   1.00
H1333  H     0.83700   0.14860   0.90322   0.00000  Uiso   1.00
H1334  H     0.84310   0.10102   0.93264   0.00000  Uiso   1.00
H1335  H     0.89902   0.29878   0.96955   0.00000  Uiso   1.00
H1336  H     0.90465   0.28671   0.51618   0.00000  Uiso   1.00
H1337  H     0.85541   0.26913   0.50196   0.00000  Uiso   1.00
I1338  I     0.75153   0.31829   0.76607   0.00000  Uiso   1.00
I1339  I     0.76961   0.28067   0.89439   0.00000  Uiso   1.00
O1340  O     0.83333   0.16667   0.75000   0.00000  Uiso   1.00
O1341  O     0.82360   0.12393   0.66625   0.00000  Uiso   1.00
O1342  O     0.79354   0.20646   0.83749   0.00000  Uiso   1.00
O1343  O     0.87755   0.17493   0.65877   0.00000  Uiso   1.00
O1344  O     0.83865   0.16135   0.83749   0.00000  Uiso   1.00
O1345  O     0.84515   0.08101   0.77820   0.00000  Uiso   1.00
O1346  O     0.81247   0.26136   0.76767   0.00000  Uiso   1.00
O1347  O     0.74119   0.13251   0.73607   0.00000  Uiso   1.00
O1348  O     0.93452   0.19179   0.71805   0.00000  Uiso   1.00
O1349  O     0.73656   0.18960   0.77820   0.00000  Uiso   1.00
O1350  O     0.92106   0.15277   0.76767   0.00000  Uiso   1.00
O1351  O     0.80467   0.06903   0.73607   0.00000  Uiso   1.00
O1352  O     0.87104   0.25527   0.71805   0.00000  Uiso   1.00
Zn1353 Zn    0.85910   0.14090   0.78277   0.00000  Uiso   1.00
Zn1354 Zn    0.80125   0.12378   0.72257   0.00000  Uiso   1.00
Zn1355 Zn    0.87833   0.19664   0.71188   0.00000  Uiso   1.00
Zn1356 Zn    0.79465   0.20535   0.78277   0.00000  Uiso   1.00
C1357  C     0.05288   0.49355   0.75790   0.00000  Uiso   1.00
C1358  C     0.17504   0.44606   0.96322   0.00000  Uiso   1.00
C1359  C     0.19246   0.42251   0.98294   0.00000  Uiso   1.00
C1360  C     0.28089   0.50668   0.74161   0.00000  Uiso   1.00
C1361  C     0.19328   0.43485   0.52271   0.00000  Uiso   1.00
C1362  C     0.17356   0.47088   0.54280   0.00000  Uiso   1.00
C1363  C     0.21328   0.41233   0.54283   0.00000  Uiso   1.00
C1364  C     0.21317   0.42681   0.58318   0.00000  Uiso   1.00
C1365  C     0.18135   0.48816   0.57923   0.00000  Uiso   1.00
C1366  C     0.32622   0.50916   0.74008   0.00000  Uiso   1.00
C1367  C     0.00734   0.48840   0.76327   0.00000  Uiso   1.00
C1368  C     0.11162   0.56325   0.92300   0.00000  Uiso   1.00
C1369  C     0.18565   0.65685   0.74540   0.00000  Uiso   1.00
C1370  C     0.15092   0.34486   0.75849   0.00000  Uiso   1.00
C1371  C     0.15568   0.38937   0.75854   0.00000  Uiso   1.00
C1372  C     0.17792   0.61129   0.74267   0.00000  Uiso   1.00
C1373  C     0.18828   0.47792   0.64376   0.00000  Uiso   1.00
C1374  C     0.14604   0.52202   0.85654   0.00000  Uiso   1.00
C1375  C     0.13565   0.53060   0.90083   0.00000  Uiso   1.00
C1376  C     0.19744   0.46538   0.60071   0.00000  Uiso   1.00
C1377  C     0.09682   0.56510   0.96514   0.00000  Uiso   1.00
C1378  C     0.23240   0.37211   0.52212   0.00000  Uiso   1.00
C1379  C     0.14940   0.50415   0.92110   0.00000  Uiso   1.00
C1380  C     0.19690   0.33527   0.52239   0.00000  Uiso   1.00
C1381  C     0.21530   0.62835   0.50116   0.00000  Uiso   1.00
C1382  C     0.31273   0.45896   0.79307   0.00000  Uiso   1.00
C1383  C     0.00423   0.43729   0.81387   0.00000  Uiso   1.00
C1384  C     0.30692   0.40921   0.84327   0.00000  Uiso   1.00
C1385  C     0.23135   0.34704   0.73705   0.00000  Uiso   1.00
C1386  C     0.26905   0.65375   0.72255   0.00000  Uiso   1.00
C1387  C     0.31210   0.34739   0.72039   0.00000  Uiso   1.00
C1388  C     0.23015   0.40175   0.60734   0.00000  Uiso   1.00
C1389  C     0.27903   0.41224   0.60043   0.00000  Uiso   1.00
C1390  C     0.13827   0.50724   0.96296   0.00000  Uiso   1.00
C1391  C     0.29775   0.37940   0.61484   0.00000  Uiso   1.00
C1392  C     0.06495   0.59575   0.98817   0.00000  Uiso   1.00
C1393  C     0.08764   0.63563   0.50604   0.00000  Uiso   1.00
C1394  C     0.05560   0.66575   0.52997   0.00000  Uiso   1.00
C1395  C     0.09049   0.51162   0.59104   0.00000  Uiso   1.00
C1396  C     0.07252   0.46650   0.59938   0.00000  Uiso   1.00
C1397  C     0.04777   0.46503   0.64312   0.00000  Uiso   1.00
C1398  C     0.11137   0.53771   0.98516   0.00000  Uiso   1.00
C1399  C     0.15423   0.48124   0.98320   0.00000  Uiso   1.00
C1400  C     0.14815   0.48984   0.52504   0.00000  Uiso   1.00
C1401  C     0.11492   0.51475   0.54726   0.00000  Uiso   1.00
C1402  C     0.09887   0.53949   0.52697   0.00000  Uiso   1.00
H1403  H     0.07608   0.56018   0.54479   0.00000  Uiso   1.00
H1404  H     0.17916   0.66374   0.55365   0.00000  Uiso   1.00
H1405  H     0.17363   0.34215   0.50738   0.00000  Uiso   1.00
H1406  H     0.25198   0.37636   0.99130   0.00000  Uiso   1.00
H1407  H     0.25589   0.36392   0.53608   0.00000  Uiso   1.00
H1408  H     0.28451   0.42795   0.86686   0.00000  Uiso   1.00
H1409  H     0.28805   0.38466   0.82756   0.00000  Uiso   1.00
H1410  H     0.32569   0.39380   0.85758   0.00000  Uiso   1.00
H1411  H     0.02681   0.41774   0.79135   0.00000  Uiso   1.00
H1412  H     0.02295   0.46113   0.83042   0.00000  Uiso   1.00
H1413  H     0.28990   0.47725   0.81674   0.00000  Uiso   1.00
H1414  H     0.01555   0.52875   0.71923   0.00000  Uiso   1.00
H1415  H     0.29454   0.43398   0.77705   0.00000  Uiso   1.00
H1416  H     0.31642   0.37260   0.70124   0.00000  Uiso   1.00
H1417  H     0.31384   0.36156   0.75068   0.00000  Uiso   1.00
H1418  H     0.00542   0.66102   0.70763   0.00000  Uiso   1.00
H1419  H     0.26545   0.63031   0.74342   0.00000  Uiso   1.00
H1420  H     0.26978   0.63755   0.69226   0.00000  Uiso   1.00
H1421  H     0.23490   0.36856   0.71444   0.00000  Uiso   1.00
H1422  H     0.23474   0.36620   0.76517   0.00000  Uiso   1.00
H1423  H     0.29035   0.34794   0.59941   0.00000  Uiso   1.00
H1424  H     0.33320   0.38664   0.60807   0.00000  Uiso   1.00
H1425  H     0.17422   0.51936   0.59175   0.00000  Uiso   1.00
H1426  H     0.28422   0.37906   0.64747   0.00000  Uiso   1.00
H1427  H     0.29534   0.41398   0.56832   0.00000  Uiso   1.00
H1428  H     0.28608   0.44331   0.61678   0.00000  Uiso   1.00
H1429  H     0.21474   0.40758   0.63976   0.00000  Uiso   1.00
H1430  H     0.22113   0.36782   0.60009   0.00000  Uiso   1.00
H1431  H     0.03785   0.34161   0.51063   0.00000  Uiso   1.00
H1432  H     0.03230   0.65092   0.55515   0.00000  Uiso   1.00
H1433  H     0.07308   0.36100   0.54222   0.00000  Uiso   1.00
H1434  H     0.10543   0.62774   0.52596   0.00000  Uiso   1.00
H1435  H     0.11113   0.65155   0.98166   0.00000  Uiso   1.00
H1436  H     0.20624   0.39522   0.96573   0.00000  Uiso   1.00
H1437  H     0.04675   0.60421   0.96895   0.00000  Uiso   1.00
H1438  H     0.03918   0.58068   0.51156   0.00000  Uiso   1.00
H1439  H     0.06843   0.48017   0.66268   0.00000  Uiso   1.00
H1440  H     0.01855   0.48128   0.65017   0.00000  Uiso   1.00
H1441  H     0.03786   0.43213   0.64939   0.00000  Uiso   1.00
H1442  H     0.05063   0.45333   0.58036   0.00000  Uiso   1.00
H1443  H     0.09875   0.44642   0.59249   0.00000  Uiso   1.00
H1444  H     0.10959   0.52659   0.61173   0.00000  Uiso   1.00
H1445  H     0.06238   0.52974   0.59957   0.00000  Uiso   1.00
H1446  H     0.17033   0.48193   0.90322   0.00000  Uiso   1.00
H1447  H     0.17644   0.43435   0.93264   0.00000  Uiso   1.00
H1448  H     0.23235   0.63211   0.96955   0.00000  Uiso   1.00
H1449  H     0.23799   0.62004   0.51618   0.00000  Uiso   1.00
H1450  H     0.18874   0.60246   0.50196   0.00000  Uiso   1.00
I1451  I     0.08486   0.65162   0.76607   0.00000  Uiso   1.00
I1452  I     0.10294   0.61401   0.89439   0.00000  Uiso   1.00
O1453  O     0.16667   0.50000   0.75000   0.00000  Uiso   1.00
O1454  O     0.15693   0.45726   0.66625   0.00000  Uiso   1.00
O1455  O     0.12687   0.53979   0.83749   0.00000  Uiso   1.00
O1456  O     0.21088   0.50826   0.65877   0.00000  Uiso   1.00
O1457  O     0.17198   0.49468   0.83749   0.00000  Uiso   1.00
O1458  O     0.17849   0.41434   0.77820   0.00000  Uiso   1.00
O1459  O     0.14581   0.59469   0.76767   0.00000  Uiso   1.00
O1460  O     0.07452   0.46584   0.73607   0.00000  Uiso   1.00
O1461  O     0.26785   0.52512   0.71805   0.00000  Uiso   1.00
O1462  O     0.06990   0.52293   0.77820   0.00000  Uiso   1.00
O1463  O     0.25440   0.48610   0.76767   0.00000  Uiso   1.00
O1464  O     0.13800   0.40236   0.73607   0.00000  Uiso   1.00
O1465  O     0.20437   0.58860   0.71805   0.00000  Uiso   1.00
Zn1466 Zn    0.19244   0.47423   0.78277   0.00000  Uiso   1.00
Zn1467 Zn    0.13459   0.45711   0.72257   0.00000  Uiso   1.00
Zn1468 Zn    0.21166   0.52997   0.71188   0.00000  Uiso   1.00
Zn1469 Zn    0.12798   0.53868   0.78277   0.00000  Uiso   1.00
C1470  C     0.38621   0.49355   0.75790   0.00000  Uiso   1.00
C1471  C     0.50838   0.44606   0.96322   0.00000  Uiso   1.00
C1472  C     0.52579   0.42251   0.98294   0.00000  Uiso   1.00
C1473  C     0.61422   0.50668   0.74161   0.00000  Uiso   1.00
C1474  C     0.52661   0.43485   0.52271   0.00000  Uiso   1.00
C1475  C     0.50689   0.47088   0.54280   0.00000  Uiso   1.00
C1476  C     0.54661   0.41233   0.54283   0.00000  Uiso   1.00
C1477  C     0.54650   0.42681   0.58318   0.00000  Uiso   1.00
C1478  C     0.51469   0.48816   0.57923   0.00000  Uiso   1.00
C1479  C     0.65955   0.50916   0.74008   0.00000  Uiso   1.00
C1480  C     0.34067   0.48840   0.76327   0.00000  Uiso   1.00
C1481  C     0.44495   0.56325   0.92300   0.00000  Uiso   1.00
C1482  C     0.51899   0.65685   0.74540   0.00000  Uiso   1.00
C1483  C     0.48425   0.34486   0.75849   0.00000  Uiso   1.00
C1484  C     0.48901   0.38937   0.75854   0.00000  Uiso   1.00
C1485  C     0.51125   0.61129   0.74267   0.00000  Uiso   1.00
C1486  C     0.52162   0.47792   0.64376   0.00000  Uiso   1.00
C1487  C     0.47937   0.52202   0.85654   0.00000  Uiso   1.00
C1488  C     0.46898   0.53060   0.90083   0.00000  Uiso   1.00
C1489  C     0.53077   0.46538   0.60071   0.00000  Uiso   1.00
C1490  C     0.43015   0.56510   0.96514   0.00000  Uiso   1.00
C1491  C     0.56574   0.37211   0.52212   0.00000  Uiso   1.00
C1492  C     0.48274   0.50415   0.92110   0.00000  Uiso   1.00
C1493  C     0.53023   0.33527   0.52239   0.00000  Uiso   1.00
C1494  C     0.54863   0.62835   0.50116   0.00000  Uiso   1.00
C1495  C     0.64606   0.45896   0.79307   0.00000  Uiso   1.00
C1496  C     0.33756   0.43729   0.81387   0.00000  Uiso   1.00
C1497  C     0.64026   0.40921   0.84327   0.00000  Uiso   1.00
C1498  C     0.56469   0.34704   0.73705   0.00000  Uiso   1.00
C1499  C     0.60239   0.65375   0.72255   0.00000  Uiso   1.00
C1500  C     0.64543   0.34739   0.72039   0.00000  Uiso   1.00
C1501  C     0.56348   0.40175   0.60734   0.00000  Uiso   1.00
C1502  C     0.61236   0.41224   0.60043   0.00000  Uiso   1.00
C1503  C     0.47161   0.50724   0.96296   0.00000  Uiso   1.00
C1504  C     0.63109   0.37940   0.61484   0.00000  Uiso   1.00
C1505  C     0.39828   0.59575   0.98817   0.00000  Uiso   1.00
C1506  C     0.42097   0.63563   0.50604   0.00000  Uiso   1.00
C1507  C     0.38893   0.66575   0.52997   0.00000  Uiso   1.00
C1508  C     0.42383   0.51162   0.59104   0.00000  Uiso   1.00
C1509  C     0.40585   0.46650   0.59938   0.00000  Uiso   1.00
C1510  C     0.38110   0.46503   0.64312   0.00000  Uiso   1.00
C1511  C     0.44471   0.53771   0.98516   0.00000  Uiso   1.00
C1512  C     0.48757   0.48124   0.98320   0.00000  Uiso   1.00
C1513  C     0.48148   0.48984   0.52504   0.00000  Uiso   1.00
C1514  C     0.44826   0.51475   0.54726   0.00000  Uiso   1.00
C1515  C     0.43221   0.53949   0.52697   0.00000  Uiso   1.00
H1516  H     0.40941   0.56018   0.54479   0.00000  Uiso   1.00
H1517  H     0.51249   0.66374   0.55365   0.00000  Uiso   1.00
H1518  H     0.50696   0.34215   0.50738   0.00000  Uiso   1.00
H1519  H     0.58532   0.37636   0.99130   0.00000  Uiso   1.00
H1520  H     0.58923   0.36392   0.53608   0.00000  Uiso   1.00
H1521  H     0.61784   0.42795   0.86686   0.00000  Uiso   1.00
H1522  H     0.62138   0.38466   0.82756   0.00000  Uiso   1.00
H1523  H     0.65902   0.39380   0.85758   0.00000  Uiso   1.00
H1524  H     0.36014   0.41774   0.79135   0.00000  Uiso   1.00
H1525  H     0.35629   0.46113   0.83042   0.00000  Uiso   1.00
H1526  H     0.62324   0.47725   0.81674   0.00000  Uiso   1.00
H1527  H     0.34889   0.52875   0.71923   0.00000  Uiso   1.00
H1528  H     0.62788   0.43398   0.77705   0.00000  Uiso   1.00
H1529  H     0.64975   0.37260   0.70124   0.00000  Uiso   1.00
H1530  H     0.64718   0.36156   0.75068   0.00000  Uiso   1.00
H1531  H     0.33875   0.66102   0.70763   0.00000  Uiso   1.00
H1532  H     0.59879   0.63031   0.74342   0.00000  Uiso   1.00
H1533  H     0.60312   0.63755   0.69226   0.00000  Uiso   1.00
H1534  H     0.56823   0.36856   0.71444   0.00000  Uiso   1.00
H1535  H     0.56807   0.36620   0.76517   0.00000  Uiso   1.00
H1536  H     0.62368   0.34794   0.59941   0.00000  Uiso   1.00
H1537  H     0.66654   0.38664   0.60807   0.00000  Uiso   1.00
H1538  H     0.50756   0.51936   0.59175   0.00000  Uiso   1.00
H1539  H     0.61755   0.37906   0.64747   0.00000  Uiso   1.00
H1540  H     0.62867   0.41398   0.56832   0.00000  Uiso   1.00
H1541  H     0.61941   0.44331   0.61678   0.00000  Uiso   1.00
H1542  H     0.54807   0.40758   0.63976   0.00000  Uiso   1.00
H1543  H     0.55447   0.36782   0.60009   0.00000  Uiso   1.00
H1544  H     0.37118   0.34161   0.51063   0.00000  Uiso   1.00
H1545  H     0.36564   0.65092   0.55515   0.00000  Uiso   1.00
H1546  H     0.40641   0.36100   0.54222   0.00000  Uiso   1.00
H1547  H     0.43876   0.62774   0.52596   0.00000  Uiso   1.00
H1548  H     0.44446   0.65155   0.98166   0.00000  Uiso   1.00
H1549  H     0.53958   0.39522   0.96573   0.00000  Uiso   1.00
H1550  H     0.38008   0.60421   0.96895   0.00000  Uiso   1.00
H1551  H     0.37251   0.58068   0.51156   0.00000  Uiso   1.00
H1552  H     0.40177   0.48017   0.66268   0.00000  Uiso   1.00
H1553  H     0.35188   0.48128   0.65017   0.00000  Uiso   1.00
H1554  H     0.37120   0.43213   0.64939   0.00000  Uiso   1.00
H1555  H     0.38396   0.45333   0.58036   0.00000  Uiso   1.00
H1556  H     0.43208   0.44642   0.59249   0.00000  Uiso   1.00
H1557  H     0.44293   0.52659   0.61173   0.00000  Uiso   1.00
H1558  H     0.39571   0.52974   0.59957   0.00000  Uiso   1.00
H1559  H     0.50367   0.48193   0.90322   0.00000  Uiso   1.00
H1560  H     0.50977   0.43435   0.93264   0.00000  Uiso   1.00
H1561  H     0.56568   0.63211   0.96955   0.00000  Uiso   1.00
H1562  H     0.57132   0.62004   0.51618   0.00000  Uiso   1.00
H1563  H     0.52207   0.60246   0.50196   0.00000  Uiso   1.00
I1564  I     0.41820   0.65162   0.76607   0.00000  Uiso   1.00
I1565  I     0.43628   0.61401   0.89439   0.00000  Uiso   1.00
O1566  O     0.50000   0.50000   0.75000   0.00000  Uiso   1.00
O1567  O     0.49027   0.45726   0.66625   0.00000  Uiso   1.00
O1568  O     0.46020   0.53979   0.83749   0.00000  Uiso   1.00
O1569  O     0.54421   0.50826   0.65877   0.00000  Uiso   1.00
O1570  O     0.50532   0.49468   0.83749   0.00000  Uiso   1.00
O1571  O     0.51182   0.41434   0.77820   0.00000  Uiso   1.00
O1572  O     0.47914   0.59469   0.76767   0.00000  Uiso   1.00
O1573  O     0.40785   0.46584   0.73607   0.00000  Uiso   1.00
O1574  O     0.60119   0.52512   0.71805   0.00000  Uiso   1.00
O1575  O     0.40323   0.52293   0.77820   0.00000  Uiso   1.00
O1576  O     0.58773   0.48610   0.76767   0.00000  Uiso   1.00
O1577  O     0.47133   0.40236   0.73607   0.00000  Uiso   1.00
O1578  O     0.53771   0.58860   0.71805   0.00000  Uiso   1.00
Zn1579 Zn    0.52577   0.47423   0.78277   0.00000  Uiso   1.00
Zn1580 Zn    0.46792   0.45711   0.72257   0.00000  Uiso   1.00
Zn1581 Zn    0.54500   0.52997   0.71188   0.00000  Uiso   1.00
Zn1582 Zn    0.46131   0.53868   0.78277   0.00000  Uiso   1.00
C1583  C     0.71955   0.49355   0.75790   0.00000  Uiso   1.00
C1584  C     0.84171   0.44606   0.96322   0.00000  Uiso   1.00
C1585  C     0.85913   0.42251   0.98294   0.00000  Uiso   1.00
C1586  C     0.94755   0.50668   0.74161   0.00000  Uiso   1.00
C1587  C     0.85994   0.43485   0.52271   0.00000  Uiso   1.00
C1588  C     0.84023   0.47088   0.54280   0.00000  Uiso   1.00
C1589  C     0.87995   0.41233   0.54283   0.00000  Uiso   1.00
C1590  C     0.87983   0.42681   0.58318   0.00000  Uiso   1.00
C1591  C     0.84802   0.48816   0.57923   0.00000  Uiso   1.00
C1592  C     0.99288   0.50916   0.74008   0.00000  Uiso   1.00
C1593  C     0.67401   0.48840   0.76327   0.00000  Uiso   1.00
C1594  C     0.77828   0.56325   0.92300   0.00000  Uiso   1.00
C1595  C     0.85232   0.65685   0.74540   0.00000  Uiso   1.00
C1596  C     0.81758   0.34486   0.75849   0.00000  Uiso   1.00
C1597  C     0.82234   0.38937   0.75854   0.00000  Uiso   1.00
C1598  C     0.84458   0.61129   0.74267   0.00000  Uiso   1.00
C1599  C     0.85495   0.47792   0.64376   0.00000  Uiso   1.00
C1600  C     0.81270   0.52202   0.85654   0.00000  Uiso   1.00
C1601  C     0.80232   0.53060   0.90083   0.00000  Uiso   1.00
C1602  C     0.86410   0.46538   0.60071   0.00000  Uiso   1.00
C1603  C     0.76349   0.56510   0.96514   0.00000  Uiso   1.00
C1604  C     0.89907   0.37211   0.52212   0.00000  Uiso   1.00
C1605  C     0.81607   0.50415   0.92110   0.00000  Uiso   1.00
C1606  C     0.86356   0.33527   0.52239   0.00000  Uiso   1.00
C1607  C     0.88196   0.62835   0.50116   0.00000  Uiso   1.00
C1608  C     0.97939   0.45896   0.79307   0.00000  Uiso   1.00
C1609  C     0.67090   0.43729   0.81387   0.00000  Uiso   1.00
C1610  C     0.97359   0.40921   0.84327   0.00000  Uiso   1.00
C1611  C     0.89802   0.34704   0.73705   0.00000  Uiso   1.00
C1612  C     0.93572   0.65375   0.72255   0.00000  Uiso   1.00
C1613  C     0.97877   0.34739   0.72039   0.00000  Uiso   1.00
C1614  C     0.89682   0.40175   0.60734   0.00000  Uiso   1.00
C1615  C     0.94570   0.41224   0.60043   0.00000  Uiso   1.00
C1616  C     0.80494   0.50724   0.96296   0.00000  Uiso   1.00
C1617  C     0.96442   0.37940   0.61484   0.00000  Uiso   1.00
C1618  C     0.73161   0.59575   0.98817   0.00000  Uiso   1.00
C1619  C     0.75430   0.63563   0.50604   0.00000  Uiso   1.00
C1620  C     0.72226   0.66575   0.52997   0.00000  Uiso   1.00
C1621  C     0.75716   0.51162   0.59104   0.00000  Uiso   1.00
C1622  C     0.73918   0.46650   0.59938   0.00000  Uiso   1.00
C1623  C     0.71444   0.46503   0.64312   0.00000  Uiso   1.00
C1624  C     0.77804   0.53771   0.98516   0.00000  Uiso   1.00
C1625  C     0.82090   0.48124   0.98320   0.00000  Uiso   1.00
C1626  C     0.81482   0.48984   0.52504   0.00000  Uiso   1.00
C1627  C     0.78159   0.51475   0.54726   0.00000  Uiso   1.00
C1628  C     0.76554   0.53949   0.52697   0.00000  Uiso   1.00
H1629  H     0.74274   0.56018   0.54479   0.00000  Uiso   1.00
H1630  H     0.84583   0.66374   0.55365   0.00000  Uiso   1.00
H1631  H     0.84029   0.34215   0.50738   0.00000  Uiso   1.00
H1632  H     0.91865   0.37636   0.99130   0.00000  Uiso   1.00
H1633  H     0.92256   0.36392   0.53608   0.00000  Uiso   1.00
H1634  H     0.95117   0.42795   0.86686   0.00000  Uiso   1.00
H1635  H     0.95472   0.38466   0.82756   0.00000  Uiso   1.00
H1636  H     0.99236   0.39380   0.85758   0.00000  Uiso   1.00
H1637  H     0.69348   0.41774   0.79135   0.00000  Uiso   1.00
H1638  H     0.68962   0.46113   0.83042   0.00000  Uiso   1.00
H1639  H     0.95657   0.47725   0.81674   0.00000  Uiso   1.00
H1640  H     0.68222   0.52875   0.71923   0.00000  Uiso   1.00
H1641  H     0.96121   0.43398   0.77705   0.00000  Uiso   1.00
H1642  H     0.98309   0.37260   0.70124   0.00000  Uiso   1.00
H1643  H     0.98051   0.36156   0.75068   0.00000  Uiso   1.00
H1644  H     0.67209   0.66102   0.70763   0.00000  Uiso   1.00
H1645  H     0.93212   0.63031   0.74342   0.00000  Uiso   1.00
H1646  H     0.93645   0.63755   0.69226   0.00000  Uiso   1.00
H1647  H     0.90156   0.36856   0.71444   0.00000  Uiso   1.00
H1648  H     0.90141   0.36620   0.76517   0.00000  Uiso   1.00
H1649  H     0.95701   0.34794   0.59941   0.00000  Uiso   1.00
H1650  H     0.99987   0.38664   0.60807   0.00000  Uiso   1.00
H1651  H     0.84089   0.51936   0.59175   0.00000  Uiso   1.00
H1652  H     0.95088   0.37906   0.64747   0.00000  Uiso   1.00
H1653  H     0.96201   0.41398   0.56832   0.00000  Uiso   1.00
H1654  H     0.95274   0.44331   0.61678   0.00000  Uiso   1.00
H1655  H     0.88140   0.40758   0.63976   0.00000  Uiso   1.00
H1656  H     0.88780   0.36782   0.60009   0.00000  Uiso   1.00
H1657  H     0.70451   0.34161   0.51063   0.00000  Uiso   1.00
H1658  H     0.69897   0.65092   0.55515   0.00000  Uiso   1.00
H1659  H     0.73975   0.36100   0.54222   0.00000  Uiso   1.00
H1660  H     0.77210   0.62774   0.52596   0.00000  Uiso   1.00
H1661  H     0.77779   0.65155   0.98166   0.00000  Uiso   1.00
H1662  H     0.87291   0.39522   0.96573   0.00000  Uiso   1.00
H1663  H     0.71342   0.60421   0.96895   0.00000  Uiso   1.00
H1664  H     0.70584   0.58068   0.51156   0.00000  Uiso   1.00
H1665  H     0.73510   0.48017   0.66268   0.00000  Uiso   1.00
H1666  H     0.68522   0.48128   0.65017   0.00000  Uiso   1.00
H1667  H     0.70453   0.43213   0.64939   0.00000  Uiso   1.00
H1668  H     0.71729   0.45333   0.58036   0.00000  Uiso   1.00
H1669  H     0.76542   0.44642   0.59249   0.00000  Uiso   1.00
H1670  H     0.77626   0.52659   0.61173   0.00000  Uiso   1.00
H1671  H     0.72905   0.52974   0.59957   0.00000  Uiso   1.00
H1672  H     0.83700   0.48193   0.90322   0.00000  Uiso   1.00
H1673  H     0.84310   0.43435   0.93264   0.00000  Uiso   1.00
H1674  H     0.89902   0.63211   0.96955   0.00000  Uiso   1.00
H1675  H     0.90465   0.62004   0.51618   0.00000  Uiso   1.00
H1676  H     0.85541   0.60246   0.50196   0.00000  Uiso   1.00
I1677  I     0.75153   0.65162   0.76607   0.00000  Uiso   1.00
I1678  I     0.76961   0.61401   0.89439   0.00000  Uiso   1.00
O1679  O     0.83333   0.50000   0.75000   0.00000  Uiso   1.00
O1680  O     0.82360   0.45726   0.66625   0.00000  Uiso   1.00
O1681  O     0.79354   0.53979   0.83749   0.00000  Uiso   1.00
O1682  O     0.87755   0.50826   0.65877   0.00000  Uiso   1.00
O1683  O     0.83865   0.49468   0.83749   0.00000  Uiso   1.00
O1684  O     0.84515   0.41434   0.77820   0.00000  Uiso   1.00
O1685  O     0.81247   0.59469   0.76767   0.00000  Uiso   1.00
O1686  O     0.74119   0.46584   0.73607   0.00000  Uiso   1.00
O1687  O     0.93452   0.52512   0.71805   0.00000  Uiso   1.00
O1688  O     0.73656   0.52293   0.77820   0.00000  Uiso   1.00
O1689  O     0.92106   0.48610   0.76767   0.00000  Uiso   1.00
O1690  O     0.80467   0.40236   0.73607   0.00000  Uiso   1.00
O1691  O     0.87104   0.58860   0.71805   0.00000  Uiso   1.00
Zn1692 Zn    0.85910   0.47423   0.78277   0.00000  Uiso   1.00
Zn1693 Zn    0.80125   0.45711   0.72257   0.00000  Uiso   1.00
Zn1694 Zn    0.87833   0.52997   0.71188   0.00000  Uiso   1.00
Zn1695 Zn    0.79465   0.53868   0.78277   0.00000  Uiso   1.00
C1696  C     0.05288   0.82688   0.75790   0.00000  Uiso   1.00
C1697  C     0.17504   0.77939   0.96322   0.00000  Uiso   1.00
C1698  C     0.19246   0.75584   0.98294   0.00000  Uiso   1.00
C1699  C     0.28089   0.84001   0.74161   0.00000  Uiso   1.00
C1700  C     0.19328   0.76818   0.52271   0.00000  Uiso   1.00
C1701  C     0.17356   0.80421   0.54280   0.00000  Uiso   1.00
C1702  C     0.21328   0.74566   0.54283   0.00000  Uiso   1.00
C1703  C     0.21317   0.76014   0.58318   0.00000  Uiso   1.00
C1704  C     0.18135   0.82150   0.57923   0.00000  Uiso   1.00
C1705  C     0.32622   0.84249   0.74008   0.00000  Uiso   1.00
C1706  C     0.00734   0.82173   0.76327   0.00000  Uiso   1.00
C1707  C     0.11162   0.89659   0.92300   0.00000  Uiso   1.00
C1708  C     0.18565   0.99018   0.74540   0.00000  Uiso   1.00
C1709  C     0.15092   0.67819   0.75849   0.00000  Uiso   1.00
C1710  C     0.15568   0.72270   0.75854   0.00000  Uiso   1.00
C1711  C     0.17792   0.94462   0.74267   0.00000  Uiso   1.00
C1712  C     0.18828   0.81125   0.64376   0.00000  Uiso   1.00
C1713  C     0.14604   0.85536   0.85654   0.00000  Uiso   1.00
C1714  C     0.13565   0.86393   0.90083   0.00000  Uiso   1.00
C1715  C     0.19744   0.79871   0.60071   0.00000  Uiso   1.00
C1716  C     0.09682   0.89844   0.96514   0.00000  Uiso   1.00
C1717  C     0.23240   0.70544   0.52212   0.00000  Uiso   1.00
C1718  C     0.14940   0.83749   0.92110   0.00000  Uiso   1.00
C1719  C     0.19690   0.66860   0.52239   0.00000  Uiso   1.00
C1720  C     0.21530   0.96168   0.50116   0.00000  Uiso   1.00
C1721  C     0.31273   0.79229   0.79307   0.00000  Uiso   1.00
C1722  C     0.00423   0.77063   0.81387   0.00000  Uiso   1.00
C1723  C     0.30692   0.74254   0.84327   0.00000  Uiso   1.00
C1724  C     0.23135   0.68037   0.73705   0.00000  Uiso   1.00
C1725  C     0.26905   0.98708   0.72255   0.00000  Uiso   1.00
C1726  C     0.31210   0.68072   0.72039   0.00000  Uiso   1.00
C1727  C     0.23015   0.73508   0.60734   0.00000  Uiso   1.00
C1728  C     0.27903   0.74557   0.60043   0.00000  Uiso   1.00
C1729  C     0.13827   0.84057   0.96296   0.00000  Uiso   1.00
C1730  C     0.29775   0.71273   0.61484   0.00000  Uiso   1.00
C1731  C     0.06495   0.92909   0.98817   0.00000  Uiso   1.00
C1732  C     0.08764   0.96896   0.50604   0.00000  Uiso   1.00
C1733  C     0.05560   0.99909   0.52997   0.00000  Uiso   1.00
C1734  C     0.09049   0.84496   0.59104   0.00000  Uiso   1.00
C1735  C     0.07252   0.79984   0.59938   0.00000  Uiso   1.00
C1736  C     0.04777   0.79837   0.64312   0.00000  Uiso   1.00
C1737  C     0.11137   0.87105   0.98516   0.00000  Uiso   1.00
C1738  C     0.15423   0.81457   0.98320   0.00000  Uiso   1.00
C1739  C     0.14815   0.82317   0.52504   0.00000  Uiso   1.00
C1740  C     0.11492   0.84809   0.54726   0.00000  Uiso   1.00
C1741  C     0.09887   0.87282   0.52697   0.00000  Uiso   1.00
H1742  H     0.07608   0.89351   0.54479   0.00000  Uiso   1.00
H1743  H     0.17916   0.99707   0.55365   0.00000  Uiso   1.00
H1744  H     0.17363   0.67549   0.50738   0.00000  Uiso   1.00
H1745  H     0.25198   0.70969   0.99130   0.00000  Uiso   1.00
H1746  H     0.25589   0.69725   0.53608   0.00000  Uiso   1.00
H1747  H     0.28451   0.76129   0.86686   0.00000  Uiso   1.00
H1748  H     0.28805   0.71800   0.82756   0.00000  Uiso   1.00
H1749  H     0.32569   0.72714   0.85758   0.00000  Uiso   1.00
H1750  H     0.02681   0.75107   0.79135   0.00000  Uiso   1.00
H1751  H     0.02295   0.79447   0.83042   0.00000  Uiso   1.00
H1752  H     0.28990   0.81059   0.81674   0.00000  Uiso   1.00
H1753  H     0.01555   0.86208   0.71923   0.00000  Uiso   1.00
H1754  H     0.29454   0.76731   0.77705   0.00000  Uiso   1.00
H1755  H     0.31642   0.70593   0.70124   0.00000  Uiso   1.00
H1756  H     0.31384   0.69489   0.75068   0.00000  Uiso   1.00
H1757  H     0.00542   0.99435   0.70763   0.00000  Uiso   1.00
H1758  H     0.26545   0.96364   0.74342   0.00000  Uiso   1.00
H1759  H     0.26978   0.97089   0.69226   0.00000  Uiso   1.00
H1760  H     0.23490   0.70190   0.71444   0.00000  Uiso   1.00
H1761  H     0.23474   0.69954   0.76517   0.00000  Uiso   1.00
H1762  H     0.29035   0.68127   0.59941   0.00000  Uiso   1.00
H1763  H     0.33320   0.71998   0.60807   0.00000  Uiso   1.00
H1764  H     0.17422   0.85269   0.59175   0.00000  Uiso   1.00
H1765  H     0.28422   0.71239   0.64747   0.00000  Uiso   1.00
H1766  H     0.29534   0.74731   0.56832   0.00000  Uiso   1.00
H1767  H     0.28608   0.77665   0.61678   0.00000  Uiso   1.00
H1768  H     0.21474   0.74092   0.63976   0.00000  Uiso   1.00
H1769  H     0.22113   0.70116   0.60009   0.00000  Uiso   1.00
H1770  H     0.03785   0.67494   0.51063   0.00000  Uiso   1.00
H1771  H     0.03230   0.98425   0.55515   0.00000  Uiso   1.00
H1772  H     0.07308   0.69433   0.54222   0.00000  Uiso   1.00
H1773  H     0.10543   0.96107   0.52596   0.00000  Uiso   1.00
H1774  H     0.11113   0.98488   0.98166   0.00000  Uiso   1.00
H1775  H     0.20624   0.72855   0.96573   0.00000  Uiso   1.00
H1776  H     0.04675   0.93754   0.96895   0.00000  Uiso   1.00
H1777  H     0.03918   0.91401   0.51156   0.00000  Uiso   1.00
H1778  H     0.06843   0.81350   0.66268   0.00000  Uiso   1.00
H1779  H     0.01855   0.81461   0.65017   0.00000  Uiso   1.00
H1780  H     0.03786   0.76546   0.64939   0.00000  Uiso   1.00
H1781  H     0.05063   0.78666   0.58036   0.00000  Uiso   1.00
H1782  H     0.09875   0.77975   0.59249   0.00000  Uiso   1.00
H1783  H     0.10959   0.85993   0.61173   0.00000  Uiso   1.00
H1784  H     0.06238   0.86308   0.59957   0.00000  Uiso   1.00
H1785  H     0.17033   0.81526   0.90322   0.00000  Uiso   1.00
H1786  H     0.17644   0.76769   0.93264   0.00000  Uiso   1.00
H1787  H     0.23235   0.96544   0.96955   0.00000  Uiso   1.00
H1788  H     0.23799   0.95338   0.51618   0.00000  Uiso   1.00
H1789  H     0.18874   0.93579   0.50196   0.00000  Uiso   1.00
I1790  I     0.08486   0.98496   0.76607   0.00000  Uiso   1.00
I1791  I     0.10294   0.94734   0.89439   0.00000  Uiso   1.00
O1792  O     0.16667   0.83333   0.75000   0.00000  Uiso   1.00
O1793  O     0.15693   0.79060   0.66625   0.00000  Uiso   1.00
O1794  O     0.12687   0.87313   0.83749   0.00000  Uiso   1.00
O1795  O     0.21088   0.84159   0.65877   0.00000  Uiso   1.00
O1796  O     0.17198   0.82802   0.83749   0.00000  Uiso   1.00
O1797  O     0.17849   0.74768   0.77820   0.00000  Uiso   1.00
O1798  O     0.14581   0.92803   0.76767   0.00000  Uiso   1.00
O1799  O     0.07452   0.79917   0.73607   0.00000  Uiso   1.00
O1800  O     0.26785   0.85845   0.71805   0.00000  Uiso   1.00
O1801  O     0.06990   0.85627   0.77820   0.00000  Uiso   1.00
O1802  O     0.25440   0.81944   0.76767   0.00000  Uiso   1.00
O1803  O     0.13800   0.73570   0.73607   0.00000  Uiso   1.00
O1804  O     0.20437   0.92193   0.71805   0.00000  Uiso   1.00
Zn1805 Zn    0.19244   0.80756   0.78277   0.00000  Uiso   1.00
Zn1806 Zn    0.13459   0.79044   0.72257   0.00000  Uiso   1.00
Zn1807 Zn    0.21166   0.86331   0.71188   0.00000  Uiso   1.00
Zn1808 Zn    0.12798   0.87202   0.78277   0.00000  Uiso   1.00
C1809  C     0.38621   0.82688   0.75790   0.00000  Uiso   1.00
C1810  C     0.50838   0.77939   0.96322   0.00000  Uiso   1.00
C1811  C     0.52579   0.75584   0.98294   0.00000  Uiso   1.00
C1812  C     0.61422   0.84001   0.74161   0.00000  Uiso   1.00
C1813  C     0.52661   0.76818   0.52271   0.00000  Uiso   1.00
C1814  C     0.50689   0.80421   0.54280   0.00000  Uiso   1.00
C1815  C     0.54661   0.74566   0.54283   0.00000  Uiso   1.00
C1816  C     0.54650   0.76014   0.58318   0.00000  Uiso   1.00
C1817  C     0.51469   0.82150   0.57923   0.00000  Uiso   1.00
C1818  C     0.65955   0.84249   0.74008   0.00000  Uiso   1.00
C1819  C     0.34067   0.82173   0.76327   0.00000  Uiso   1.00
C1820  C     0.44495   0.89659   0.92300   0.00000  Uiso   1.00
C1821  C     0.51899   0.99018   0.74540   0.00000  Uiso   1.00
C1822  C     0.48425   0.67819   0.75849   0.00000  Uiso   1.00
C1823  C     0.48901   0.72270   0.75854   0.00000  Uiso   1.00
C1824  C     0.51125   0.94462   0.74267   0.00000  Uiso   1.00
C1825  C     0.52162   0.81125   0.64376   0.00000  Uiso   1.00
C1826  C     0.47937   0.85536   0.85654   0.00000  Uiso   1.00
C1827  C     0.46898   0.86393   0.90083   0.00000  Uiso   1.00
C1828  C     0.53077   0.79871   0.60071   0.00000  Uiso   1.00
C1829  C     0.43015   0.89844   0.96514   0.00000  Uiso   1.00
C1830  C     0.56574   0.70544   0.52212   0.00000  Uiso   1.00
C1831  C     0.48274   0.83749   0.92110   0.00000  Uiso   1.00
C1832  C     0.53023   0.66860   0.52239   0.00000  Uiso   1.00
C1833  C     0.54863   0.96168   0.50116   0.00000  Uiso   1.00
C1834  C     0.64606   0.79229   0.79307   0.00000  Uiso   1.00
C1835  C     0.33756   0.77063   0.81387   0.00000  Uiso   1.00
C1836  C     0.64026   0.74254   0.84327   0.00000  Uiso   1.00
C1837  C     0.56469   0.68037   0.73705   0.00000  Uiso   1.00
C1838  C     0.60239   0.98708   0.72255   0.00000  Uiso   1.00
C1839  C     0.64543   0.68072   0.72039   0.00000  Uiso   1.00
C1840  C     0.56348   0.73508   0.60734   0.00000  Uiso   1.00
C1841  C     0.61236   0.74557   0.60043   0.00000  Uiso   1.00
C1842  C     0.47161   0.84057   0.96296   0.00000  Uiso   1.00
C1843  C     0.63109   0.71273   0.61484   0.00000  Uiso   1.00
C1844  C     0.39828   0.92909   0.98817   0.00000  Uiso   1.00
C1845  C     0.42097   0.96896   0.50604   0.00000  Uiso   1.00
C1846  C     0.38893   0.99909   0.52997   0.00000  Uiso   1.00
C1847  C     0.42383   0.84496   0.59104   0.00000  Uiso   1.00
C1848  C     0.40585   0.79984   0.59938   0.00000  Uiso   1.00
C1849  C     0.38110   0.79837   0.64312   0.00000  Uiso   1.00
C1850  C     0.44471   0.87105   0.98516   0.00000  Uiso   1.00
C1851  C     0.48757   0.81457   0.98320   0.00000  Uiso   1.00
C1852  C     0.48148   0.82317   0.52504   0.00000  Uiso   1.00
C1853  C     0.44826   0.84809   0.54726   0.00000  Uiso   1.00
C1854  C     0.43221   0.87282   0.52697   0.00000  Uiso   1.00
H1855  H     0.40941   0.89351   0.54479   0.00000  Uiso   1.00
H1856  H     0.51249   0.99707   0.55365   0.00000  Uiso   1.00
H1857  H     0.50696   0.67549   0.50738   0.00000  Uiso   1.00
H1858  H     0.58532   0.70969   0.99130   0.00000  Uiso   1.00
H1859  H     0.58923   0.69725   0.53608   0.00000  Uiso   1.00
H1860  H     0.61784   0.76129   0.86686   0.00000  Uiso   1.00
H1861  H     0.62138   0.71800   0.82756   0.00000  Uiso   1.00
H1862  H     0.65902   0.72714   0.85758   0.00000  Uiso   1.00
H1863  H     0.36014   0.75107   0.79135   0.00000  Uiso   1.00
H1864  H     0.35629   0.79447   0.83042   0.00000  Uiso   1.00
H1865  H     0.62324   0.81059   0.81674   0.00000  Uiso   1.00
H1866  H     0.34889   0.86208   0.71923   0.00000  Uiso   1.00
H1867  H     0.62788   0.76731   0.77705   0.00000  Uiso   1.00
H1868  H     0.64975   0.70593   0.70124   0.00000  Uiso   1.00
H1869  H     0.64718   0.69489   0.75068   0.00000  Uiso   1.00
H1870  H     0.33875   0.99435   0.70763   0.00000  Uiso   1.00
H1871  H     0.59879   0.96364   0.74342   0.00000  Uiso   1.00
H1872  H     0.60312   0.97089   0.69226   0.00000  Uiso   1.00
H1873  H     0.56823   0.70190   0.71444   0.00000  Uiso   1.00
H1874  H     0.56807   0.69954   0.76517   0.00000  Uiso   1.00
H1875  H     0.62368   0.68127   0.59941   0.00000  Uiso   1.00
H1876  H     0.66654   0.71998   0.60807   0.00000  Uiso   1.00
H1877  H     0.50756   0.85269   0.59175   0.00000  Uiso   1.00
H1878  H     0.61755   0.71239   0.64747   0.00000  Uiso   1.00
H1879  H     0.62867   0.74731   0.56832   0.00000  Uiso   1.00
H1880  H     0.61941   0.77665   0.61678   0.00000  Uiso   1.00
H1881  H     0.54807   0.74092   0.63976   0.00000  Uiso   1.00
H1882  H     0.55447   0.70116   0.60009   0.00000  Uiso   1.00
H1883  H     0.37118   0.67494   0.51063   0.00000  Uiso   1.00
H1884  H     0.36564   0.98425   0.55515   0.00000  Uiso   1.00
H1885  H     0.40641   0.69433   0.54222   0.00000  Uiso   1.00
H1886  H     0.43876   0.96107   0.52596   0.00000  Uiso   1.00
H1887  H     0.44446   0.98488   0.98166   0.00000  Uiso   1.00
H1888  H     0.53958   0.72855   0.96573   0.00000  Uiso   1.00
H1889  H     0.38008   0.93754   0.96895   0.00000  Uiso   1.00
H1890  H     0.37251   0.91401   0.51156   0.00000  Uiso   1.00
H1891  H     0.40177   0.81350   0.66268   0.00000  Uiso   1.00
H1892  H     0.35188   0.81461   0.65017   0.00000  Uiso   1.00
H1893  H     0.37120   0.76546   0.64939   0.00000  Uiso   1.00
H1894  H     0.38396   0.78666   0.58036   0.00000  Uiso   1.00
H1895  H     0.43208   0.77975   0.59249   0.00000  Uiso   1.00
H1896  H     0.44293   0.85993   0.61173   0.00000  Uiso   1.00
H1897  H     0.39571   0.86308   0.59957   0.00000  Uiso   1.00
H1898  H     0.50367   0.81526   0.90322   0.00000  Uiso   1.00
H1899  H     0.50977   0.76769   0.93264   0.00000  Uiso   1.00
H1900  H     0.56568   0.96544   0.96955   0.00000  Uiso   1.00
H1901  H     0.57132   0.95338   0.51618   0.00000  Uiso   1.00
H1902  H     0.52207   0.93579   0.50196   0.00000  Uiso   1.00
I1903  I     0.41820   0.98496   0.76607   0.00000  Uiso   1.00
I1904  I     0.43628   0.94734   0.89439   0.00000  Uiso   1.00
O1905  O     0.50000   0.83333   0.75000   0.00000  Uiso   1.00
O1906  O     0.49027   0.79060   0.66625   0.00000  Uiso   1.00
O1907  O     0.46020   0.87313   0.83749   0.00000  Uiso   1.00
O1908  O     0.54421   0.84159   0.65877   0.00000  Uiso   1.00
O1909  O     0.50532   0.82802   0.83749   0.00000  Uiso   1.00
O1910  O     0.51182   0.74768   0.77820   0.00000  Uiso   1.00
O1911  O     0.47914   0.92803   0.76767   0.00000  Uiso   1.00
O1912  O     0.40785   0.79917   0.73607   0.00000  Uiso   1.00
O1913  O     0.60119   0.85845   0.71805   0.00000  Uiso   1.00
O1914  O     0.40323   0.85627   0.77820   0.00000  Uiso   1.00
O1915  O     0.58773   0.81944   0.76767   0.00000  Uiso   1.00
O1916  O     0.47133   0.73570   0.73607   0.00000  Uiso   1.00
O1917  O     0.53771   0.92193   0.71805   0.00000  Uiso   1.00
Zn1918 Zn    0.52577   0.80756   0.78277   0.00000  Uiso   1.00
Zn1919 Zn    0.46792   0.79044   0.72257   0.00000  Uiso   1.00
Zn1920 Zn    0.54500   0.86331   0.71188   0.00000  Uiso   1.00
Zn1921 Zn    0.46131   0.87202   0.78277   0.00000  Uiso   1.00
C1922  C     0.71955   0.82688   0.75790   0.00000  Uiso   1.00
C1923  C     0.84171   0.77939   0.96322   0.00000  Uiso   1.00
C1924  C     0.85913   0.75584   0.98294   0.00000  Uiso   1.00
C1925  C     0.94755   0.84001   0.74161   0.00000  Uiso   1.00
C1926  C     0.85994   0.76818   0.52271   0.00000  Uiso   1.00
C1927  C     0.84023   0.80421   0.54280   0.00000  Uiso   1.00
C1928  C     0.87995   0.74566   0.54283   0.00000  Uiso   1.00
C1929  C     0.87983   0.76014   0.58318   0.00000  Uiso   1.00
C1930  C     0.84802   0.82150   0.57923   0.00000  Uiso   1.00
C1931  C     0.99288   0.84249   0.74008   0.00000  Uiso   1.00
C1932  C     0.67401   0.82173   0.76327   0.00000  Uiso   1.00
C1933  C     0.77828   0.89659   0.92300   0.00000  Uiso   1.00
C1934  C     0.85232   0.99018   0.74540   0.00000  Uiso   1.00
C1935  C     0.81758   0.67819   0.75849   0.00000  Uiso   1.00
C1936  C     0.82234   0.72270   0.75854   0.00000  Uiso   1.00
C1937  C     0.84458   0.94462   0.74267   0.00000  Uiso   1.00
C1938  C     0.85495   0.81125   0.64376   0.00000  Uiso   1.00
C1939  C     0.81270   0.85536   0.85654   0.00000  Uiso   1.00
C1940  C     0.80232   0.86393   0.90083   0.00000  Uiso   1.00
C1941  C     0.86410   0.79871   0.60071   0.00000  Uiso   1.00
C1942  C     0.76349   0.89844   0.96514   0.00000  Uiso   1.00
C1943  C     0.89907   0.70544   0.52212   0.00000  Uiso   1.00
C1944  C     0.81607   0.83749   0.92110   0.00000  Uiso   1.00
C1945  C     0.86356   0.66860   0.52239   0.00000  Uiso   1.00
C1946  C     0.88196   0.96168   0.50116   0.00000  Uiso   1.00
C1947  C     0.97939   0.79229   0.79307   0.00000  Uiso   1.00
C1948  C     0.67090   0.77063   0.81387   0.00000  Uiso   1.00
C1949  C     0.97359   0.74254   0.84327   0.00000  Uiso   1.00
C1950  C     0.89802   0.68037   0.73705   0.00000  Uiso   1.00
C1951  C     0.93572   0.98708   0.72255   0.00000  Uiso   1.00
C1952  C     0.97877   0.68072   0.72039   0.00000  Uiso   1.00
C1953  C     0.89682   0.73508   0.60734   0.00000  Uiso   1.00
C1954  C     0.94570   0.74557   0.60043   0.00000  Uiso   1.00
C1955  C     0.80494   0.84057   0.96296   0.00000  Uiso   1.00
C1956  C     0.96442   0.71273   0.61484   0.00000  Uiso   1.00
C1957  C     0.73161   0.92909   0.98817   0.00000  Uiso   1.00
C1958  C     0.75430   0.96896   0.50604   0.00000  Uiso   1.00
C1959  C     0.72226   0.99909   0.52997   0.00000  Uiso   1.00
C1960  C     0.75716   0.84496   0.59104   0.00000  Uiso   1.00
C1961  C     0.73918   0.79984   0.59938   0.00000  Uiso   1.00
C1962  C     0.71444   0.79837   0.64312   0.00000  Uiso   1.00
C1963  C     0.77804   0.87105   0.98516   0.00000  Uiso   1.00
C1964  C     0.82090   0.81457   0.98320   0.00000  Uiso   1.00
C1965  C     0.81482   0.82317   0.52504   0.00000  Uiso   1.00
C1966  C     0.78159   0.84809   0.54726   0.00000  Uiso   1.00
C1967  C     0.76554   0.87282   0.52697   0.00000  Uiso   1.00
H1968  H     0.74274   0.89351   0.54479   0.00000  Uiso   1.00
H1969  H     0.84583   0.99707   0.55365   0.00000  Uiso   1.00
H1970  H     0.84029   0.67549   0.50738   0.00000  Uiso   1.00
H1971  H     0.91865   0.70969   0.99130   0.00000  Uiso   1.00
H1972  H     0.92256   0.69725   0.53608   0.00000  Uiso   1.00
H1973  H     0.95117   0.76129   0.86686   0.00000  Uiso   1.00
H1974  H     0.95472   0.71800   0.82756   0.00000  Uiso   1.00
H1975  H     0.99236   0.72714   0.85758   0.00000  Uiso   1.00
H1976  H     0.69348   0.75107   0.79135   0.00000  Uiso   1.00
H1977  H     0.68962   0.79447   0.83042   0.00000  Uiso   1.00
H1978  H     0.95657   0.81059   0.81674   0.00000  Uiso   1.00
H1979  H     0.68222   0.86208   0.71923   0.00000  Uiso   1.00
H1980  H     0.96121   0.76731   0.77705   0.00000  Uiso   1.00
H1981  H     0.98309   0.70593   0.70124   0.00000  Uiso   1.00
H1982  H     0.98051   0.69489   0.75068   0.00000  Uiso   1.00
H1983  H     0.67209   0.99435   0.70763   0.00000  Uiso   1.00
H1984  H     0.93212   0.96364   0.74342   0.00000  Uiso   1.00
H1985  H     0.93645   0.97089   0.69226   0.00000  Uiso   1.00
H1986  H     0.90156   0.70190   0.71444   0.00000  Uiso   1.00
H1987  H     0.90141   0.69954   0.76517   0.00000  Uiso   1.00
H1988  H     0.95701   0.68127   0.59941   0.00000  Uiso   1.00
H1989  H     0.99987   0.71998   0.60807   0.00000  Uiso   1.00
H1990  H     0.84089   0.85269   0.59175   0.00000  Uiso   1.00
H1991  H     0.95088   0.71239   0.64747   0.00000  Uiso   1.00
H1992  H     0.96201   0.74731   0.56832   0.00000  Uiso   1.00
H1993  H     0.95274   0.77665   0.61678   0.00000  Uiso   1.00
H1994  H     0.88140   0.74092   0.63976   0.00000  Uiso   1.00
H1995  H     0.88780   0.70116   0.60009   0.00000  Uiso   1.00
H1996  H     0.70451   0.67494   0.51063   0.00000  Uiso   1.00
H1997  H     0.69897   0.98425   0.55515   0.00000  Uiso   1.00
H1998  H     0.73975   0.69433   0.54222   0.00000  Uiso   1.00
H1999  H     0.77210   0.96107   0.52596   0.00000  Uiso   1.00
H2000  H     0.77779   0.98488   0.98166   0.00000  Uiso   1.00
H2001  H     0.87291   0.72855   0.96573   0.00000  Uiso   1.00
H2002  H     0.71342   0.93754   0.96895   0.00000  Uiso   1.00
H2003  H     0.70584   0.91401   0.51156   0.00000  Uiso   1.00
H2004  H     0.73510   0.81350   0.66268   0.00000  Uiso   1.00
H2005  H     0.68522   0.81461   0.65017   0.00000  Uiso   1.00
H2006  H     0.70453   0.76546   0.64939   0.00000  Uiso   1.00
H2007  H     0.71729   0.78666   0.58036   0.00000  Uiso   1.00
H2008  H     0.76542   0.77975   0.59249   0.00000  Uiso   1.00
H2009  H     0.77626   0.85993   0.61173   0.00000  Uiso   1.00
H2010  H     0.72905   0.86308   0.59957   0.00000  Uiso   1.00
H2011  H     0.83700   0.81526   0.90322   0.00000  Uiso   1.00
H2012  H     0.84310   0.76769   0.93264   0.00000  Uiso   1.00
H2013  H     0.89902   0.96544   0.96955   0.00000  Uiso   1.00
H2014  H     0.90465   0.95338   0.51618   0.00000  Uiso   1.00
H2015  H     0.85541   0.93579   0.50196   0.00000  Uiso   1.00
I2016  I     0.75153   0.98496   0.76607   0.00000  Uiso   1.00
I2017  I     0.76961   0.94734   0.89439   0.00000  Uiso   1.00
O2018  O     0.83333   0.83333   0.75000   0.00000  Uiso   1.00
O2019  O     0.82360   0.79060   0.66625   0.00000  Uiso   1.00
O2020  O     0.79354   0.87313   0.83749   0.00000  Uiso   1.00
O2021  O     0.87755   0.84159   0.65877   0.00000  Uiso   1.00
O2022  O     0.83865   0.82802   0.83749   0.00000  Uiso   1.00
O2023  O     0.84515   0.74768   0.77820   0.00000  Uiso   1.00
O2024  O     0.81247   0.92803   0.76767   0.00000  Uiso   1.00
O2025  O     0.74119   0.79917   0.73607   0.00000  Uiso   1.00
O2026  O     0.93452   0.85845   0.71805   0.00000  Uiso   1.00
O2027  O     0.73656   0.85627   0.77820   0.00000  Uiso   1.00
O2028  O     0.92106   0.81944   0.76767   0.00000  Uiso   1.00
O2029  O     0.80467   0.73570   0.73607   0.00000  Uiso   1.00
O2030  O     0.87104   0.92193   0.71805   0.00000  Uiso   1.00
Zn2031 Zn    0.85910   0.80756   0.78277   0.00000  Uiso   1.00
Zn2032 Zn    0.80125   0.79044   0.72257   0.00000  Uiso   1.00
Zn2033 Zn    0.87833   0.86331   0.71188   0.00000  Uiso   1.00
Zn2034 Zn    0.79465   0.87202   0.78277   0.00000  Uiso   1.00
loop_
_geom_bond_atom_site_label_1
_geom_bond_atom_site_label_2
_geom_bond_distance
_geom_bond_site_symmetry_2
_ccdc_geom_bond_type
C1     C11     1.431   .     S
C1     O106    1.261   .     A
C1     O104    1.257   .     A
C2     C43     1.412   .     A
C2     C3      1.386   .     A
C2     H91     1.077   .     S
C3     H80     1.079   .     S
C3     C1022   1.405   .     S
C4     O107    1.265   .     A
C4     C10     1.456   .     S
C4     O105    1.291   .     A
C5     C7      1.430   .     A
C5     C6      1.419   .     A
C5     C1020   1.405   1_554 S
C6     C9      1.397   .     A
C6     C44     1.428   .     A
C7     C8      1.427   .     A
C7     C22     1.530   .     S
C8     C32     1.525   .     S
C8     C20     1.416   .     A
C9     H69     1.077   .     S
C9     C20     1.387   .     A
C10    C124    1.356   .     S
C10    H171    1.088   .     S
C11    C236    1.356   1_455 S
C11    C252    1.533   1_455 S
C12    C21     1.419   .     A
C12    C19     1.419   .     A
C12    I96     2.159   .     S
C13    C16     1.461   .     S
C13    C353    1.353   .     S
C13    C368    1.539   .     S
C14    C15     1.436   .     S
C14    C691    1.353   1_545 S
C14    I773    2.155   1_545 S
C15    O108    1.258   .     A
C15    O102    1.278   .     A
C16    O103    1.270   .     A
C16    O109    1.272   .     A
C17    C20     1.465   .     S
C17    O98     1.272   .     A
C17    O100    1.281   .     A
C18    C19     1.491   .     S
C18    O101    1.299   .     A
C18    O99     1.285   .     A
C19    C23     1.396   .     A
C21    C36     1.526   .     S
C21    C42     1.428   .     A
C22    C24     1.535   .     S
C22    H51     1.105   .     S
C22    H1067   1.109   1_554 S
C23    C34     1.406   .     A
C23    H90     1.075   .     S
C24    H49     1.108   .     S
C24    C703    1.526   1_545 S
C24    H726    1.111   1_545 S
C25    H93     1.111   .     S
C25    H94     1.111   .     S
C25    C363    1.526   .     S
C25    H1109   1.111   1_554 S
C26    H59     1.112   .     S
C26    H57     1.112   .     S
C26    C124    1.533   .     S
C26    C140    1.540   .     S
C27    H55     1.112   .     S
C27    H56     1.112   .     S
C27    C252    1.540   1_455 S
C27    C254    1.527   1_455 S
C28    H54     1.110   .     S
C28    H53     1.111   .     S
C28    H52     1.111   .     S
C28    C140    1.527   .     S
C29    H66     1.112   .     S
C29    H65     1.112   .     S
C29    C691    1.539   1_545 S
C29    C708    1.538   1_545 S
C30    H64     1.111   .     S
C30    H63     1.112   .     S
C30    C368    1.538   .     S
C30    C370    1.528   .     S
C31    H61     1.110   .     S
C31    H60     1.110   .     S
C31    C708    1.528   1_545 S
C31    H853    1.110   1_545 S
C32    H74     1.110   .     S
C32    H73     1.109   .     S
C32    C33     1.536   .     S
C33    H72     1.112   .     S
C33    C35     1.526   .     S
C33    H71     1.111   .     S
C34    C42     1.418   .     A
C34    C43     1.427   .     A
C35    H70     1.109   .     S
C35    H67     1.111   .     S
C35    H68     1.109   .     S
C36    H81     1.108   .     S
C36    C1054   1.535   .     S
C36    H1099   1.109   .     S
C37    C38     1.526   .     S
C37    H78     1.110   .     S
C37    C1053   1.535   1_554 S
C37    H1096   1.111   1_554 S
C38    H76     1.111   .     S
C38    H414    1.111   .     S
C38    H416    1.111   .     S
C39    H88     1.103   .     S
C39    C40     1.538   .     S
C39    C45     1.532   .     S
C39    H89     1.113   .     S
C40    H87     1.108   .     S
C40    H86     1.112   .     S
C40    C41     1.527   .     S
C41    H83     1.110   .     S
C41    H84     1.111   .     S
C41    H85     1.109   .     S
C42    C1063   1.407   .     S
C43    C1061   1.420   .     S
C44    C45     1.429   .     A
C44    C1060   1.420   1_554 S
C45    C46     1.400   .     A
C46    H47     1.078   .     S
C46    C1059   1.407   1_554 S
H48    C363    1.111   .     S
H50    C1039   1.109   .     S
H58    C236    1.088   1_455 S
H62    C596    1.110   1_455 S
H75    C716    1.111   1_545 S
H77    C716    1.111   1_545 S
H79    C1054   1.111   .     S
H82    C1053   1.109   1_554 S
H92    C1042   1.111   .     S
I95    C353    2.155   .     S
O97    Zn111   1.924   .     S
O97    Zn112   1.938   .     S
O97    Zn110   1.956   .     S
O97    Zn113   1.932   .     S
O98    Zn111   1.910   .     S
O99    Zn113   1.914   .     S
O100   Zn112   1.903   .     S
O101   Zn110   1.901   .     S
O102   Zn110   1.929   .     S
O103   Zn113   1.938   .     S
O104   Zn111   1.938   .     S
O105   Zn112   1.942   .     S
O106   Zn113   1.934   .     S
O107   Zn110   1.933   .     S
O108   Zn111   1.945   .     S
O109   Zn112   1.935   .     S
C114   C124    1.431   .     S
C114   O219    1.261   .     A
C114   O217    1.257   .     A
C115   C156    1.412   .     A
C115   C116    1.386   .     A
C115   H204    1.077   .     S
C116   H193    1.079   .     S
C116   C1135   1.405   .     S
C117   O220    1.265   .     A
C117   C123    1.456   .     S
C117   O218    1.291   .     A
C118   C120    1.430   .     A
C118   C119    1.419   .     A
C118   C1133   1.405   1_554 S
C119   C122    1.397   .     A
C119   C157    1.428   .     A
C120   C121    1.427   .     A
C120   C135    1.530   .     S
C121   C145    1.525   .     S
C121   C133    1.416   .     A
C122   H182    1.077   .     S
C122   C133    1.387   .     A
C123   C237    1.356   .     S
C123   H284    1.088   .     S
C125   C134    1.419   .     A
C125   C132    1.419   .     A
C125   I209    2.159   .     S
C126   C129    1.461   .     S
C126   C466    1.353   .     S
C126   C481    1.539   .     S
C127   C128    1.436   .     S
C127   C804    1.353   1_545 S
C127   I886    2.155   1_545 S
C128   O221    1.258   .     A
C128   O215    1.278   .     A
C129   O216    1.270   .     A
C129   O222    1.272   .     A
C130   C133    1.465   .     S
C130   O211    1.272   .     A
C130   O213    1.281   .     A
C131   C132    1.491   .     S
C131   O214    1.299   .     A
C131   O212    1.285   .     A
C132   C136    1.396   .     A
C134   C149    1.526   .     S
C134   C155    1.428   .     A
C135   C137    1.535   .     S
C135   H164    1.105   .     S
C135   H1180   1.109   1_554 S
C136   C147    1.406   .     A
C136   H203    1.075   .     S
C137   H162    1.108   .     S
C137   C816    1.526   1_545 S
C137   H839    1.111   1_545 S
C138   H206    1.111   .     S
C138   H207    1.111   .     S
C138   C476    1.526   .     S
C138   H1222   1.111   1_554 S
C139   H172    1.112   .     S
C139   H170    1.112   .     S
C139   C237    1.533   .     S
C139   C253    1.540   .     S
C140   H168    1.112   .     S
C140   H169    1.112   .     S
C141   H167    1.110   .     S
C141   H166    1.111   .     S
C141   H165    1.111   .     S
C141   C253    1.527   .     S
C142   H179    1.112   .     S
C142   H178    1.112   .     S
C142   C804    1.539   1_545 S
C142   C821    1.538   1_545 S
C143   H177    1.111   .     S
C143   H176    1.112   .     S
C143   C481    1.538   .     S
C143   C483    1.528   .     S
C144   H174    1.110   .     S
C144   H173    1.110   .     S
C144   C821    1.528   1_545 S
C144   H966    1.110   1_545 S
C145   H187    1.110   .     S
C145   H186    1.109   .     S
C145   C146    1.536   .     S
C146   H185    1.112   .     S
C146   C148    1.526   .     S
C146   H184    1.111   .     S
C147   C155    1.418   .     A
C147   C156    1.427   .     A
C148   H183    1.109   .     S
C148   H180    1.111   .     S
C148   H181    1.109   .     S
C149   H194    1.108   .     S
C149   C1167   1.535   .     S
C149   H1212   1.109   .     S
C150   C151    1.526   .     S
C150   H191    1.110   .     S
C150   C1166   1.535   1_554 S
C150   H1209   1.111   1_554 S
C151   H189    1.111   .     S
C151   H527    1.111   .     S
C151   H529    1.111   .     S
C152   H201    1.103   .     S
C152   C153    1.538   .     S
C152   C158    1.532   .     S
C152   H202    1.113   .     S
C153   H200    1.108   .     S
C153   H199    1.112   .     S
C153   C154    1.527   .     S
C154   H196    1.110   .     S
C154   H197    1.111   .     S
C154   H198    1.109   .     S
C155   C1176   1.407   .     S
C156   C1174   1.420   .     S
C157   C158    1.429   .     A
C157   C1173   1.420   1_554 S
C158   C159    1.400   .     A
C159   H160    1.078   .     S
C159   C1172   1.407   1_554 S
H161   C476    1.111   .     S
H163   C1152   1.109   .     S
H175   C370    1.110   .     S
H188   C829    1.111   1_545 S
H190   C829    1.111   1_545 S
H192   C1167   1.111   .     S
H195   C1166   1.109   1_554 S
H205   C1155   1.111   .     S
I208   C466    2.155   .     S
O210   Zn224   1.924   .     S
O210   Zn225   1.938   .     S
O210   Zn223   1.956   .     S
O210   Zn226   1.932   .     S
O211   Zn224   1.910   .     S
O212   Zn226   1.914   .     S
O213   Zn225   1.903   .     S
O214   Zn223   1.901   .     S
O215   Zn223   1.929   .     S
O216   Zn226   1.938   .     S
O217   Zn224   1.938   .     S
O218   Zn225   1.942   .     S
O219   Zn226   1.934   .     S
O220   Zn223   1.933   .     S
O221   Zn224   1.945   .     S
O222   Zn225   1.935   .     S
C227   C237    1.431   .     S
C227   O332    1.261   .     A
C227   O330    1.257   .     A
C228   C269    1.412   .     A
C228   C229    1.386   .     A
C228   H317    1.077   .     S
C229   H306    1.079   .     S
C229   C1248   1.405   .     S
C230   O333    1.265   .     A
C230   C236    1.456   .     S
C230   O331    1.291   .     A
C231   C233    1.430   .     A
C231   C232    1.419   .     A
C231   C1246   1.405   1_554 S
C232   C235    1.397   .     A
C232   C270    1.428   .     A
C233   C234    1.427   .     A
C233   C248    1.530   .     S
C234   C258    1.525   .     S
C234   C246    1.416   .     A
C235   H295    1.077   .     S
C235   C246    1.387   .     A
C236   C11     1.356   1_655 S
C236   H58     1.088   1_655 S
C238   C247    1.419   .     A
C238   C245    1.419   .     A
C238   I322    2.159   .     S
C239   C242    1.461   .     S
C239   C579    1.353   .     S
C239   C594    1.539   .     S
C240   C241    1.436   .     S
C240   C917    1.353   1_545 S
C240   I999    2.155   1_545 S
C241   O334    1.258   .     A
C241   O328    1.278   .     A
C242   O329    1.270   .     A
C242   O335    1.272   .     A
C243   C246    1.465   .     S
C243   O324    1.272   .     A
C243   O326    1.281   .     A
C244   C245    1.491   .     S
C244   O327    1.299   .     A
C244   O325    1.285   .     A
C245   C249    1.396   .     A
C247   C262    1.526   .     S
C247   C268    1.428   .     A
C248   C250    1.535   .     S
C248   H277    1.105   .     S
C248   H1293   1.109   1_554 S
C249   C260    1.406   .     A
C249   H316    1.075   .     S
C250   H275    1.108   .     S
C250   C929    1.526   1_545 S
C250   H952    1.111   1_545 S
C251   H319    1.111   .     S
C251   H320    1.111   .     S
C251   C589    1.526   .     S
C251   H1335   1.111   1_554 S
C252   H285    1.112   .     S
C252   H283    1.112   .     S
C252   C11     1.533   1_655 S
C252   C27     1.540   1_655 S
C253   H281    1.112   .     S
C253   H282    1.112   .     S
C254   H280    1.110   .     S
C254   H279    1.111   .     S
C254   H278    1.111   .     S
C254   C27     1.527   1_655 S
C255   H292    1.112   .     S
C255   H291    1.112   .     S
C255   C917    1.539   1_545 S
C255   C934    1.538   1_545 S
C256   H290    1.111   .     S
C256   H289    1.112   .     S
C256   C594    1.538   .     S
C256   C596    1.528   .     S
C257   H287    1.110   .     S
C257   H286    1.110   .     S
C257   C934    1.528   1_545 S
C257   H740    1.110   1_645 S
C258   H300    1.110   .     S
C258   H299    1.109   .     S
C258   C259    1.536   .     S
C259   H298    1.112   .     S
C259   C261    1.526   .     S
C259   H297    1.111   .     S
C260   C268    1.418   .     A
C260   C269    1.427   .     A
C261   H296    1.109   .     S
C261   H293    1.111   .     S
C261   H294    1.109   .     S
C262   H307    1.108   .     S
C262   C1280   1.535   .     S
C262   H1325   1.109   .     S
C263   C264    1.526   .     S
C263   H304    1.110   .     S
C263   C1279   1.535   1_554 S
C263   H1322   1.111   1_554 S
C264   H302    1.111   .     S
C264   H640    1.111   .     S
C264   H642    1.111   .     S
C265   H314    1.103   .     S
C265   C266    1.538   .     S
C265   C271    1.532   .     S
C265   H315    1.113   .     S
C266   H313    1.108   .     S
C266   H312    1.112   .     S
C266   C267    1.527   .     S
C267   H309    1.110   .     S
C267   H310    1.111   .     S
C267   H311    1.109   .     S
C268   C1289   1.407   .     S
C269   C1287   1.420   .     S
C270   C271    1.429   .     A
C270   C1286   1.420   1_554 S
C271   C272    1.400   .     A
C272   H273    1.078   .     S
C272   C1285   1.407   1_554 S
H274   C589    1.111   .     S
H276   C1265   1.109   .     S
H288   C483    1.110   .     S
H301   C942    1.111   1_545 S
H303   C942    1.111   1_545 S
H305   C1280   1.111   .     S
H308   C1279   1.109   1_554 S
H318   C1268   1.111   .     S
I321   C579    2.155   .     S
O323   Zn337   1.924   .     S
O323   Zn338   1.938   .     S
O323   Zn336   1.956   .     S
O323   Zn339   1.932   .     S
O324   Zn337   1.910   .     S
O325   Zn339   1.914   .     S
O326   Zn338   1.903   .     S
O327   Zn336   1.901   .     S
O328   Zn336   1.929   .     S
O329   Zn339   1.938   .     S
O330   Zn337   1.938   .     S
O331   Zn338   1.942   .     S
O332   Zn339   1.934   .     S
O333   Zn336   1.933   .     S
O334   Zn337   1.945   .     S
O335   Zn338   1.935   .     S
C340   C350    1.431   .     S
C340   O445    1.261   .     A
C340   O443    1.257   .     A
C341   C382    1.412   .     A
C341   C342    1.386   .     A
C341   H430    1.077   .     S
C342   H419    1.079   .     S
C342   C1361   1.405   .     S
C343   O446    1.265   .     A
C343   C349    1.456   .     S
C343   O444    1.291   .     A
C344   C346    1.430   .     A
C344   C345    1.419   .     A
C344   C1359   1.405   1_554 S
C345   C348    1.397   .     A
C345   C383    1.428   .     A
C346   C347    1.427   .     A
C346   C361    1.530   .     S
C347   C371    1.525   .     S
C347   C359    1.416   .     A
C348   H408    1.077   .     S
C348   C359    1.387   .     A
C349   C463    1.356   .     S
C349   H510    1.088   .     S
C350   C575    1.356   1_455 S
C350   C591    1.533   1_455 S
C351   C360    1.419   .     A
C351   C358    1.419   .     A
C351   I435    2.159   .     S
C352   C355    1.461   .     S
C352   C692    1.353   .     S
C352   C707    1.539   .     S
C353   C354    1.436   .     S
C354   O447    1.258   .     A
C354   O441    1.278   .     A
C355   O442    1.270   .     A
C355   O448    1.272   .     A
C356   C359    1.465   .     S
C356   O437    1.272   .     A
C356   O439    1.281   .     A
C357   C358    1.491   .     S
C357   O440    1.299   .     A
C357   O438    1.285   .     A
C358   C362    1.396   .     A
C360   C375    1.526   .     S
C360   C381    1.428   .     A
C361   C363    1.535   .     S
C361   H390    1.105   .     S
C361   H1406   1.109   1_554 S
C362   C373    1.406   .     A
C362   H429    1.075   .     S
C363   H388    1.108   .     S
C364   H432    1.111   .     S
C364   H433    1.111   .     S
C364   C702    1.526   .     S
C364   H1448   1.111   1_554 S
C365   H398    1.112   .     S
C365   H396    1.112   .     S
C365   C463    1.533   .     S
C365   C479    1.540   .     S
C366   H394    1.112   .     S
C366   H395    1.112   .     S
C366   C591    1.540   1_455 S
C366   C593    1.527   1_455 S
C367   H393    1.110   .     S
C367   H392    1.111   .     S
C367   H391    1.111   .     S
C367   C479    1.527   .     S
C368   H405    1.112   .     S
C368   H404    1.112   .     S
C369   H403    1.111   .     S
C369   H402    1.112   .     S
C369   C707    1.538   .     S
C369   C709    1.528   .     S
C370   H400    1.110   .     S
C370   H399    1.110   .     S
C371   H413    1.110   .     S
C371   H412    1.109   .     S
C371   C372    1.536   .     S
C372   H411    1.112   .     S
C372   C374    1.526   .     S
C372   H410    1.111   .     S
C373   C381    1.418   .     A
C373   C382    1.427   .     A
C374   H409    1.109   .     S
C374   H406    1.111   .     S
C374   H407    1.109   .     S
C375   H420    1.108   .     S
C375   C1393   1.535   .     S
C375   H1438   1.109   .     S
C376   C377    1.526   .     S
C376   H417    1.110   .     S
C376   C1392   1.535   1_554 S
C376   H1435   1.111   1_554 S
C377   H415    1.111   .     S
C377   H753    1.111   .     S
C377   H755    1.111   .     S
C378   H427    1.103   .     S
C378   C379    1.538   .     S
C378   C384    1.532   .     S
C378   H428    1.113   .     S
C379   H426    1.108   .     S
C379   H425    1.112   .     S
C379   C380    1.527   .     S
C380   H422    1.110   .     S
C380   H423    1.111   .     S
C380   H424    1.109   .     S
C381   C1402   1.407   .     S
C382   C1400   1.420   .     S
C383   C384    1.429   .     A
C383   C1399   1.420   1_554 S
C384   C385    1.400   .     A
C385   H386    1.078   .     S
C385   C1398   1.407   1_554 S
H387   C702    1.111   .     S
H389   C1378   1.109   .     S
H397   C575    1.088   1_455 S
H401   C935    1.110   1_455 S
H418   C1393   1.111   .     S
H421   C1392   1.109   1_554 S
H431   C1381   1.111   .     S
I434   C692    2.155   .     S
O436   Zn450   1.924   .     S
O436   Zn451   1.938   .     S
O436   Zn449   1.956   .     S
O436   Zn452   1.932   .     S
O437   Zn450   1.910   .     S
O438   Zn452   1.914   .     S
O439   Zn451   1.903   .     S
O440   Zn449   1.901   .     S
O441   Zn449   1.929   .     S
O442   Zn452   1.938   .     S
O443   Zn450   1.938   .     S
O444   Zn451   1.942   .     S
O445   Zn452   1.934   .     S
O446   Zn449   1.933   .     S
O447   Zn450   1.945   .     S
O448   Zn451   1.935   .     S
C453   C463    1.431   .     S
C453   O558    1.261   .     A
C453   O556    1.257   .     A
C454   C495    1.412   .     A
C454   C455    1.386   .     A
C454   H543    1.077   .     S
C455   H532    1.079   .     S
C455   C1474   1.405   .     S
C456   O559    1.265   .     A
C456   C462    1.456   .     S
C456   O557    1.291   .     A
C457   C459    1.430   .     A
C457   C458    1.419   .     A
C457   C1472   1.405   1_554 S
C458   C461    1.397   .     A
C458   C496    1.428   .     A
C459   C460    1.427   .     A
C459   C474    1.530   .     S
C460   C484    1.525   .     S
C460   C472    1.416   .     A
C461   H521    1.077   .     S
C461   C472    1.387   .     A
C462   C576    1.356   .     S
C462   H623    1.088   .     S
C464   C473    1.419   .     A
C464   C471    1.419   .     A
C464   I548    2.159   .     S
C465   C468    1.461   .     S
C465   C805    1.353   .     S
C465   C820    1.539   .     S
C466   C467    1.436   .     S
C467   O560    1.258   .     A
C467   O554    1.278   .     A
C468   O555    1.270   .     A
C468   O561    1.272   .     A
C469   C472    1.465   .     S
C469   O550    1.272   .     A
C469   O552    1.281   .     A
C470   C471    1.491   .     S
C470   O553    1.299   .     A
C470   O551    1.285   .     A
C471   C475    1.396   .     A
C473   C488    1.526   .     S
C473   C494    1.428   .     A
C474   C476    1.535   .     S
C474   H503    1.105   .     S
C474   H1519   1.109   1_554 S
C475   C486    1.406   .     A
C475   H542    1.075   .     S
C476   H501    1.108   .     S
C477   H545    1.111   .     S
C477   H546    1.111   .     S
C477   C815    1.526   .     S
C477   H1561   1.111   1_554 S
C478   H511    1.112   .     S
C478   H509    1.112   .     S
C478   C576    1.533   .     S
C478   C592    1.540   .     S
C479   H507    1.112   .     S
C479   H508    1.112   .     S
C480   H506    1.110   .     S
C480   H505    1.111   .     S
C480   H504    1.111   .     S
C480   C592    1.527   .     S
C481   H518    1.112   .     S
C481   H517    1.112   .     S
C482   H516    1.111   .     S
C482   H515    1.112   .     S
C482   C820    1.538   .     S
C482   C822    1.528   .     S
C483   H513    1.110   .     S
C483   H512    1.110   .     S
C484   H526    1.110   .     S
C484   H525    1.109   .     S
C484   C485    1.536   .     S
C485   H524    1.112   .     S
C485   C487    1.526   .     S
C485   H523    1.111   .     S
C486   C494    1.418   .     A
C486   C495    1.427   .     A
C487   H522    1.109   .     S
C487   H519    1.111   .     S
C487   H520    1.109   .     S
C488   H533    1.108   .     S
C488   C1506   1.535   .     S
C488   H1551   1.109   .     S
C489   C490    1.526   .     S
C489   H530    1.110   .     S
C489   C1505   1.535   1_554 S
C489   H1548   1.111   1_554 S
C490   H528    1.111   .     S
C490   H866    1.111   .     S
C490   H868    1.111   .     S
C491   H540    1.103   .     S
C491   C492    1.538   .     S
C491   C497    1.532   .     S
C491   H541    1.113   .     S
C492   H539    1.108   .     S
C492   H538    1.112   .     S
C492   C493    1.527   .     S
C493   H535    1.110   .     S
C493   H536    1.111   .     S
C493   H537    1.109   .     S
C494   C1515   1.407   .     S
C495   C1513   1.420   .     S
C496   C497    1.429   .     A
C496   C1512   1.420   1_554 S
C497   C498    1.400   .     A
C498   H499    1.078   .     S
C498   C1511   1.407   1_554 S
H500   C815    1.111   .     S
H502   C1491   1.109   .     S
H514   C709    1.110   .     S
H531   C1506   1.111   .     S
H534   C1505   1.109   1_554 S
H544   C1494   1.111   .     S
I547   C805    2.155   .     S
O549   Zn563   1.924   .     S
O549   Zn564   1.938   .     S
O549   Zn562   1.956   .     S
O549   Zn565   1.932   .     S
O550   Zn563   1.910   .     S
O551   Zn565   1.914   .     S
O552   Zn564   1.903   .     S
O553   Zn562   1.901   .     S
O554   Zn562   1.929   .     S
O555   Zn565   1.938   .     S
O556   Zn563   1.938   .     S
O557   Zn564   1.942   .     S
O558   Zn565   1.934   .     S
O559   Zn562   1.933   .     S
O560   Zn563   1.945   .     S
O561   Zn564   1.935   .     S
C566   C576    1.431   .     S
C566   O671    1.261   .     A
C566   O669    1.257   .     A
C567   C608    1.412   .     A
C567   C568    1.386   .     A
C567   H656    1.077   .     S
C568   H645    1.079   .     S
C568   C1587   1.405   .     S
C569   O672    1.265   .     A
C569   C575    1.456   .     S
C569   O670    1.291   .     A
C570   C572    1.430   .     A
C570   C571    1.419   .     A
C570   C1585   1.405   1_554 S
C571   C574    1.397   .     A
C571   C609    1.428   .     A
C572   C573    1.427   .     A
C572   C587    1.530   .     S
C573   C597    1.525   .     S
C573   C585    1.416   .     A
C574   H634    1.077   .     S
C574   C585    1.387   .     A
C575   C350    1.356   1_655 S
C575   H397    1.088   1_655 S
C577   C586    1.419   .     A
C577   C584    1.419   .     A
C577   I661    2.159   .     S
C578   C581    1.461   .     S
C578   C918    1.353   .     S
C578   C933    1.539   .     S
C579   C580    1.436   .     S
C580   O673    1.258   .     A
C580   O667    1.278   .     A
C581   O668    1.270   .     A
C581   O674    1.272   .     A
C582   C585    1.465   .     S
C582   O663    1.272   .     A
C582   O665    1.281   .     A
C583   C584    1.491   .     S
C583   O666    1.299   .     A
C583   O664    1.285   .     A
C584   C588    1.396   .     A
C586   C601    1.526   .     S
C586   C607    1.428   .     A
C587   C589    1.535   .     S
C587   H616    1.105   .     S
C587   H1632   1.109   1_554 S
C588   C599    1.406   .     A
C588   H655    1.075   .     S
C589   H614    1.108   .     S
C590   H658    1.111   .     S
C590   H659    1.111   .     S
C590   C928    1.526   .     S
C590   H1674   1.111   1_554 S
C591   H624    1.112   .     S
C591   H622    1.112   .     S
C591   C350    1.533   1_655 S
C591   C366    1.540   1_655 S
C592   H620    1.112   .     S
C592   H621    1.112   .     S
C593   H619    1.110   .     S
C593   H618    1.111   .     S
C593   H617    1.111   .     S
C593   C366    1.527   1_655 S
C594   H631    1.112   .     S
C594   H630    1.112   .     S
C595   H629    1.111   .     S
C595   H628    1.112   .     S
C595   C933    1.538   .     S
C595   C935    1.528   .     S
C596   H626    1.110   .     S
C596   H625    1.110   .     S
C596   H62     1.110   1_655 S
C597   H639    1.110   .     S
C597   H638    1.109   .     S
C597   C598    1.536   .     S
C598   H637    1.112   .     S
C598   C600    1.526   .     S
C598   H636    1.111   .     S
C599   C607    1.418   .     A
C599   C608    1.427   .     A
C600   H635    1.109   .     S
C600   H632    1.111   .     S
C600   H633    1.109   .     S
C601   H646    1.108   .     S
C601   C1619   1.535   .     S
C601   H1664   1.109   .     S
C602   C603    1.526   .     S
C602   H643    1.110   .     S
C602   C1618   1.535   1_554 S
C602   H1661   1.111   1_554 S
C603   H641    1.111   .     S
C603   H979    1.111   .     S
C603   H981    1.111   .     S
C604   H653    1.103   .     S
C604   C605    1.538   .     S
C604   C610    1.532   .     S
C604   H654    1.113   .     S
C605   H652    1.108   .     S
C605   H651    1.112   .     S
C605   C606    1.527   .     S
C606   H648    1.110   .     S
C606   H649    1.111   .     S
C606   H650    1.109   .     S
C607   C1628   1.407   .     S
C608   C1626   1.420   .     S
C609   C610    1.429   .     A
C609   C1625   1.420   1_554 S
C610   C611    1.400   .     A
C611   H612    1.078   .     S
C611   C1624   1.407   1_554 S
H613   C928    1.111   .     S
H615   C1604   1.109   .     S
H627   C822    1.110   .     S
H644   C1619   1.111   .     S
H647   C1618   1.109   1_554 S
H657   C1607   1.111   .     S
I660   C918    2.155   .     S
O662   Zn676   1.924   .     S
O662   Zn677   1.938   .     S
O662   Zn675   1.956   .     S
O662   Zn678   1.932   .     S
O663   Zn676   1.910   .     S
O664   Zn678   1.914   .     S
O665   Zn677   1.903   .     S
O666   Zn675   1.901   .     S
O667   Zn675   1.929   .     S
O668   Zn678   1.938   .     S
O669   Zn676   1.938   .     S
O670   Zn677   1.942   .     S
O671   Zn678   1.934   .     S
O672   Zn675   1.933   .     S
O673   Zn676   1.945   .     S
O674   Zn677   1.935   .     S
C679   C689    1.431   .     S
C679   O784    1.261   .     A
C679   O782    1.257   .     A
C680   C721    1.412   .     A
C680   C681    1.386   .     A
C680   H769    1.077   .     S
C681   H758    1.079   .     S
C681   C1700   1.405   .     S
C682   O785    1.265   .     A
C682   C688    1.456   .     S
C682   O783    1.291   .     A
C683   C685    1.430   .     A
C683   C684    1.419   .     A
C683   C1698   1.405   1_554 S
C684   C687    1.397   .     A
C684   C722    1.428   .     A
C685   C686    1.427   .     A
C685   C700    1.530   .     S
C686   C710    1.525   .     S
C686   C698    1.416   .     A
C687   H747    1.077   .     S
C687   C698    1.387   .     A
C688   C802    1.356   .     S
C688   H849    1.088   .     S
C689   C914    1.356   1_455 S
C689   C930    1.533   1_455 S
C690   C699    1.419   .     A
C690   C697    1.419   .     A
C690   I774    2.159   .     S
C691   C694    1.461   .     S
C691   C14     1.353   1_565 S
C691   C29     1.539   1_565 S
C692   C693    1.436   .     S
C693   O786    1.258   .     A
C693   O780    1.278   .     A
C694   O781    1.270   .     A
C694   O787    1.272   .     A
C695   C698    1.465   .     S
C695   O776    1.272   .     A
C695   O778    1.281   .     A
C696   C697    1.491   .     S
C696   O779    1.299   .     A
C696   O777    1.285   .     A
C697   C701    1.396   .     A
C699   C714    1.526   .     S
C699   C720    1.428   .     A
C700   C702    1.535   .     S
C700   H729    1.105   .     S
C700   H1745   1.109   1_554 S
C701   C712    1.406   .     A
C701   H768    1.075   .     S
C702   H727    1.108   .     S
C703   H771    1.111   .     S
C703   H772    1.111   .     S
C703   C24     1.526   1_565 S
C703   H1787   1.111   1_554 S
C704   H737    1.112   .     S
C704   H735    1.112   .     S
C704   C802    1.533   .     S
C704   C818    1.540   .     S
C705   H733    1.112   .     S
C705   H734    1.112   .     S
C705   C930    1.540   1_455 S
C705   C932    1.527   1_455 S
C706   H732    1.110   .     S
C706   H731    1.111   .     S
C706   H730    1.111   .     S
C706   C818    1.527   .     S
C707   H744    1.112   .     S
C707   H743    1.112   .     S
C708   H742    1.111   .     S
C708   H741    1.112   .     S
C708   C29     1.538   1_565 S
C708   C31     1.528   1_565 S
C709   H739    1.110   .     S
C709   H738    1.110   .     S
C710   H752    1.110   .     S
C710   H751    1.109   .     S
C710   C711    1.536   .     S
C711   H750    1.112   .     S
C711   C713    1.526   .     S
C711   H749    1.111   .     S
C712   C720    1.418   .     A
C712   C721    1.427   .     A
C713   H748    1.109   .     S
C713   H745    1.111   .     S
C713   H746    1.109   .     S
C714   H759    1.108   .     S
C714   C1732   1.535   .     S
C714   H1777   1.109   .     S
C715   C716    1.526   .     S
C715   H756    1.110   .     S
C715   C1731   1.535   1_554 S
C715   H1774   1.111   1_554 S
C716   H754    1.111   .     S
C716   H75     1.111   1_565 S
C716   H77     1.111   1_565 S
C717   H766    1.103   .     S
C717   C718    1.538   .     S
C717   C723    1.532   .     S
C717   H767    1.113   .     S
C718   H765    1.108   .     S
C718   H764    1.112   .     S
C718   C719    1.527   .     S
C719   H761    1.110   .     S
C719   H762    1.111   .     S
C719   H763    1.109   .     S
C720   C1741   1.407   .     S
C721   C1739   1.420   .     S
C722   C723    1.429   .     A
C722   C1738   1.420   1_554 S
C723   C724    1.400   .     A
C724   H725    1.078   .     S
C724   C1737   1.407   1_554 S
H726   C24     1.111   1_565 S
H728   C1717   1.109   .     S
H736   C914    1.088   1_455 S
H740   C257    1.110   1_465 S
H757   C1732   1.111   .     S
H760   C1731   1.109   1_554 S
H770   C1720   1.111   .     S
I773   C14     2.155   1_565 S
O775   Zn789   1.924   .     S
O775   Zn790   1.938   .     S
O775   Zn788   1.956   .     S
O775   Zn791   1.932   .     S
O776   Zn789   1.910   .     S
O777   Zn791   1.914   .     S
O778   Zn790   1.903   .     S
O779   Zn788   1.901   .     S
O780   Zn788   1.929   .     S
O781   Zn791   1.938   .     S
O782   Zn789   1.938   .     S
O783   Zn790   1.942   .     S
O784   Zn791   1.934   .     S
O785   Zn788   1.933   .     S
O786   Zn789   1.945   .     S
O787   Zn790   1.935   .     S
C792   C802    1.431   .     S
C792   O897    1.261   .     A
C792   O895    1.257   .     A
C793   C834    1.412   .     A
C793   C794    1.386   .     A
C793   H882    1.077   .     S
C794   H871    1.079   .     S
C794   C1813   1.405   .     S
C795   O898    1.265   .     A
C795   C801    1.456   .     S
C795   O896    1.291   .     A
C796   C798    1.430   .     A
C796   C797    1.419   .     A
C796   C1811   1.405   1_554 S
C797   C800    1.397   .     A
C797   C835    1.428   .     A
C798   C799    1.427   .     A
C798   C813    1.530   .     S
C799   C823    1.525   .     S
C799   C811    1.416   .     A
C800   H860    1.077   .     S
C800   C811    1.387   .     A
C801   C915    1.356   .     S
C801   H962    1.088   .     S
C803   C812    1.419   .     A
C803   C810    1.419   .     A
C803   I887    2.159   .     S
C804   C807    1.461   .     S
C804   C127    1.353   1_565 S
C804   C142    1.539   1_565 S
C805   C806    1.436   .     S
C806   O899    1.258   .     A
C806   O893    1.278   .     A
C807   O894    1.270   .     A
C807   O900    1.272   .     A
C808   C811    1.465   .     S
C808   O889    1.272   .     A
C808   O891    1.281   .     A
C809   C810    1.491   .     S
C809   O892    1.299   .     A
C809   O890    1.285   .     A
C810   C814    1.396   .     A
C812   C827    1.526   .     S
C812   C833    1.428   .     A
C813   C815    1.535   .     S
C813   H842    1.105   .     S
C813   H1858   1.109   1_554 S
C814   C825    1.406   .     A
C814   H881    1.075   .     S
C815   H840    1.108   .     S
C816   H884    1.111   .     S
C816   H885    1.111   .     S
C816   C137    1.526   1_565 S
C816   H1900   1.111   1_554 S
C817   H850    1.112   .     S
C817   H848    1.112   .     S
C817   C915    1.533   .     S
C817   C931    1.540   .     S
C818   H846    1.112   .     S
C818   H847    1.112   .     S
C819   H845    1.110   .     S
C819   H844    1.111   .     S
C819   H843    1.111   .     S
C819   C931    1.527   .     S
C820   H857    1.112   .     S
C820   H856    1.112   .     S
C821   H855    1.111   .     S
C821   H854    1.112   .     S
C821   C142    1.538   1_565 S
C821   C144    1.528   1_565 S
C822   H852    1.110   .     S
C822   H851    1.110   .     S
C823   H865    1.110   .     S
C823   H864    1.109   .     S
C823   C824    1.536   .     S
C824   H863    1.112   .     S
C824   C826    1.526   .     S
C824   H862    1.111   .     S
C825   C833    1.418   .     A
C825   C834    1.427   .     A
C826   H861    1.109   .     S
C826   H858    1.111   .     S
C826   H859    1.109   .     S
C827   H872    1.108   .     S
C827   C1845   1.535   .     S
C827   H1890   1.109   .     S
C828   C829    1.526   .     S
C828   H869    1.110   .     S
C828   C1844   1.535   1_554 S
C828   H1887   1.111   1_554 S
C829   H867    1.111   .     S
C829   H188    1.111   1_565 S
C829   H190    1.111   1_565 S
C830   H879    1.103   .     S
C830   C831    1.538   .     S
C830   C836    1.532   .     S
C830   H880    1.113   .     S
C831   H878    1.108   .     S
C831   H877    1.112   .     S
C831   C832    1.527   .     S
C832   H874    1.110   .     S
C832   H875    1.111   .     S
C832   H876    1.109   .     S
C833   C1854   1.407   .     S
C834   C1852   1.420   .     S
C835   C836    1.429   .     A
C835   C1851   1.420   1_554 S
C836   C837    1.400   .     A
C837   H838    1.078   .     S
C837   C1850   1.407   1_554 S
H839   C137    1.111   1_565 S
H841   C1830   1.109   .     S
H853   C31     1.110   1_565 S
H870   C1845   1.111   .     S
H873   C1844   1.109   1_554 S
H883   C1833   1.111   .     S
I886   C127    2.155   1_565 S
O888   Zn902   1.924   .     S
O888   Zn903   1.938   .     S
O888   Zn901   1.956   .     S
O888   Zn904   1.932   .     S
O889   Zn902   1.910   .     S
O890   Zn904   1.914   .     S
O891   Zn903   1.903   .     S
O892   Zn901   1.901   .     S
O893   Zn901   1.929   .     S
O894   Zn904   1.938   .     S
O895   Zn902   1.938   .     S
O896   Zn903   1.942   .     S
O897   Zn904   1.934   .     S
O898   Zn901   1.933   .     S
O899   Zn902   1.945   .     S
O900   Zn903   1.935   .     S
C905   C915    1.431   .     S
C905   O1010   1.261   .     A
C905   O1008   1.257   .     A
C906   C947    1.412   .     A
C906   C907    1.386   .     A
C906   H995    1.077   .     S
C907   H984    1.079   .     S
C907   C1926   1.405   .     S
C908   O1011   1.265   .     A
C908   C914    1.456   .     S
C908   O1009   1.291   .     A
C909   C911    1.430   .     A
C909   C910    1.419   .     A
C909   C1924   1.405   1_554 S
C910   C913    1.397   .     A
C910   C948    1.428   .     A
C911   C912    1.427   .     A
C911   C926    1.530   .     S
C912   C936    1.525   .     S
C912   C924    1.416   .     A
C913   H973    1.077   .     S
C913   C924    1.387   .     A
C914   C689    1.356   1_655 S
C914   H736    1.088   1_655 S
C916   C925    1.419   .     A
C916   C923    1.419   .     A
C916   I1000   2.159   .     S
C917   C920    1.461   .     S
C917   C240    1.353   1_565 S
C917   C255    1.539   1_565 S
C918   C919    1.436   .     S
C919   O1012   1.258   .     A
C919   O1006   1.278   .     A
C920   O1007   1.270   .     A
C920   O1013   1.272   .     A
C921   C924    1.465   .     S
C921   O1002   1.272   .     A
C921   O1004   1.281   .     A
C922   C923    1.491   .     S
C922   O1005   1.299   .     A
C922   O1003   1.285   .     A
C923   C927    1.396   .     A
C925   C940    1.526   .     S
C925   C946    1.428   .     A
C926   C928    1.535   .     S
C926   H955    1.105   .     S
C926   H1971   1.109   1_554 S
C927   C938    1.406   .     A
C927   H994    1.075   .     S
C928   H953    1.108   .     S
C929   H997    1.111   .     S
C929   H998    1.111   .     S
C929   C250    1.526   1_565 S
C929   H2013   1.111   1_554 S
C930   H963    1.112   .     S
C930   H961    1.112   .     S
C930   C689    1.533   1_655 S
C930   C705    1.540   1_655 S
C931   H959    1.112   .     S
C931   H960    1.112   .     S
C932   H958    1.110   .     S
C932   H957    1.111   .     S
C932   H956    1.111   .     S
C932   C705    1.527   1_655 S
C933   H970    1.112   .     S
C933   H969    1.112   .     S
C934   H968    1.111   .     S
C934   H967    1.112   .     S
C934   C255    1.538   1_565 S
C934   C257    1.528   1_565 S
C935   H965    1.110   .     S
C935   H964    1.110   .     S
C935   H401    1.110   1_655 S
C936   H978    1.110   .     S
C936   H977    1.109   .     S
C936   C937    1.536   .     S
C937   H976    1.112   .     S
C937   C939    1.526   .     S
C937   H975    1.111   .     S
C938   C946    1.418   .     A
C938   C947    1.427   .     A
C939   H974    1.109   .     S
C939   H971    1.111   .     S
C939   H972    1.109   .     S
C940   H985    1.108   .     S
C940   C1958   1.535   .     S
C940   H2003   1.109   .     S
C941   C942    1.526   .     S
C941   H982    1.110   .     S
C941   C1957   1.535   1_554 S
C941   H2000   1.111   1_554 S
C942   H980    1.111   .     S
C942   H301    1.111   1_565 S
C942   H303    1.111   1_565 S
C943   H992    1.103   .     S
C943   C944    1.538   .     S
C943   C949    1.532   .     S
C943   H993    1.113   .     S
C944   H991    1.108   .     S
C944   H990    1.112   .     S
C944   C945    1.527   .     S
C945   H987    1.110   .     S
C945   H988    1.111   .     S
C945   H989    1.109   .     S
C946   C1967   1.407   .     S
C947   C1965   1.420   .     S
C948   C949    1.429   .     A
C948   C1964   1.420   1_554 S
C949   C950    1.400   .     A
C950   H951    1.078   .     S
C950   C1963   1.407   1_554 S
H952   C250    1.111   1_565 S
H954   C1943   1.109   .     S
H966   C144    1.110   1_565 S
H983   C1958   1.111   .     S
H986   C1957   1.109   1_554 S
H996   C1946   1.111   .     S
I999   C240    2.155   1_565 S
O1001  Zn1015  1.924   .     S
O1001  Zn1016  1.938   .     S
O1001  Zn1014  1.956   .     S
O1001  Zn1017  1.932   .     S
O1002  Zn1015  1.910   .     S
O1003  Zn1017  1.914   .     S
O1004  Zn1016  1.903   .     S
O1005  Zn1014  1.901   .     S
O1006  Zn1014  1.929   .     S
O1007  Zn1017  1.938   .     S
O1008  Zn1015  1.938   .     S
O1009  Zn1016  1.942   .     S
O1010  Zn1017  1.934   .     S
O1011  Zn1014  1.933   .     S
O1012  Zn1015  1.945   .     S
O1013  Zn1016  1.935   .     S
C1018  C1028   1.431   .     S
C1018  O1123   1.261   .     A
C1018  O1121   1.257   .     A
C1019  C1060   1.412   .     A
C1019  C1020   1.386   .     A
C1019  H1108   1.077   .     S
C1020  H1097   1.079   .     S
C1020  C5      1.405   1_556 S
C1021  O1124   1.265   .     A
C1021  C1027   1.456   .     S
C1021  O1122   1.291   .     A
C1022  C1024   1.430   .     A
C1022  C1023   1.419   .     A
C1023  C1026   1.397   .     A
C1023  C1061   1.428   .     A
C1024  C1025   1.427   .     A
C1024  C1039   1.530   .     S
C1025  C1049   1.525   .     S
C1025  C1037   1.416   .     A
C1026  H1086   1.077   .     S
C1026  C1037   1.387   .     A
C1027  C1141   1.356   .     S
C1027  H1188   1.088   .     S
C1028  C1253   1.356   1_455 S
C1028  C1269   1.533   1_455 S
C1029  C1038   1.419   .     A
C1029  C1036   1.419   .     A
C1029  I1113   2.159   .     S
C1030  C1033   1.461   .     S
C1030  C1370   1.353   .     S
C1030  C1385   1.539   .     S
C1031  C1032   1.436   .     S
C1031  C1708   1.353   1_545 S
C1031  I1790   2.155   1_545 S
C1032  O1125   1.258   .     A
C1032  O1119   1.278   .     A
C1033  O1120   1.270   .     A
C1033  O1126   1.272   .     A
C1034  C1037   1.465   .     S
C1034  O1115   1.272   .     A
C1034  O1117   1.281   .     A
C1035  C1036   1.491   .     S
C1035  O1118   1.299   .     A
C1035  O1116   1.285   .     A
C1036  C1040   1.396   .     A
C1038  C1053   1.526   .     S
C1038  C1059   1.428   .     A
C1039  C1041   1.535   .     S
C1039  H1068   1.105   .     S
C1040  C1051   1.406   .     A
C1040  H1107   1.075   .     S
C1041  H1066   1.108   .     S
C1041  C1720   1.526   1_545 S
C1041  H1743   1.111   1_545 S
C1042  H1110   1.111   .     S
C1042  H1111   1.111   .     S
C1042  C1380   1.526   .     S
C1043  H1076   1.112   .     S
C1043  H1074   1.112   .     S
C1043  C1141   1.533   .     S
C1043  C1157   1.540   .     S
C1044  H1072   1.112   .     S
C1044  H1073   1.112   .     S
C1044  C1269   1.540   1_455 S
C1044  C1271   1.527   1_455 S
C1045  H1071   1.110   .     S
C1045  H1070   1.111   .     S
C1045  H1069   1.111   .     S
C1045  C1157   1.527   .     S
C1046  H1083   1.112   .     S
C1046  H1082   1.112   .     S
C1046  C1708   1.539   1_545 S
C1046  C1725   1.538   1_545 S
C1047  H1081   1.111   .     S
C1047  H1080   1.112   .     S
C1047  C1385   1.538   .     S
C1047  C1387   1.528   .     S
C1048  H1078   1.110   .     S
C1048  H1077   1.110   .     S
C1048  C1725   1.528   1_545 S
C1048  H1870   1.110   1_545 S
C1049  H1091   1.110   .     S
C1049  H1090   1.109   .     S
C1049  C1050   1.536   .     S
C1050  H1089   1.112   .     S
C1050  C1052   1.526   .     S
C1050  H1088   1.111   .     S
C1051  C1059   1.418   .     A
C1051  C1060   1.427   .     A
C1052  H1087   1.109   .     S
C1052  H1084   1.111   .     S
C1052  H1085   1.109   .     S
C1053  H1098   1.108   .     S
C1053  C37     1.535   1_556 S
C1053  H82     1.109   1_556 S
C1054  C1055   1.526   .     S
C1054  H1095   1.110   .     S
C1055  H1093   1.111   .     S
C1055  H1431   1.111   .     S
C1055  H1433   1.111   .     S
C1056  H1105   1.103   .     S
C1056  C1057   1.538   .     S
C1056  C1062   1.532   .     S
C1056  H1106   1.113   .     S
C1057  H1104   1.108   .     S
C1057  H1103   1.112   .     S
C1057  C1058   1.527   .     S
C1058  H1100   1.110   .     S
C1058  H1101   1.111   .     S
C1058  H1102   1.109   .     S
C1059  C46     1.407   1_556 S
C1060  C44     1.420   1_556 S
C1061  C1062   1.429   .     A
C1062  C1063   1.400   .     A
C1063  H1064   1.078   .     S
H1065  C1380   1.111   .     S
H1067  C22     1.109   1_556 S
H1075  C1253   1.088   1_455 S
H1079  C1613   1.110   1_455 S
H1092  C1733   1.111   1_545 S
H1094  C1733   1.111   1_545 S
H1096  C37     1.111   1_556 S
H1109  C25     1.111   1_556 S
I1112  C1370   2.155   .     S
O1114  Zn1128  1.924   .     S
O1114  Zn1129  1.938   .     S
O1114  Zn1127  1.956   .     S
O1114  Zn1130  1.932   .     S
O1115  Zn1128  1.910   .     S
O1116  Zn1130  1.914   .     S
O1117  Zn1129  1.903   .     S
O1118  Zn1127  1.901   .     S
O1119  Zn1127  1.929   .     S
O1120  Zn1130  1.938   .     S
O1121  Zn1128  1.938   .     S
O1122  Zn1129  1.942   .     S
O1123  Zn1130  1.934   .     S
O1124  Zn1127  1.933   .     S
O1125  Zn1128  1.945   .     S
O1126  Zn1129  1.935   .     S
C1131  C1141   1.431   .     S
C1131  O1236   1.261   .     A
C1131  O1234   1.257   .     A
C1132  C1173   1.412   .     A
C1132  C1133   1.386   .     A
C1132  H1221   1.077   .     S
C1133  H1210   1.079   .     S
C1133  C118    1.405   1_556 S
C1134  O1237   1.265   .     A
C1134  C1140   1.456   .     S
C1134  O1235   1.291   .     A
C1135  C1137   1.430   .     A
C1135  C1136   1.419   .     A
C1136  C1139   1.397   .     A
C1136  C1174   1.428   .     A
C1137  C1138   1.427   .     A
C1137  C1152   1.530   .     S
C1138  C1162   1.525   .     S
C1138  C1150   1.416   .     A
C1139  H1199   1.077   .     S
C1139  C1150   1.387   .     A
C1140  C1254   1.356   .     S
C1140  H1301   1.088   .     S
C1142  C1151   1.419   .     A
C1142  C1149   1.419   .     A
C1142  I1226   2.159   .     S
C1143  C1146   1.461   .     S
C1143  C1483   1.353   .     S
C1143  C1498   1.539   .     S
C1144  C1145   1.436   .     S
C1144  C1821   1.353   1_545 S
C1144  I1903   2.155   1_545 S
C1145  O1238   1.258   .     A
C1145  O1232   1.278   .     A
C1146  O1233   1.270   .     A
C1146  O1239   1.272   .     A
C1147  C1150   1.465   .     S
C1147  O1228   1.272   .     A
C1147  O1230   1.281   .     A
C1148  C1149   1.491   .     S
C1148  O1231   1.299   .     A
C1148  O1229   1.285   .     A
C1149  C1153   1.396   .     A
C1151  C1166   1.526   .     S
C1151  C1172   1.428   .     A
C1152  C1154   1.535   .     S
C1152  H1181   1.105   .     S
C1153  C1164   1.406   .     A
C1153  H1220   1.075   .     S
C1154  H1179   1.108   .     S
C1154  C1833   1.526   1_545 S
C1154  H1856   1.111   1_545 S
C1155  H1223   1.111   .     S
C1155  H1224   1.111   .     S
C1155  C1493   1.526   .     S
C1156  H1189   1.112   .     S
C1156  H1187   1.112   .     S
C1156  C1254   1.533   .     S
C1156  C1270   1.540   .     S
C1157  H1185   1.112   .     S
C1157  H1186   1.112   .     S
C1158  H1184   1.110   .     S
C1158  H1183   1.111   .     S
C1158  H1182   1.111   .     S
C1158  C1270   1.527   .     S
C1159  H1196   1.112   .     S
C1159  H1195   1.112   .     S
C1159  C1821   1.539   1_545 S
C1159  C1838   1.538   1_545 S
C1160  H1194   1.111   .     S
C1160  H1193   1.112   .     S
C1160  C1498   1.538   .     S
C1160  C1500   1.528   .     S
C1161  H1191   1.110   .     S
C1161  H1190   1.110   .     S
C1161  C1838   1.528   1_545 S
C1161  H1983   1.110   1_545 S
C1162  H1204   1.110   .     S
C1162  H1203   1.109   .     S
C1162  C1163   1.536   .     S
C1163  H1202   1.112   .     S
C1163  C1165   1.526   .     S
C1163  H1201   1.111   .     S
C1164  C1172   1.418   .     A
C1164  C1173   1.427   .     A
C1165  H1200   1.109   .     S
C1165  H1197   1.111   .     S
C1165  H1198   1.109   .     S
C1166  H1211   1.108   .     S
C1166  C150    1.535   1_556 S
C1166  H195    1.109   1_556 S
C1167  C1168   1.526   .     S
C1167  H1208   1.110   .     S
C1168  H1206   1.111   .     S
C1168  H1544   1.111   .     S
C1168  H1546   1.111   .     S
C1169  H1218   1.103   .     S
C1169  C1170   1.538   .     S
C1169  C1175   1.532   .     S
C1169  H1219   1.113   .     S
C1170  H1217   1.108   .     S
C1170  H1216   1.112   .     S
C1170  C1171   1.527   .     S
C1171  H1213   1.110   .     S
C1171  H1214   1.111   .     S
C1171  H1215   1.109   .     S
C1172  C159    1.407   1_556 S
C1173  C157    1.420   1_556 S
C1174  C1175   1.429   .     A
C1175  C1176   1.400   .     A
C1176  H1177   1.078   .     S
H1178  C1493   1.111   .     S
H1180  C135    1.109   1_556 S
H1192  C1387   1.110   .     S
H1205  C1846   1.111   1_545 S
H1207  C1846   1.111   1_545 S
H1209  C150    1.111   1_556 S
H1222  C138    1.111   1_556 S
I1225  C1483   2.155   .     S
O1227  Zn1241  1.924   .     S
O1227  Zn1242  1.938   .     S
O1227  Zn1240  1.956   .     S
O1227  Zn1243  1.932   .     S
O1228  Zn1241  1.910   .     S
O1229  Zn1243  1.914   .     S
O1230  Zn1242  1.903   .     S
O1231  Zn1240  1.901   .     S
O1232  Zn1240  1.929   .     S
O1233  Zn1243  1.938   .     S
O1234  Zn1241  1.938   .     S
O1235  Zn1242  1.942   .     S
O1236  Zn1243  1.934   .     S
O1237  Zn1240  1.933   .     S
O1238  Zn1241  1.945   .     S
O1239  Zn1242  1.935   .     S
C1244  C1254   1.431   .     S
C1244  O1349   1.261   .     A
C1244  O1347   1.257   .     A
C1245  C1286   1.412   .     A
C1245  C1246   1.386   .     A
C1245  H1334   1.077   .     S
C1246  H1323   1.079   .     S
C1246  C231    1.405   1_556 S
C1247  O1350   1.265   .     A
C1247  C1253   1.456   .     S
C1247  O1348   1.291   .     A
C1248  C1250   1.430   .     A
C1248  C1249   1.419   .     A
C1249  C1252   1.397   .     A
C1249  C1287   1.428   .     A
C1250  C1251   1.427   .     A
C1250  C1265   1.530   .     S
C1251  C1275   1.525   .     S
C1251  C1263   1.416   .     A
C1252  H1312   1.077   .     S
C1252  C1263   1.387   .     A
C1253  C1028   1.356   1_655 S
C1253  H1075   1.088   1_655 S
C1255  C1264   1.419   .     A
C1255  C1262   1.419   .     A
C1255  I1339   2.159   .     S
C1256  C1259   1.461   .     S
C1256  C1596   1.353   .     S
C1256  C1611   1.539   .     S
C1257  C1258   1.436   .     S
C1257  C1934   1.353   1_545 S
C1257  I2016   2.155   1_545 S
C1258  O1351   1.258   .     A
C1258  O1345   1.278   .     A
C1259  O1346   1.270   .     A
C1259  O1352   1.272   .     A
C1260  C1263   1.465   .     S
C1260  O1341   1.272   .     A
C1260  O1343   1.281   .     A
C1261  C1262   1.491   .     S
C1261  O1344   1.299   .     A
C1261  O1342   1.285   .     A
C1262  C1266   1.396   .     A
C1264  C1279   1.526   .     S
C1264  C1285   1.428   .     A
C1265  C1267   1.535   .     S
C1265  H1294   1.105   .     S
C1266  C1277   1.406   .     A
C1266  H1333   1.075   .     S
C1267  H1292   1.108   .     S
C1267  C1946   1.526   1_545 S
C1267  H1969   1.111   1_545 S
C1268  H1336   1.111   .     S
C1268  H1337   1.111   .     S
C1268  C1606   1.526   .     S
C1269  H1302   1.112   .     S
C1269  H1300   1.112   .     S
C1269  C1028   1.533   1_655 S
C1269  C1044   1.540   1_655 S
C1270  H1298   1.112   .     S
C1270  H1299   1.112   .     S
C1271  H1297   1.110   .     S
C1271  H1296   1.111   .     S
C1271  H1295   1.111   .     S
C1271  C1044   1.527   1_655 S
C1272  H1309   1.112   .     S
C1272  H1308   1.112   .     S
C1272  C1934   1.539   1_545 S
C1272  C1951   1.538   1_545 S
C1273  H1307   1.111   .     S
C1273  H1306   1.112   .     S
C1273  C1611   1.538   .     S
C1273  C1613   1.528   .     S
C1274  H1304   1.110   .     S
C1274  H1303   1.110   .     S
C1274  C1951   1.528   1_545 S
C1274  H1757   1.110   1_645 S
C1275  H1317   1.110   .     S
C1275  H1316   1.109   .     S
C1275  C1276   1.536   .     S
C1276  H1315   1.112   .     S
C1276  C1278   1.526   .     S
C1276  H1314   1.111   .     S
C1277  C1285   1.418   .     A
C1277  C1286   1.427   .     A
C1278  H1313   1.109   .     S
C1278  H1310   1.111   .     S
C1278  H1311   1.109   .     S
C1279  H1324   1.108   .     S
C1279  C263    1.535   1_556 S
C1279  H308    1.109   1_556 S
C1280  C1281   1.526   .     S
C1280  H1321   1.110   .     S
C1281  H1319   1.111   .     S
C1281  H1657   1.111   .     S
C1281  H1659   1.111   .     S
C1282  H1331   1.103   .     S
C1282  C1283   1.538   .     S
C1282  C1288   1.532   .     S
C1282  H1332   1.113   .     S
C1283  H1330   1.108   .     S
C1283  H1329   1.112   .     S
C1283  C1284   1.527   .     S
C1284  H1326   1.110   .     S
C1284  H1327   1.111   .     S
C1284  H1328   1.109   .     S
C1285  C272    1.407   1_556 S
C1286  C270    1.420   1_556 S
C1287  C1288   1.429   .     A
C1288  C1289   1.400   .     A
C1289  H1290   1.078   .     S
H1291  C1606   1.111   .     S
H1293  C248    1.109   1_556 S
H1305  C1500   1.110   .     S
H1318  C1959   1.111   1_545 S
H1320  C1959   1.111   1_545 S
H1322  C263    1.111   1_556 S
H1335  C251    1.111   1_556 S
I1338  C1596   2.155   .     S
O1340  Zn1354  1.924   .     S
O1340  Zn1355  1.938   .     S
O1340  Zn1353  1.956   .     S
O1340  Zn1356  1.932   .     S
O1341  Zn1354  1.910   .     S
O1342  Zn1356  1.914   .     S
O1343  Zn1355  1.903   .     S
O1344  Zn1353  1.901   .     S
O1345  Zn1353  1.929   .     S
O1346  Zn1356  1.938   .     S
O1347  Zn1354  1.938   .     S
O1348  Zn1355  1.942   .     S
O1349  Zn1356  1.934   .     S
O1350  Zn1353  1.933   .     S
O1351  Zn1354  1.945   .     S
O1352  Zn1355  1.935   .     S
C1357  C1367   1.431   .     S
C1357  O1462   1.261   .     A
C1357  O1460   1.257   .     A
C1358  C1399   1.412   .     A
C1358  C1359   1.386   .     A
C1358  H1447   1.077   .     S
C1359  H1436   1.079   .     S
C1359  C344    1.405   1_556 S
C1360  O1463   1.265   .     A
C1360  C1366   1.456   .     S
C1360  O1461   1.291   .     A
C1361  C1363   1.430   .     A
C1361  C1362   1.419   .     A
C1362  C1365   1.397   .     A
C1362  C1400   1.428   .     A
C1363  C1364   1.427   .     A
C1363  C1378   1.530   .     S
C1364  C1388   1.525   .     S
C1364  C1376   1.416   .     A
C1365  H1425   1.077   .     S
C1365  C1376   1.387   .     A
C1366  C1480   1.356   .     S
C1366  H1527   1.088   .     S
C1367  C1592   1.356   1_455 S
C1367  C1608   1.533   1_455 S
C1368  C1377   1.419   .     A
C1368  C1375   1.419   .     A
C1368  I1452   2.159   .     S
C1369  C1372   1.461   .     S
C1369  C1709   1.353   .     S
C1369  C1724   1.539   .     S
C1370  C1371   1.436   .     S
C1371  O1464   1.258   .     A
C1371  O1458   1.278   .     A
C1372  O1459   1.270   .     A
C1372  O1465   1.272   .     A
C1373  C1376   1.465   .     S
C1373  O1454   1.272   .     A
C1373  O1456   1.281   .     A
C1374  C1375   1.491   .     S
C1374  O1457   1.299   .     A
C1374  O1455   1.285   .     A
C1375  C1379   1.396   .     A
C1377  C1392   1.526   .     S
C1377  C1398   1.428   .     A
C1378  C1380   1.535   .     S
C1378  H1407   1.105   .     S
C1379  C1390   1.406   .     A
C1379  H1446   1.075   .     S
C1380  H1405   1.108   .     S
C1381  H1449   1.111   .     S
C1381  H1450   1.111   .     S
C1381  C1719   1.526   .     S
C1382  H1415   1.112   .     S
C1382  H1413   1.112   .     S
C1382  C1480   1.533   .     S
C1382  C1496   1.540   .     S
C1383  H1411   1.112   .     S
C1383  H1412   1.112   .     S
C1383  C1608   1.540   1_455 S
C1383  C1610   1.527   1_455 S
C1384  H1410   1.110   .     S
C1384  H1409   1.111   .     S
C1384  H1408   1.111   .     S
C1384  C1496   1.527   .     S
C1385  H1422   1.112   .     S
C1385  H1421   1.112   .     S
C1386  H1420   1.111   .     S
C1386  H1419   1.112   .     S
C1386  C1724   1.538   .     S
C1386  C1726   1.528   .     S
C1387  H1417   1.110   .     S
C1387  H1416   1.110   .     S
C1388  H1430   1.110   .     S
C1388  H1429   1.109   .     S
C1388  C1389   1.536   .     S
C1389  H1428   1.112   .     S
C1389  C1391   1.526   .     S
C1389  H1427   1.111   .     S
C1390  C1398   1.418   .     A
C1390  C1399   1.427   .     A
C1391  H1426   1.109   .     S
C1391  H1423   1.111   .     S
C1391  H1424   1.109   .     S
C1392  H1437   1.108   .     S
C1392  C376    1.535   1_556 S
C1392  H421    1.109   1_556 S
C1393  C1394   1.526   .     S
C1393  H1434   1.110   .     S
C1394  H1432   1.111   .     S
C1394  H1770   1.111   .     S
C1394  H1772   1.111   .     S
C1395  H1444   1.103   .     S
C1395  C1396   1.538   .     S
C1395  C1401   1.532   .     S
C1395  H1445   1.113   .     S
C1396  H1443   1.108   .     S
C1396  H1442   1.112   .     S
C1396  C1397   1.527   .     S
C1397  H1439   1.110   .     S
C1397  H1440   1.111   .     S
C1397  H1441   1.109   .     S
C1398  C385    1.407   1_556 S
C1399  C383    1.420   1_556 S
C1400  C1401   1.429   .     A
C1401  C1402   1.400   .     A
C1402  H1403   1.078   .     S
H1404  C1719   1.111   .     S
H1406  C361    1.109   1_556 S
H1414  C1592   1.088   1_455 S
H1418  C1952   1.110   1_455 S
H1435  C376    1.111   1_556 S
H1448  C364    1.111   1_556 S
I1451  C1709   2.155   .     S
O1453  Zn1467  1.924   .     S
O1453  Zn1468  1.938   .     S
O1453  Zn1466  1.956   .     S
O1453  Zn1469  1.932   .     S
O1454  Zn1467  1.910   .     S
O1455  Zn1469  1.914   .     S
O1456  Zn1468  1.903   .     S
O1457  Zn1466  1.901   .     S
O1458  Zn1466  1.929   .     S
O1459  Zn1469  1.938   .     S
O1460  Zn1467  1.938   .     S
O1461  Zn1468  1.942   .     S
O1462  Zn1469  1.934   .     S
O1463  Zn1466  1.933   .     S
O1464  Zn1467  1.945   .     S
O1465  Zn1468  1.935   .     S
C1470  C1480   1.431   .     S
C1470  O1575   1.261   .     A
C1470  O1573   1.257   .     A
C1471  C1512   1.412   .     A
C1471  C1472   1.386   .     A
C1471  H1560   1.077   .     S
C1472  H1549   1.079   .     S
C1472  C457    1.405   1_556 S
C1473  O1576   1.265   .     A
C1473  C1479   1.456   .     S
C1473  O1574   1.291   .     A
C1474  C1476   1.430   .     A
C1474  C1475   1.419   .     A
C1475  C1478   1.397   .     A
C1475  C1513   1.428   .     A
C1476  C1477   1.427   .     A
C1476  C1491   1.530   .     S
C1477  C1501   1.525   .     S
C1477  C1489   1.416   .     A
C1478  H1538   1.077   .     S
C1478  C1489   1.387   .     A
C1479  C1593   1.356   .     S
C1479  H1640   1.088   .     S
C1481  C1490   1.419   .     A
C1481  C1488   1.419   .     A
C1481  I1565   2.159   .     S
C1482  C1485   1.461   .     S
C1482  C1822   1.353   .     S
C1482  C1837   1.539   .     S
C1483  C1484   1.436   .     S
C1484  O1577   1.258   .     A
C1484  O1571   1.278   .     A
C1485  O1572   1.270   .     A
C1485  O1578   1.272   .     A
C1486  C1489   1.465   .     S
C1486  O1567   1.272   .     A
C1486  O1569   1.281   .     A
C1487  C1488   1.491   .     S
C1487  O1570   1.299   .     A
C1487  O1568   1.285   .     A
C1488  C1492   1.396   .     A
C1490  C1505   1.526   .     S
C1490  C1511   1.428   .     A
C1491  C1493   1.535   .     S
C1491  H1520   1.105   .     S
C1492  C1503   1.406   .     A
C1492  H1559   1.075   .     S
C1493  H1518   1.108   .     S
C1494  H1562   1.111   .     S
C1494  H1563   1.111   .     S
C1494  C1832   1.526   .     S
C1495  H1528   1.112   .     S
C1495  H1526   1.112   .     S
C1495  C1593   1.533   .     S
C1495  C1609   1.540   .     S
C1496  H1524   1.112   .     S
C1496  H1525   1.112   .     S
C1497  H1523   1.110   .     S
C1497  H1522   1.111   .     S
C1497  H1521   1.111   .     S
C1497  C1609   1.527   .     S
C1498  H1535   1.112   .     S
C1498  H1534   1.112   .     S
C1499  H1533   1.111   .     S
C1499  H1532   1.112   .     S
C1499  C1837   1.538   .     S
C1499  C1839   1.528   .     S
C1500  H1530   1.110   .     S
C1500  H1529   1.110   .     S
C1501  H1543   1.110   .     S
C1501  H1542   1.109   .     S
C1501  C1502   1.536   .     S
C1502  H1541   1.112   .     S
C1502  C1504   1.526   .     S
C1502  H1540   1.111   .     S
C1503  C1511   1.418   .     A
C1503  C1512   1.427   .     A
C1504  H1539   1.109   .     S
C1504  H1536   1.111   .     S
C1504  H1537   1.109   .     S
C1505  H1550   1.108   .     S
C1505  C489    1.535   1_556 S
C1505  H534    1.109   1_556 S
C1506  C1507   1.526   .     S
C1506  H1547   1.110   .     S
C1507  H1545   1.111   .     S
C1507  H1883   1.111   .     S
C1507  H1885   1.111   .     S
C1508  H1557   1.103   .     S
C1508  C1509   1.538   .     S
C1508  C1514   1.532   .     S
C1508  H1558   1.113   .     S
C1509  H1556   1.108   .     S
C1509  H1555   1.112   .     S
C1509  C1510   1.527   .     S
C1510  H1552   1.110   .     S
C1510  H1553   1.111   .     S
C1510  H1554   1.109   .     S
C1511  C498    1.407   1_556 S
C1512  C496    1.420   1_556 S
C1513  C1514   1.429   .     A
C1514  C1515   1.400   .     A
C1515  H1516   1.078   .     S
H1517  C1832   1.111   .     S
H1519  C474    1.109   1_556 S
H1531  C1726   1.110   .     S
H1548  C489    1.111   1_556 S
H1561  C477    1.111   1_556 S
I1564  C1822   2.155   .     S
O1566  Zn1580  1.924   .     S
O1566  Zn1581  1.938   .     S
O1566  Zn1579  1.956   .     S
O1566  Zn1582  1.932   .     S
O1567  Zn1580  1.910   .     S
O1568  Zn1582  1.914   .     S
O1569  Zn1581  1.903   .     S
O1570  Zn1579  1.901   .     S
O1571  Zn1579  1.929   .     S
O1572  Zn1582  1.938   .     S
O1573  Zn1580  1.938   .     S
O1574  Zn1581  1.942   .     S
O1575  Zn1582  1.934   .     S
O1576  Zn1579  1.933   .     S
O1577  Zn1580  1.945   .     S
O1578  Zn1581  1.935   .     S
C1583  C1593   1.431   .     S
C1583  O1688   1.261   .     A
C1583  O1686   1.257   .     A
C1584  C1625   1.412   .     A
C1584  C1585   1.386   .     A
C1584  H1673   1.077   .     S
C1585  H1662   1.079   .     S
C1585  C570    1.405   1_556 S
C1586  O1689   1.265   .     A
C1586  C1592   1.456   .     S
C1586  O1687   1.291   .     A
C1587  C1589   1.430   .     A
C1587  C1588   1.419   .     A
C1588  C1591   1.397   .     A
C1588  C1626   1.428   .     A
C1589  C1590   1.427   .     A
C1589  C1604   1.530   .     S
C1590  C1614   1.525   .     S
C1590  C1602   1.416   .     A
C1591  H1651   1.077   .     S
C1591  C1602   1.387   .     A
C1592  C1367   1.356   1_655 S
C1592  H1414   1.088   1_655 S
C1594  C1603   1.419   .     A
C1594  C1601   1.419   .     A
C1594  I1678   2.159   .     S
C1595  C1598   1.461   .     S
C1595  C1935   1.353   .     S
C1595  C1950   1.539   .     S
C1596  C1597   1.436   .     S
C1597  O1690   1.258   .     A
C1597  O1684   1.278   .     A
C1598  O1685   1.270   .     A
C1598  O1691   1.272   .     A
C1599  C1602   1.465   .     S
C1599  O1680   1.272   .     A
C1599  O1682   1.281   .     A
C1600  C1601   1.491   .     S
C1600  O1683   1.299   .     A
C1600  O1681   1.285   .     A
C1601  C1605   1.396   .     A
C1603  C1618   1.526   .     S
C1603  C1624   1.428   .     A
C1604  C1606   1.535   .     S
C1604  H1633   1.105   .     S
C1605  C1616   1.406   .     A
C1605  H1672   1.075   .     S
C1606  H1631   1.108   .     S
C1607  H1675   1.111   .     S
C1607  H1676   1.111   .     S
C1607  C1945   1.526   .     S
C1608  H1641   1.112   .     S
C1608  H1639   1.112   .     S
C1608  C1367   1.533   1_655 S
C1608  C1383   1.540   1_655 S
C1609  H1637   1.112   .     S
C1609  H1638   1.112   .     S
C1610  H1636   1.110   .     S
C1610  H1635   1.111   .     S
C1610  H1634   1.111   .     S
C1610  C1383   1.527   1_655 S
C1611  H1648   1.112   .     S
C1611  H1647   1.112   .     S
C1612  H1646   1.111   .     S
C1612  H1645   1.112   .     S
C1612  C1950   1.538   .     S
C1612  C1952   1.528   .     S
C1613  H1643   1.110   .     S
C1613  H1642   1.110   .     S
C1613  H1079   1.110   1_655 S
C1614  H1656   1.110   .     S
C1614  H1655   1.109   .     S
C1614  C1615   1.536   .     S
C1615  H1654   1.112   .     S
C1615  C1617   1.526   .     S
C1615  H1653   1.111   .     S
C1616  C1624   1.418   .     A
C1616  C1625   1.427   .     A
C1617  H1652   1.109   .     S
C1617  H1649   1.111   .     S
C1617  H1650   1.109   .     S
C1618  H1663   1.108   .     S
C1618  C602    1.535   1_556 S
C1618  H647    1.109   1_556 S
C1619  C1620   1.526   .     S
C1619  H1660   1.110   .     S
C1620  H1658   1.111   .     S
C1620  H1996   1.111   .     S
C1620  H1998   1.111   .     S
C1621  H1670   1.103   .     S
C1621  C1622   1.538   .     S
C1621  C1627   1.532   .     S
C1621  H1671   1.113   .     S
C1622  H1669   1.108   .     S
C1622  H1668   1.112   .     S
C1622  C1623   1.527   .     S
C1623  H1665   1.110   .     S
C1623  H1666   1.111   .     S
C1623  H1667   1.109   .     S
C1624  C611    1.407   1_556 S
C1625  C609    1.420   1_556 S
C1626  C1627   1.429   .     A
C1627  C1628   1.400   .     A
C1628  H1629   1.078   .     S
H1630  C1945   1.111   .     S
H1632  C587    1.109   1_556 S
H1644  C1839   1.110   .     S
H1661  C602    1.111   1_556 S
H1674  C590    1.111   1_556 S
I1677  C1935   2.155   .     S
O1679  Zn1693  1.924   .     S
O1679  Zn1694  1.938   .     S
O1679  Zn1692  1.956   .     S
O1679  Zn1695  1.932   .     S
O1680  Zn1693  1.910   .     S
O1681  Zn1695  1.914   .     S
O1682  Zn1694  1.903   .     S
O1683  Zn1692  1.901   .     S
O1684  Zn1692  1.929   .     S
O1685  Zn1695  1.938   .     S
O1686  Zn1693  1.938   .     S
O1687  Zn1694  1.942   .     S
O1688  Zn1695  1.934   .     S
O1689  Zn1692  1.933   .     S
O1690  Zn1693  1.945   .     S
O1691  Zn1694  1.935   .     S
C1696  C1706   1.431   .     S
C1696  O1801   1.261   .     A
C1696  O1799   1.257   .     A
C1697  C1738   1.412   .     A
C1697  C1698   1.386   .     A
C1697  H1786   1.077   .     S
C1698  H1775   1.079   .     S
C1698  C683    1.405   1_556 S
C1699  O1802   1.265   .     A
C1699  C1705   1.456   .     S
C1699  O1800   1.291   .     A
C1700  C1702   1.430   .     A
C1700  C1701   1.419   .     A
C1701  C1704   1.397   .     A
C1701  C1739   1.428   .     A
C1702  C1703   1.427   .     A
C1702  C1717   1.530   .     S
C1703  C1727   1.525   .     S
C1703  C1715   1.416   .     A
C1704  H1764   1.077   .     S
C1704  C1715   1.387   .     A
C1705  C1819   1.356   .     S
C1705  H1866   1.088   .     S
C1706  C1931   1.356   1_455 S
C1706  C1947   1.533   1_455 S
C1707  C1716   1.419   .     A
C1707  C1714   1.419   .     A
C1707  I1791   2.159   .     S
C1708  C1711   1.461   .     S
C1708  C1031   1.353   1_565 S
C1708  C1046   1.539   1_565 S
C1709  C1710   1.436   .     S
C1710  O1803   1.258   .     A
C1710  O1797   1.278   .     A
C1711  O1798   1.270   .     A
C1711  O1804   1.272   .     A
C1712  C1715   1.465   .     S
C1712  O1793   1.272   .     A
C1712  O1795   1.281   .     A
C1713  C1714   1.491   .     S
C1713  O1796   1.299   .     A
C1713  O1794   1.285   .     A
C1714  C1718   1.396   .     A
C1716  C1731   1.526   .     S
C1716  C1737   1.428   .     A
C1717  C1719   1.535   .     S
C1717  H1746   1.105   .     S
C1718  C1729   1.406   .     A
C1718  H1785   1.075   .     S
C1719  H1744   1.108   .     S
C1720  H1788   1.111   .     S
C1720  H1789   1.111   .     S
C1720  C1041   1.526   1_565 S
C1721  H1754   1.112   .     S
C1721  H1752   1.112   .     S
C1721  C1819   1.533   .     S
C1721  C1835   1.540   .     S
C1722  H1750   1.112   .     S
C1722  H1751   1.112   .     S
C1722  C1947   1.540   1_455 S
C1722  C1949   1.527   1_455 S
C1723  H1749   1.110   .     S
C1723  H1748   1.111   .     S
C1723  H1747   1.111   .     S
C1723  C1835   1.527   .     S
C1724  H1761   1.112   .     S
C1724  H1760   1.112   .     S
C1725  H1759   1.111   .     S
C1725  H1758   1.112   .     S
C1725  C1046   1.538   1_565 S
C1725  C1048   1.528   1_565 S
C1726  H1756   1.110   .     S
C1726  H1755   1.110   .     S
C1727  H1769   1.110   .     S
C1727  H1768   1.109   .     S
C1727  C1728   1.536   .     S
C1728  H1767   1.112   .     S
C1728  C1730   1.526   .     S
C1728  H1766   1.111   .     S
C1729  C1737   1.418   .     A
C1729  C1738   1.427   .     A
C1730  H1765   1.109   .     S
C1730  H1762   1.111   .     S
C1730  H1763   1.109   .     S
C1731  H1776   1.108   .     S
C1731  C715    1.535   1_556 S
C1731  H760    1.109   1_556 S
C1732  C1733   1.526   .     S
C1732  H1773   1.110   .     S
C1733  H1771   1.111   .     S
C1733  H1092   1.111   1_565 S
C1733  H1094   1.111   1_565 S
C1734  H1783   1.103   .     S
C1734  C1735   1.538   .     S
C1734  C1740   1.532   .     S
C1734  H1784   1.113   .     S
C1735  H1782   1.108   .     S
C1735  H1781   1.112   .     S
C1735  C1736   1.527   .     S
C1736  H1778   1.110   .     S
C1736  H1779   1.111   .     S
C1736  H1780   1.109   .     S
C1737  C724    1.407   1_556 S
C1738  C722    1.420   1_556 S
C1739  C1740   1.429   .     A
C1740  C1741   1.400   .     A
C1741  H1742   1.078   .     S
H1743  C1041   1.111   1_565 S
H1745  C700    1.109   1_556 S
H1753  C1931   1.088   1_455 S
H1757  C1274   1.110   1_465 S
H1774  C715    1.111   1_556 S
H1787  C703    1.111   1_556 S
I1790  C1031   2.155   1_565 S
O1792  Zn1806  1.924   .     S
O1792  Zn1807  1.938   .     S
O1792  Zn1805  1.956   .     S
O1792  Zn1808  1.932   .     S
O1793  Zn1806  1.910   .     S
O1794  Zn1808  1.914   .     S
O1795  Zn1807  1.903   .     S
O1796  Zn1805  1.901   .     S
O1797  Zn1805  1.929   .     S
O1798  Zn1808  1.938   .     S
O1799  Zn1806  1.938   .     S
O1800  Zn1807  1.942   .     S
O1801  Zn1808  1.934   .     S
O1802  Zn1805  1.933   .     S
O1803  Zn1806  1.945   .     S
O1804  Zn1807  1.935   .     S
C1809  C1819   1.431   .     S
C1809  O1914   1.261   .     A
C1809  O1912   1.257   .     A
C1810  C1851   1.412   .     A
C1810  C1811   1.386   .     A
C1810  H1899   1.077   .     S
C1811  H1888   1.079   .     S
C1811  C796    1.405   1_556 S
C1812  O1915   1.265   .     A
C1812  C1818   1.456   .     S
C1812  O1913   1.291   .     A
C1813  C1815   1.430   .     A
C1813  C1814   1.419   .     A
C1814  C1817   1.397   .     A
C1814  C1852   1.428   .     A
C1815  C1816   1.427   .     A
C1815  C1830   1.530   .     S
C1816  C1840   1.525   .     S
C1816  C1828   1.416   .     A
C1817  H1877   1.077   .     S
C1817  C1828   1.387   .     A
C1818  C1932   1.356   .     S
C1818  H1979   1.088   .     S
C1820  C1829   1.419   .     A
C1820  C1827   1.419   .     A
C1820  I1904   2.159   .     S
C1821  C1824   1.461   .     S
C1821  C1144   1.353   1_565 S
C1821  C1159   1.539   1_565 S
C1822  C1823   1.436   .     S
C1823  O1916   1.258   .     A
C1823  O1910   1.278   .     A
C1824  O1911   1.270   .     A
C1824  O1917   1.272   .     A
C1825  C1828   1.465   .     S
C1825  O1906   1.272   .     A
C1825  O1908   1.281   .     A
C1826  C1827   1.491   .     S
C1826  O1909   1.299   .     A
C1826  O1907   1.285   .     A
C1827  C1831   1.396   .     A
C1829  C1844   1.526   .     S
C1829  C1850   1.428   .     A
C1830  C1832   1.535   .     S
C1830  H1859   1.105   .     S
C1831  C1842   1.406   .     A
C1831  H1898   1.075   .     S
C1832  H1857   1.108   .     S
C1833  H1901   1.111   .     S
C1833  H1902   1.111   .     S
C1833  C1154   1.526   1_565 S
C1834  H1867   1.112   .     S
C1834  H1865   1.112   .     S
C1834  C1932   1.533   .     S
C1834  C1948   1.540   .     S
C1835  H1863   1.112   .     S
C1835  H1864   1.112   .     S
C1836  H1862   1.110   .     S
C1836  H1861   1.111   .     S
C1836  H1860   1.111   .     S
C1836  C1948   1.527   .     S
C1837  H1874   1.112   .     S
C1837  H1873   1.112   .     S
C1838  H1872   1.111   .     S
C1838  H1871   1.112   .     S
C1838  C1159   1.538   1_565 S
C1838  C1161   1.528   1_565 S
C1839  H1869   1.110   .     S
C1839  H1868   1.110   .     S
C1840  H1882   1.110   .     S
C1840  H1881   1.109   .     S
C1840  C1841   1.536   .     S
C1841  H1880   1.112   .     S
C1841  C1843   1.526   .     S
C1841  H1879   1.111   .     S
C1842  C1850   1.418   .     A
C1842  C1851   1.427   .     A
C1843  H1878   1.109   .     S
C1843  H1875   1.111   .     S
C1843  H1876   1.109   .     S
C1844  H1889   1.108   .     S
C1844  C828    1.535   1_556 S
C1844  H873    1.109   1_556 S
C1845  C1846   1.526   .     S
C1845  H1886   1.110   .     S
C1846  H1884   1.111   .     S
C1846  H1205   1.111   1_565 S
C1846  H1207   1.111   1_565 S
C1847  H1896   1.103   .     S
C1847  C1848   1.538   .     S
C1847  C1853   1.532   .     S
C1847  H1897   1.113   .     S
C1848  H1895   1.108   .     S
C1848  H1894   1.112   .     S
C1848  C1849   1.527   .     S
C1849  H1891   1.110   .     S
C1849  H1892   1.111   .     S
C1849  H1893   1.109   .     S
C1850  C837    1.407   1_556 S
C1851  C835    1.420   1_556 S
C1852  C1853   1.429   .     A
C1853  C1854   1.400   .     A
C1854  H1855   1.078   .     S
H1856  C1154   1.111   1_565 S
H1858  C813    1.109   1_556 S
H1870  C1048   1.110   1_565 S
H1887  C828    1.111   1_556 S
H1900  C816    1.111   1_556 S
I1903  C1144   2.155   1_565 S
O1905  Zn1919  1.924   .     S
O1905  Zn1920  1.938   .     S
O1905  Zn1918  1.956   .     S
O1905  Zn1921  1.932   .     S
O1906  Zn1919  1.910   .     S
O1907  Zn1921  1.914   .     S
O1908  Zn1920  1.903   .     S
O1909  Zn1918  1.901   .     S
O1910  Zn1918  1.929   .     S
O1911  Zn1921  1.938   .     S
O1912  Zn1919  1.938   .     S
O1913  Zn1920  1.942   .     S
O1914  Zn1921  1.934   .     S
O1915  Zn1918  1.933   .     S
O1916  Zn1919  1.945   .     S
O1917  Zn1920  1.935   .     S
C1922  C1932   1.431   .     S
C1922  O2027   1.261   .     A
C1922  O2025   1.257   .     A
C1923  C1964   1.412   .     A
C1923  C1924   1.386   .     A
C1923  H2012   1.077   .     S
C1924  H2001   1.079   .     S
C1924  C909    1.405   1_556 S
C1925  O2028   1.265   .     A
C1925  C1931   1.456   .     S
C1925  O2026   1.291   .     A
C1926  C1928   1.430   .     A
C1926  C1927   1.419   .     A
C1927  C1930   1.397   .     A
C1927  C1965   1.428   .     A
C1928  C1929   1.427   .     A
C1928  C1943   1.530   .     S
C1929  C1953   1.525   .     S
C1929  C1941   1.416   .     A
C1930  H1990   1.077   .     S
C1930  C1941   1.387   .     A
C1931  C1706   1.356   1_655 S
C1931  H1753   1.088   1_655 S
C1933  C1942   1.419   .     A
C1933  C1940   1.419   .     A
C1933  I2017   2.159   .     S
C1934  C1937   1.461   .     S
C1934  C1257   1.353   1_565 S
C1934  C1272   1.539   1_565 S
C1935  C1936   1.436   .     S
C1936  O2029   1.258   .     A
C1936  O2023   1.278   .     A
C1937  O2024   1.270   .     A
C1937  O2030   1.272   .     A
C1938  C1941   1.465   .     S
C1938  O2019   1.272   .     A
C1938  O2021   1.281   .     A
C1939  C1940   1.491   .     S
C1939  O2022   1.299   .     A
C1939  O2020   1.285   .     A
C1940  C1944   1.396   .     A
C1942  C1957   1.526   .     S
C1942  C1963   1.428   .     A
C1943  C1945   1.535   .     S
C1943  H1972   1.105   .     S
C1944  C1955   1.406   .     A
C1944  H2011   1.075   .     S
C1945  H1970   1.108   .     S
C1946  H2014   1.111   .     S
C1946  H2015   1.111   .     S
C1946  C1267   1.526   1_565 S
C1947  H1980   1.112   .     S
C1947  H1978   1.112   .     S
C1947  C1706   1.533   1_655 S
C1947  C1722   1.540   1_655 S
C1948  H1976   1.112   .     S
C1948  H1977   1.112   .     S
C1949  H1975   1.110   .     S
C1949  H1974   1.111   .     S
C1949  H1973   1.111   .     S
C1949  C1722   1.527   1_655 S
C1950  H1987   1.112   .     S
C1950  H1986   1.112   .     S
C1951  H1985   1.111   .     S
C1951  H1984   1.112   .     S
C1951  C1272   1.538   1_565 S
C1951  C1274   1.528   1_565 S
C1952  H1982   1.110   .     S
C1952  H1981   1.110   .     S
C1952  H1418   1.110   1_655 S
C1953  H1995   1.110   .     S
C1953  H1994   1.109   .     S
C1953  C1954   1.536   .     S
C1954  H1993   1.112   .     S
C1954  C1956   1.526   .     S
C1954  H1992   1.111   .     S
C1955  C1963   1.418   .     A
C1955  C1964   1.427   .     A
C1956  H1991   1.109   .     S
C1956  H1988   1.111   .     S
C1956  H1989   1.109   .     S
C1957  H2002   1.108   .     S
C1957  C941    1.535   1_556 S
C1957  H986    1.109   1_556 S
C1958  C1959   1.526   .     S
C1958  H1999   1.110   .     S
C1959  H1997   1.111   .     S
C1959  H1318   1.111   1_565 S
C1959  H1320   1.111   1_565 S
C1960  H2009   1.103   .     S
C1960  C1961   1.538   .     S
C1960  C1966   1.532   .     S
C1960  H2010   1.113   .     S
C1961  H2008   1.108   .     S
C1961  H2007   1.112   .     S
C1961  C1962   1.527   .     S
C1962  H2004   1.110   .     S
C1962  H2005   1.111   .     S
C1962  H2006   1.109   .     S
C1963  C950    1.407   1_556 S
C1964  C948    1.420   1_556 S
C1965  C1966   1.429   .     A
C1966  C1967   1.400   .     A
C1967  H1968   1.078   .     S
H1969  C1267   1.111   1_565 S
H1971  C926    1.109   1_556 S
H1983  C1161   1.110   1_565 S
H2000  C941    1.111   1_556 S
H2013  C929    1.111   1_556 S
I2016  C1257   2.155   1_565 S
O2018  Zn2032  1.924   .     S
O2018  Zn2033  1.938   .     S
O2018  Zn2031  1.956   .     S
O2018  Zn2034  1.932   .     S
O2019  Zn2032  1.910   .     S
O2020  Zn2034  1.914   .     S
O2021  Zn2033  1.903   .     S
O2022  Zn2031  1.901   .     S
O2023  Zn2031  1.929   .     S
O2024  Zn2034  1.938   .     S
O2025  Zn2032  1.938   .     S
O2026  Zn2033  1.942   .     S
O2027  Zn2034  1.934   .     S
O2028  Zn2031  1.933   .     S
O2029  Zn2032  1.945   .     S
O2030  Zn2033  1.935   .     S
