data_str_m1_o2_o5_pcu_sym.24
_audit_creation_date              2020-01-03
_audit_creation_method            'Materials Studio'
_symmetry_space_group_name_H-M    'P1'
_symmetry_Int_Tables_number       1
_symmetry_cell_setting            triclinic
loop_
_symmetry_equiv_pos_as_xyz
  x,y,z
_cell_length_a                    24.4954
_cell_length_b                    24.5117
_cell_length_c                    22.3916
_cell_angle_alpha                 89.9646
_cell_angle_beta                  90.0087
_cell_angle_gamma                 90.0445
loop_
_atom_site_label
_atom_site_type_symbol
_atom_site_fract_x
_atom_site_fract_y
_atom_site_fract_z
_atom_site_U_iso_or_equiv
_atom_site_adp_type
_atom_site_occupancy
C1     C     0.22822   0.27197   0.24984   0.00000  Uiso   1.00
C2     C     0.22941   0.72809   0.25002   0.00000  Uiso   1.00
C3     C     0.17885   0.65773   0.30241   0.00000  Uiso   1.00
C4     C     0.36336   0.20087   0.72866   0.00000  Uiso   1.00
C5     C     0.65724   0.82051   0.30199   0.00000  Uiso   1.00
C6     C     0.20355   0.63187   0.74973   0.00000  Uiso   1.00
C7     C     0.82163   0.34181   0.30254   0.00000  Uiso   1.00
C8     C     0.36568   0.79759   0.26687   0.00000  Uiso   1.00
C9     C     0.66136   0.17427   0.69561   0.00000  Uiso   1.00
C10    C     0.15667   0.32178   0.30181   0.00000  Uiso   1.00
C11    C     0.79618   0.63226   0.74854   0.00000  Uiso   1.00
C12    C     0.63436   0.20236   0.26756   0.00000  Uiso   1.00
C13    C     0.72943   0.77089   0.74935   0.00000  Uiso   1.00
C14    C     0.34896   0.81261   0.70389   0.00000  Uiso   1.00
C15    C     0.79736   0.63404   0.26626   0.00000  Uiso   1.00
C16    C     0.17862   0.34196   0.69779   0.00000  Uiso   1.00
C17    C     0.14721   0.35292   0.24997   0.00000  Uiso   1.00
C18    C     0.85209   0.64681   0.75167   0.00000  Uiso   1.00
C19    C     0.35280   0.85142   0.24830   0.00000  Uiso   1.00
C20    C     0.64839   0.14669   0.74931   0.00000  Uiso   1.00
C21    C     0.85135   0.64712   0.24823   0.00000  Uiso   1.00
C22    C     0.14751   0.35206   0.74999   0.00000  Uiso   1.00
C23    C     0.64709   0.14876   0.24812   0.00000  Uiso   1.00
C24    C     0.27085   0.22942   0.24981   0.00000  Uiso   1.00
C25    C     0.35220   0.85139   0.75093   0.00000  Uiso   1.00
C26    C     0.85391   0.35001   0.74672   0.00000  Uiso   1.00
C27    C     0.14786   0.64762   0.25007   0.00000  Uiso   1.00
C28    C     0.64814   0.85206   0.74971   0.00000  Uiso   1.00
C29    C     0.35214   0.14802   0.24989   0.00000  Uiso   1.00
C30    C     0.14791   0.64703   0.74949   0.00000  Uiso   1.00
C31    C     0.85193   0.35269   0.24991   0.00000  Uiso   1.00
C32    C     0.35136   0.14716   0.74832   0.00000  Uiso   1.00
C33    C     0.64744   0.85193   0.24987   0.00000  Uiso   1.00
C34    C     0.13666   0.34974   0.10089   0.00000  Uiso   1.00
C35    C     0.22928   0.72738   0.75266   0.00000  Uiso   1.00
C36    C     0.93949   0.73193   0.81955   0.00000  Uiso   1.00
C37    C     0.28223   0.92432   0.14691   0.00000  Uiso   1.00
C38    C     0.61890   0.15629   0.88852   0.00000  Uiso   1.00
C39    C     0.92503   0.71854   0.14806   0.00000  Uiso   1.00
C40    C     0.14985   0.37470   0.89164   0.00000  Uiso   1.00
C41    C     0.71623   0.07736   0.14456   0.00000  Uiso   1.00
C42    C     0.35407   0.86726   0.89490   0.00000  Uiso   1.00
C43    C     0.95748   0.26906   0.74996   0.00000  Uiso   1.00
C44    C     0.15065   0.62336   0.10892   0.00000  Uiso   1.00
C45    C     0.73425   0.94989   0.78284   0.00000  Uiso   1.00
C46    C     0.77026   0.27236   0.24969   0.00000  Uiso   1.00
C47    C     0.37173   0.14718   0.10771   0.00000  Uiso   1.00
C48    C     0.05837   0.71647   0.68165   0.00000  Uiso   1.00
C49    C     0.84686   0.38039   0.10989   0.00000  Uiso   1.00
C50    C     0.27065   0.04440   0.73586   0.00000  Uiso   1.00
C51    C     0.62324   0.84975   0.10879   0.00000  Uiso   1.00
C52    C     0.55028   0.76594   0.71604   0.00000  Uiso   1.00
C53    C     0.35304   0.12899   0.39234   0.00000  Uiso   1.00
C54    C     0.79662   0.41146   0.62963   0.00000  Uiso   1.00
C55    C     0.12340   0.65081   0.39105   0.00000  Uiso   1.00
C56    C     0.42320   0.21667   0.64521   0.00000  Uiso   1.00
C57    C     0.27024   0.22823   0.74988   0.00000  Uiso   1.00
C58    C     0.65020   0.87507   0.39119   0.00000  Uiso   1.00
C59    C     0.23603   0.55494   0.69320   0.00000  Uiso   1.00
C60    C     0.87826   0.34749   0.39042   0.00000  Uiso   1.00
C61    C     0.45545   0.77133   0.23329   0.00000  Uiso   1.00
C62    C     0.65515   0.11438   0.61048   0.00000  Uiso   1.00
C63    C     0.15064   0.36325   0.39900   0.00000  Uiso   1.00
C64    C     0.75585   0.55797   0.69289   0.00000  Uiso   1.00
C65    C     0.54422   0.22910   0.23564   0.00000  Uiso   1.00
C66    C     0.36613   0.85139   0.60687   0.00000  Uiso   1.00
C67    C     0.77149   0.54438   0.23206   0.00000  Uiso   1.00
C68    C     0.72775   0.77023   0.24960   0.00000  Uiso   1.00
C69    C     0.12436   0.35012   0.60840   0.00000  Uiso   1.00
C70    C     0.00002   0.49992   0.47329   0.00000  Uiso   1.00
C71    C     0.00001   0.49992   0.52670   0.00000  Uiso   1.00
C72    C     0.50001   0.99999   0.47329   0.00000  Uiso   1.00
C73    C     0.77163   0.72828   0.74960   0.00000  Uiso   1.00
C74    C     0.50001   0.00002   0.52671   0.00000  Uiso   1.00
C75    C     0.50000   0.00000   0.97329   0.00000  Uiso   1.00
C76    C     0.50000   0.00000   0.02671   0.00000  Uiso   1.00
C77    C     0.00007   0.49997   0.97330   0.00000  Uiso   1.00
C78    C     0.00007   0.50000   0.02671   0.00000  Uiso   1.00
C79    C     0.00003   0.50001   0.09006   0.00000  Uiso   1.00
C80    C     0.00004   0.49998   0.90994   0.00000  Uiso   1.00
C81    C     0.50000  -0.00000   0.09005   0.00000  Uiso   1.00
C82    C     0.50000   0.00000   0.90995   0.00000  Uiso   1.00
C83    C     0.50001   0.00001   0.59006   0.00000  Uiso   1.00
C84    C     0.27167   0.77037   0.24998   0.00000  Uiso   1.00
C85    C     0.50000  -0.00001   0.40994   0.00000  Uiso   1.00
C86    C     0.00000   0.49995   0.59005   0.00000  Uiso   1.00
C87    C     0.00001   0.49996   0.40995   0.00000  Uiso   1.00
C88    C     0.10521   0.60522   0.25005   0.00000  Uiso   1.00
C89    C     0.89509   0.39423   0.74925   0.00000  Uiso   1.00
C90    C     0.60519   0.89474   0.25000   0.00000  Uiso   1.00
C91    C     0.39458   0.10516   0.74968   0.00000  Uiso   1.00
C92    C     0.89475   0.39485   0.25002   0.00000  Uiso   1.00
C93    C     0.10530   0.60493   0.75006   0.00000  Uiso   1.00
C94    C     0.39472   0.10530   0.24997   0.00000  Uiso   1.00
C95    C     0.73145   0.22545   0.74786   0.00000  Uiso   1.00
C96    C     0.60536   0.89469   0.74995   0.00000  Uiso   1.00
C97    C     0.89469   0.60487   0.75046   0.00000  Uiso   1.00
C98    C     0.10503   0.39500   0.25000   0.00000  Uiso   1.00
C99    C     0.39468   0.89456   0.75015   0.00000  Uiso   1.00
C100   C     0.60514   0.10544   0.24963   0.00000  Uiso   1.00
C101   C     0.10520   0.39476   0.75002   0.00000  Uiso   1.00
C102   C     0.89460   0.60516   0.24969   0.00000  Uiso   1.00
C103   C     0.60522   0.10507   0.74997   0.00000  Uiso   1.00
C104   C     0.39484   0.89460   0.24968   0.00000  Uiso   1.00
C105   C     0.21927   0.30391   0.19877   0.00000  Uiso   1.00
C106   C     0.77009   0.72802   0.24956   0.00000  Uiso   1.00
C107   C     0.82684   0.74255   0.75195   0.00000  Uiso   1.00
C108   C     0.25898   0.82298   0.23070   0.00000  Uiso   1.00
C109   C     0.71956   0.19745   0.80063   0.00000  Uiso   1.00
C110   C     0.82288   0.74090   0.23082   0.00000  Uiso   1.00
C111   C     0.19666   0.27950   0.80106   0.00000  Uiso   1.00
C112   C     0.74062   0.17768   0.22941   0.00000  Uiso   1.00
C113   C     0.27370   0.80794   0.79823   0.00000  Uiso   1.00
C114   C     0.82493   0.25774   0.77228   0.00000  Uiso   1.00
C115   C     0.19833   0.71899   0.19867   0.00000  Uiso   1.00
C116   C     0.73598   0.81783   0.78400   0.00000  Uiso   1.00
C117   C     0.22793   0.27047   0.74989   0.00000  Uiso   1.00
C118   C     0.27879   0.19666   0.19938   0.00000  Uiso   1.00
C119   C     0.17429   0.74250   0.75206   0.00000  Uiso   1.00
C120   C     0.80052   0.28240   0.19795   0.00000  Uiso   1.00
C121   C     0.25796   0.17538   0.76900   0.00000  Uiso   1.00
C122   C     0.71886   0.80162   0.19843   0.00000  Uiso   1.00
C123   C     0.68239   0.76448   0.71478   0.00000  Uiso   1.00
C124   C     0.30367   0.22149   0.30023   0.00000  Uiso   1.00
C125   C     0.76253   0.31837   0.72158   0.00000  Uiso   1.00
C126   C     0.22002   0.69717   0.30138   0.00000  Uiso   1.00
C127   C     0.32275   0.24075   0.72996   0.00000  Uiso   1.00
C128   C     0.72808   0.23001   0.24962   0.00000  Uiso   1.00
C129   C     0.69659   0.77930   0.30084   0.00000  Uiso   1.00
C130   C     0.24380   0.67229   0.75138   0.00000  Uiso   1.00
C131   C     0.78041   0.30242   0.30146   0.00000  Uiso   1.00
C132   C     0.32470   0.75791   0.26835   0.00000  Uiso   1.00
C133   C     0.70225   0.21393   0.69571   0.00000  Uiso   1.00
C134   C     0.19635   0.28082   0.30097   0.00000  Uiso   1.00
C135   C     0.75670   0.67320   0.74863   0.00000  Uiso   1.00
C136   C     0.67528   0.24211   0.26896   0.00000  Uiso   1.00
C137   C     0.30956   0.77139   0.70605   0.00000  Uiso   1.00
C138   C     0.75759   0.67490   0.26758   0.00000  Uiso   1.00
C139   C     0.27170   0.76942   0.75251   0.00000  Uiso   1.00
C140   C     0.21912   0.30190   0.69872   0.00000  Uiso   1.00
C141   C     0.17828   0.34357   0.19806   0.00000  Uiso   1.00
C142   C     0.86706   0.70245   0.75484   0.00000  Uiso   1.00
C143   C     0.29890   0.86360   0.22941   0.00000  Uiso   1.00
C144   C     0.67775   0.15874   0.80221   0.00000  Uiso   1.00
C145   C     0.86360   0.70110   0.22974   0.00000  Uiso   1.00
C146   C     0.15720   0.32060   0.80211   0.00000  Uiso   1.00
C147   C     0.70078   0.13696   0.22821   0.00000  Uiso   1.00
C148   C     0.31425   0.84807   0.79885   0.00000  Uiso   1.00
C149   C     0.86550   0.29787   0.77144   0.00000  Uiso   1.00
C150   C     0.77366   0.26783   0.74742   0.00000  Uiso   1.00
C151   C     0.15831   0.67841   0.19772   0.00000  Uiso   1.00
C152   C     0.69683   0.85907   0.78332   0.00000  Uiso   1.00
C153   C     0.31966   0.15688   0.19838   0.00000  Uiso   1.00
C154   C     0.13338   0.70279   0.74916   0.00000  Uiso   1.00
C155   C     0.84054   0.32299   0.19710   0.00000  Uiso   1.00
C156   C     0.29765   0.13446   0.76767   0.00000  Uiso   1.00
C157   C     0.67833   0.84167   0.19756   0.00000  Uiso   1.00
C158   C     0.64110   0.80357   0.71578   0.00000  Uiso   1.00
C159   C     0.34340   0.18059   0.30131   0.00000  Uiso   1.00
C160   C     0.80204   0.35932   0.72036   0.00000  Uiso   1.00
H1     H     0.24421   0.29830   0.15931   0.00000  Uiso   1.00
H2     H     0.20633   0.74248   0.15857   0.00000  Uiso   1.00
H3     H     0.54028   0.78912   0.75724   0.00000  Uiso   1.00
H4     H     0.38119   0.20752   0.37849   0.00000  Uiso   1.00
H5     H     0.31179   0.13979   0.40927   0.00000  Uiso   1.00
H6     H     0.38084   0.12307   0.43098   0.00000  Uiso   1.00
H7     H     0.35072   0.08997   0.36727   0.00000  Uiso   1.00
H8     H     0.74985   0.42328   0.70508   0.00000  Uiso   1.00
H9     H     0.76800   0.38286   0.60715   0.00000  Uiso   1.00
H10    H     0.83927   0.40009   0.61822   0.00000  Uiso   1.00
H11    H     0.78889   0.45334   0.61275   0.00000  Uiso   1.00
H12    H     0.20269   0.62304   0.38252   0.00000  Uiso   1.00
H13    H     0.77194   0.82293   0.81161   0.00000  Uiso   1.00
H14    H     0.13313   0.69275   0.40664   0.00000  Uiso   1.00
H15    H     0.11609   0.62442   0.43058   0.00000  Uiso   1.00
H16    H     0.08542   0.65174   0.36397   0.00000  Uiso   1.00
H17    H     0.43053   0.25136   0.72883   0.00000  Uiso   1.00
H18    H     0.39789   0.24962   0.62530   0.00000  Uiso   1.00
H19    H     0.41109   0.17685   0.62553   0.00000  Uiso   1.00
H20    H     0.46669   0.22436   0.63402   0.00000  Uiso   1.00
H21    H     0.62198   0.79605   0.38157   0.00000  Uiso   1.00
H22    H     0.69203   0.86500   0.40697   0.00000  Uiso   1.00
H23    H     0.62363   0.88213   0.43060   0.00000  Uiso   1.00
H24    H     0.25339   0.20216   0.16022   0.00000  Uiso   1.00
H25    H     0.65153   0.91328   0.36452   0.00000  Uiso   1.00
H26    H     0.24749   0.56742   0.78348   0.00000  Uiso   1.00
H27    H     0.27457   0.57484   0.67860   0.00000  Uiso   1.00
H28    H     0.20390   0.56214   0.65907   0.00000  Uiso   1.00
H29    H     0.24300   0.51030   0.69675   0.00000  Uiso   1.00
H30    H     0.79885   0.37534   0.38355   0.00000  Uiso   1.00
H31    H     0.86877   0.30531   0.40544   0.00000  Uiso   1.00
H32    H     0.88603   0.37329   0.43027   0.00000  Uiso   1.00
H33    H     0.91589   0.34703   0.36277   0.00000  Uiso   1.00
H34    H     0.42165   0.75245   0.31538   0.00000  Uiso   1.00
H35    H     0.16331   0.78533   0.75142   0.00000  Uiso   1.00
H36    H     0.44079   0.73480   0.20866   0.00000  Uiso   1.00
H37    H     0.45715   0.80672   0.20234   0.00000  Uiso   1.00
H38    H     0.49742   0.76337   0.24988   0.00000  Uiso   1.00
H39    H     0.63012   0.19488   0.61278   0.00000  Uiso   1.00
H40    H     0.62975   0.10589   0.57046   0.00000  Uiso   1.00
H41    H     0.65379   0.07794   0.63995   0.00000  Uiso   1.00
H42    H     0.69793   0.12173   0.59598   0.00000  Uiso   1.00
H43    H     0.10997   0.29385   0.37177   0.00000  Uiso   1.00
H44    H     0.18717   0.34213   0.41721   0.00000  Uiso   1.00
H45    H     0.16310   0.40322   0.37997   0.00000  Uiso   1.00
H46    H     0.79185   0.25966   0.15753   0.00000  Uiso   1.00
H47    H     0.12153   0.37086   0.43609   0.00000  Uiso   1.00
H48    H     0.80358   0.54922   0.76964   0.00000  Uiso   1.00
H49    H     0.78867   0.55469   0.65884   0.00000  Uiso   1.00
H50    H     0.72361   0.58607   0.67647   0.00000  Uiso   1.00
H51    H     0.73692   0.51738   0.69948   0.00000  Uiso   1.00
H52    H     0.57895   0.24674   0.31757   0.00000  Uiso   1.00
H53    H     0.55858   0.26603   0.21146   0.00000  Uiso   1.00
H54    H     0.54222   0.19419   0.20409   0.00000  Uiso   1.00
H55    H     0.50243   0.23675   0.25291   0.00000  Uiso   1.00
H56    H     0.39527   0.77724   0.63718   0.00000  Uiso   1.00
H57    H     0.21689   0.16551   0.78347   0.00000  Uiso   1.00
H58    H     0.39763   0.85363   0.57129   0.00000  Uiso   1.00
H59    H     0.35957   0.89318   0.62466   0.00000  Uiso   1.00
H60    H     0.32745   0.83603   0.58709   0.00000  Uiso   1.00
H61    H     0.75193   0.57778   0.31409   0.00000  Uiso   1.00
H62    H     0.73510   0.55902   0.20711   0.00000  Uiso   1.00
H63    H     0.80714   0.54289   0.20145   0.00000  Uiso   1.00
H64    H     0.76345   0.50235   0.24840   0.00000  Uiso   1.00
H65    H     0.20368   0.37745   0.61857   0.00000  Uiso   1.00
H66    H     0.11770   0.37700   0.56913   0.00000  Uiso   1.00
H67    H     0.08603   0.34902   0.63489   0.00000  Uiso   1.00
H68    H     0.74248   0.79386   0.15840   0.00000  Uiso   1.00
H69    H     0.13407   0.30834   0.59235   0.00000  Uiso   1.00
H70    H     0.67719   0.72856   0.68719   0.00000  Uiso   1.00
H71    H     0.29823   0.24691   0.33934   0.00000  Uiso   1.00
H72    H     0.72266   0.32630   0.70243   0.00000  Uiso   1.00
H73    H     0.83907   0.78503   0.75188   0.00000  Uiso   1.00
H74    H     0.24362   0.70496   0.34143   0.00000  Uiso   1.00
H75    H     0.33242   0.28190   0.71565   0.00000  Uiso   1.00
H76    H     0.70415   0.75543   0.34076   0.00000  Uiso   1.00
H77    H     0.28649   0.66069   0.75196   0.00000  Uiso   1.00
H78    H     0.75736   0.29399   0.34175   0.00000  Uiso   1.00
H79    H     0.33463   0.71673   0.28229   0.00000  Uiso   1.00
H80    H     0.71219   0.23495   0.65451   0.00000  Uiso   1.00
H81    H     0.20204   0.25582   0.34039   0.00000  Uiso   1.00
H82    H     0.71400   0.66166   0.74918   0.00000  Uiso   1.00
H83    H     0.66545   0.28308   0.28362   0.00000  Uiso   1.00
H84    H     0.21768   0.83271   0.21693   0.00000  Uiso   1.00
H85    H     0.30724   0.74183   0.67014   0.00000  Uiso   1.00
H86    H     0.71632   0.66481   0.28114   0.00000  Uiso   1.00
H87    H     0.24280   0.29419   0.65872   0.00000  Uiso   1.00
H88    H     0.20608   0.39043   0.12817   0.00000  Uiso   1.00
H89    H     0.15784   0.31330   0.08260   0.00000  Uiso   1.00
H90    H     0.12896   0.37889   0.06386   0.00000  Uiso   1.00
H91    H     0.09672   0.33717   0.11991   0.00000  Uiso   1.00
H92    H     0.93253   0.74949   0.72993   0.00000  Uiso   1.00
H93    H     0.91793   0.76910   0.83539   0.00000  Uiso   1.00
H94    H     0.98408   0.73981   0.82037   0.00000  Uiso   1.00
H95    H     0.74159   0.20707   0.84127   0.00000  Uiso   1.00
H96    H     0.93061   0.69760   0.85048   0.00000  Uiso   1.00
H97    H     0.24851   0.93073   0.23111   0.00000  Uiso   1.00
H98    H     0.24895   0.89930   0.12718   0.00000  Uiso   1.00
H99    H     0.32181   0.91238   0.12650   0.00000  Uiso   1.00
H100   H     0.27455   0.96792   0.13638   0.00000  Uiso   1.00
H101   H     0.69822   0.12767   0.88518   0.00000  Uiso   1.00
H102   H     0.62830   0.19889   0.90207   0.00000  Uiso   1.00
H103   H     0.60999   0.13188   0.92916   0.00000  Uiso   1.00
H104   H     0.58195   0.15604   0.85977   0.00000  Uiso   1.00
H105   H     0.93075   0.75153   0.23264   0.00000  Uiso   1.00
H106   H     0.83268   0.78226   0.21737   0.00000  Uiso   1.00
H107   H     0.90016   0.75193   0.12838   0.00000  Uiso   1.00
H108   H     0.91324   0.67915   0.12714   0.00000  Uiso   1.00
H109   H     0.96874   0.72636   0.13807   0.00000  Uiso   1.00
H110   H     0.12147   0.29582   0.88132   0.00000  Uiso   1.00
H111   H     0.19158   0.36444   0.90759   0.00000  Uiso   1.00
H112   H     0.12312   0.38157   0.93098   0.00000  Uiso   1.00
H113   H     0.15137   0.41306   0.86525   0.00000  Uiso   1.00
H114   H     0.75147   0.07003   0.22794   0.00000  Uiso   1.00
H115   H     0.74902   0.10281   0.12447   0.00000  Uiso   1.00
H116   H     0.67623   0.08935   0.12515   0.00000  Uiso   1.00
H117   H     0.20415   0.25564   0.84101   0.00000  Uiso   1.00
H118   H     0.72394   0.03395   0.13326   0.00000  Uiso   1.00
H119   H     0.27902   0.89475   0.86532   0.00000  Uiso   1.00
H120   H     0.33957   0.82866   0.91563   0.00000  Uiso   1.00
H121   H     0.35627   0.89928   0.92988   0.00000  Uiso   1.00
H122   H     0.39574   0.86110   0.87654   0.00000  Uiso   1.00
H123   H     0.91708   0.25790   0.83013   0.00000  Uiso   1.00
H124   H     0.94485   0.23016   0.72851   0.00000  Uiso   1.00
H125   H     0.96158   0.30121   0.71525   0.00000  Uiso   1.00
H126   H     0.99798   0.26319   0.77130   0.00000  Uiso   1.00
H127   H     0.12357   0.70280   0.11785   0.00000  Uiso   1.00
H128   H     0.78175   0.16824   0.21484   0.00000  Uiso   1.00
H129   H     0.12404   0.61638   0.06950   0.00000  Uiso   1.00
H130   H     0.15138   0.58531   0.13588   0.00000  Uiso   1.00
H131   H     0.19264   0.63279   0.09315   0.00000  Uiso   1.00
H132   H     0.72618   0.90039   0.85707   0.00000  Uiso   1.00
H133   H     0.77603   0.93663   0.77005   0.00000  Uiso   1.00
H134   H     0.71065   0.95994   0.74189   0.00000  Uiso   1.00
H135   H     0.73737   0.98733   0.81053   0.00000  Uiso   1.00
H136   H     0.29291   0.11946   0.12091   0.00000  Uiso   1.00
H137   H     0.37776   0.11944   0.06909   0.00000  Uiso   1.00
H138   H     0.41065   0.14929   0.13309   0.00000  Uiso   1.00
H139   H     0.24452   0.80578   0.83457   0.00000  Uiso   1.00
H140   H     0.36123   0.18849   0.09074   0.00000  Uiso   1.00
H141   H     0.06944   0.75641   0.76199   0.00000  Uiso   1.00
H142   H     0.08214   0.74470   0.65273   0.00000  Uiso   1.00
H143   H     0.06174   0.67430   0.66397   0.00000  Uiso   1.00
H144   H     0.01483   0.72859   0.68000   0.00000  Uiso   1.00
H145   H     0.87343   0.30052   0.11566   0.00000  Uiso   1.00
H146   H     0.87271   0.38822   0.07006   0.00000  Uiso   1.00
H147   H     0.84701   0.41770   0.13802   0.00000  Uiso   1.00
H148   H     0.80447   0.37173   0.09488   0.00000  Uiso   1.00
H149   H     0.25314   0.07913   0.81778   0.00000  Uiso   1.00
H150   H     0.83395   0.21800   0.79109   0.00000  Uiso   1.00
H151   H     0.23369   0.05877   0.71174   0.00000  Uiso   1.00
H152   H     0.30553   0.04240   0.70425   0.00000  Uiso   1.00
H153   H     0.26293   0.00264   0.75318   0.00000  Uiso   1.00
H154   H     0.70286   0.87659   0.11781   0.00000  Uiso   1.00
H155   H     0.61631   0.87652   0.06949   0.00000  Uiso   1.00
H156   H     0.58518   0.84897   0.13576   0.00000  Uiso   1.00
H157   H     0.63252   0.80783   0.09285   0.00000  Uiso   1.00
H158   H     0.59968   0.77474   0.64183   0.00000  Uiso   1.00
H159   H     0.56364   0.72409   0.72837   0.00000  Uiso   1.00
H160   H     0.51276   0.76303   0.68838   0.00000  Uiso   1.00
N1     N     0.17008   0.37574   0.14592   0.00000  Uiso   1.00
N2     N     0.12943   0.66838   0.14361   0.00000  Uiso   1.00
N3     N     0.70719   0.90743   0.81666   0.00000  Uiso   1.00
N4     N     0.32813   0.12649   0.14500   0.00000  Uiso   1.00
N5     N     0.07798   0.71923   0.74256   0.00000  Uiso   1.00
N6     N     0.86840   0.33426   0.14263   0.00000  Uiso   1.00
N7     N     0.28286   0.08055   0.78516   0.00000  Uiso   1.00
N8     N     0.66840   0.87074   0.14355   0.00000  Uiso   1.00
N9     N     0.59266   0.79336   0.68243   0.00000  Uiso   1.00
N10    N     0.37390   0.17223   0.35468   0.00000  Uiso   1.00
N11    N     0.78843   0.41014   0.69363   0.00000  Uiso   1.00
N12    N     0.92267   0.71861   0.75933   0.00000  Uiso   1.00
N13    N     0.16839   0.62911   0.35661   0.00000  Uiso   1.00
N14    N     0.41668   0.21577   0.70944   0.00000  Uiso   1.00
N15    N     0.62839   0.83056   0.35609   0.00000  Uiso   1.00
N16    N     0.21919   0.57600   0.75067   0.00000  Uiso   1.00
N17    N     0.83281   0.36965   0.35701   0.00000  Uiso   1.00
N18    N     0.41983   0.78266   0.28332   0.00000  Uiso   1.00
N19    N     0.63408   0.16188   0.64108   0.00000  Uiso   1.00
N20    N     0.12457   0.32986   0.35400   0.00000  Uiso   1.00
N21    N     0.77826   0.57695   0.74893   0.00000  Uiso   1.00
N22    N     0.58040   0.21702   0.28500   0.00000  Uiso   1.00
N23    N     0.28387   0.91709   0.21104   0.00000  Uiso   1.00
N24    N     0.38451   0.81503   0.65366   0.00000  Uiso   1.00
N25    N     0.78239   0.57982   0.28234   0.00000  Uiso   1.00
N26    N     0.16901   0.37125   0.64385   0.00000  Uiso   1.00
N27    N     0.66499   0.13277   0.85741   0.00000  Uiso   1.00
N28    N     0.91727   0.71635   0.21208   0.00000  Uiso   1.00
N29    N     0.12810   0.33045   0.85611   0.00000  Uiso   1.00
N30    N     0.71571   0.08377   0.20880   0.00000  Uiso   1.00
N31    N     0.31678   0.88437   0.84839   0.00000  Uiso   1.00
N32    N     0.91802   0.28492   0.79478   0.00000  Uiso   1.00
O1     O     0.00000   0.50000   0.25000   0.00000  Uiso   1.00
O2     O     0.00000   0.45454   0.88202   0.00000  Uiso   1.00
O3     O     0.54546   0.00000   0.11798   0.00000  Uiso   1.00
O4     O     0.45454  -0.00000   0.88202   0.00000  Uiso   1.00
O5     O     0.50000   0.95454   0.61798   0.00000  Uiso   1.00
O6     O     0.50000   0.04546   0.38202   0.00000  Uiso   1.00
O7     O     0.95454   0.50000   0.61798   0.00000  Uiso   1.00
O8     O     0.04546   0.50000   0.38202   0.00000  Uiso   1.00
O9     O     0.50000   0.04546   0.61798   0.00000  Uiso   1.00
O10    O     0.50000   0.95454   0.38202   0.00000  Uiso   1.00
O11    O     0.04546   0.50000   0.61798   0.00000  Uiso   1.00
O12    O     0.00000   0.50000   0.75000   0.00000  Uiso   1.00
O13    O     0.95454   0.50000   0.38202   0.00000  Uiso   1.00
O14    O     0.06399   0.60947   0.21539   0.00000  Uiso   1.00
O15    O     0.93601   0.39053   0.78461   0.00000  Uiso   1.00
O16    O     0.60947   0.93601   0.21539   0.00000  Uiso   1.00
O17    O     0.39053   0.06399   0.78461   0.00000  Uiso   1.00
O18    O     0.93601   0.39053   0.21539   0.00000  Uiso   1.00
O19    O     0.06399   0.60947   0.78461   0.00000  Uiso   1.00
O20    O     0.39053   0.06399   0.21539   0.00000  Uiso   1.00
O21    O     0.60947   0.93601   0.78461   0.00000  Uiso   1.00
O22    O     0.93601   0.60947   0.78461   0.00000  Uiso   1.00
O23    O     0.50000   0.00000   0.25000   0.00000  Uiso   1.00
O24    O     0.06399   0.39053   0.21539   0.00000  Uiso   1.00
O25    O     0.39053   0.93601   0.78461   0.00000  Uiso   1.00
O26    O     0.60947   0.06399   0.21539   0.00000  Uiso   1.00
O27    O     0.06399   0.39053   0.78461   0.00000  Uiso   1.00
O28    O     0.93601   0.60947   0.21539   0.00000  Uiso   1.00
O29    O     0.60947   0.06399   0.78461   0.00000  Uiso   1.00
O30    O     0.39053   0.93601   0.21539   0.00000  Uiso   1.00
O31    O     0.56399   0.10947   0.71539   0.00000  Uiso   1.00
O32    O     0.43601   0.89053   0.28461   0.00000  Uiso   1.00
O33    O     0.10947   0.43601   0.71539   0.00000  Uiso   1.00
O34    O     0.50000   0.00000   0.75000   0.00000  Uiso   1.00
O35    O     0.89053   0.56399   0.28461   0.00000  Uiso   1.00
O36    O     0.43601   0.89053   0.71539   0.00000  Uiso   1.00
O37    O     0.56399   0.10947   0.28461   0.00000  Uiso   1.00
O38    O     0.89053   0.56399   0.71539   0.00000  Uiso   1.00
O39    O     0.10947   0.43601   0.28461   0.00000  Uiso   1.00
O40    O     0.43601   0.10947   0.28461   0.00000  Uiso   1.00
O41    O     0.56399   0.89053   0.71539   0.00000  Uiso   1.00
O42    O     0.89053   0.43601   0.28461   0.00000  Uiso   1.00
O43    O     0.10947   0.56399   0.71539   0.00000  Uiso   1.00
O44    O     0.56399   0.89053   0.28461   0.00000  Uiso   1.00
O45    O     0.00000   0.45454   0.11798   0.00000  Uiso   1.00
O46    O     0.43601   0.10947   0.71539   0.00000  Uiso   1.00
O47    O     0.10947   0.56399   0.28461   0.00000  Uiso   1.00
O48    O     0.89053   0.43601   0.71539   0.00000  Uiso   1.00
O49    O     0.00000   0.54546   0.88202   0.00000  Uiso   1.00
O50    O     0.45454   0.00000   0.11798   0.00000  Uiso   1.00
O51    O     0.54546   0.00000   0.88202   0.00000  Uiso   1.00
O52    O     0.00000   0.54546   0.11798   0.00000  Uiso   1.00
Zn1    Zn    0.06497   0.50000   0.29947   0.00000  Uiso   1.00
Zn2    Zn    0.43503  -0.00000   0.20053   0.00000  Uiso   1.00
Zn3    Zn   -0.00000   0.43503   0.79947   0.00000  Uiso   1.00
Zn4    Zn    0.00000   0.56497   0.20053   0.00000  Uiso   1.00
Zn5    Zn    0.43503  -0.00000   0.79947   0.00000  Uiso   1.00
Zn6    Zn    0.56497   0.00000   0.20053   0.00000  Uiso   1.00
Zn7    Zn   -0.00000   0.56497   0.79947   0.00000  Uiso   1.00
Zn8    Zn   -0.00000   0.43503   0.20053   0.00000  Uiso   1.00
Zn9    Zn    0.93503   0.50000   0.70053   0.00000  Uiso   1.00
Zn10   Zn    0.50000   0.93503   0.29947   0.00000  Uiso   1.00
Zn11   Zn    0.50000   0.06497   0.70053   0.00000  Uiso   1.00
Zn12   Zn    0.93503   0.50000   0.29947   0.00000  Uiso   1.00
Zn13   Zn    0.06497   0.50000   0.70053   0.00000  Uiso   1.00
Zn14   Zn    0.50000   0.06497   0.29947   0.00000  Uiso   1.00
Zn15   Zn    0.50000   0.93503   0.70053   0.00000  Uiso   1.00
Zn16   Zn    0.56497   0.00000   0.79947   0.00000  Uiso   1.00
loop_
_geom_bond_atom_site_label_1
_geom_bond_atom_site_label_2
_geom_bond_distance
_geom_bond_site_symmetry_2
_ccdc_geom_bond_type
C1     C105    1.403   .     A
C1     C24     1.476   .     S
C1     C134    1.403   .     A
C2     C84     1.464   .     S
C2     C115    1.397   .     A
C2     C126    1.396   .     A
C3     C27     1.418   .     A
C3     C126    1.397   .     A
C3     N13     1.424   .     S
C4     C32     1.419   .     A
C4     C127    1.396   .     A
C4     N14     1.423   .     S
C5     C33     1.418   .     A
C5     C129    1.397   .     A
C5     N15     1.424   .     S
C6     C30     1.413   .     A
C6     C130    1.398   .     A
C6     N16     1.422   .     S
C7     N17     1.424   .     S
C7     C131    1.397   .     A
C7     C31     1.418   .     A
C8     C19     1.419   .     A
C8     C132    1.398   .     A
C8     N18     1.425   .     S
C9     C133    1.395   .     A
C9     N19     1.424   .     S
C9     C20     1.415   .     A
C10    N20     1.423   .     S
C10    C134    1.398   .     A
C10    C17     1.408   .     A
C11    C18     1.417   .     A
C11    C135    1.394   .     A
C11    N21     1.425   .     S
C12    C23     1.419   .     A
C12    C136    1.398   .     A
C12    N22     1.425   .     S
C13    C73     1.470   .     S
C13    C116    1.397   .     A
C13    C123    1.397   .     A
C14    C137    1.398   .     A
C14    C25     1.421   .     A
C14    N24     1.424   .     S
C15    N25     1.425   .     S
C15    C138    1.398   .     A
C15    C21     1.419   .     A
C16    C22     1.417   .     A
C16    C140    1.396   .     A
C16    N26     1.424   .     S
C17    C98     1.461   .     S
C17    C141    1.408   .     A
C18    C97     1.466   .     S
C18    C142    1.414   .     A
C19    C104    1.476   .     S
C19    C143    1.418   .     A
C20    C144    1.417   .     A
C20    C103    1.469   .     S
C21    C102    1.477   .     S
C21    C145    1.418   .     A
C22    C146    1.418   .     A
C22    C101    1.474   .     S
C23    C100    1.478   .     S
C23    C147    1.419   .     A
C24    C124    1.400   .     A
C24    C118    1.400   .     A
C25    C148    1.422   .     A
C25    C99     1.483   .     S
C26    C160    1.419   .     A
C26    C149    1.421   .     A
C26    C89     1.481   .     S
C27    C151    1.417   .     A
C27    C88     1.473   .     S
C28    C158    1.421   .     A
C28    C96     1.480   .     S
C28    C152    1.421   .     A
C29    C159    1.418   .     A
C29    C94     1.479   .     S
C29    C153    1.418   .     A
C30    C154    1.413   .     A
C30    C93     1.467   .     S
C31    C155    1.417   .     A
C31    C92     1.472   .     S
C32    C91     1.478   .     S
C32    C156    1.419   .     A
C33    C157    1.417   .     A
C33    C90     1.474   .     S
C34    H90     1.110   .     S
C34    N1      1.447   .     S
C34    H91     1.111   .     S
C34    H89     1.112   .     S
C35    C139    1.463   .     S
C35    C130    1.397   .     A
C35    C119    1.397   .     A
C36    N12     1.447   .     S
C36    H94     1.109   .     S
C36    H96     1.111   .     S
C36    H93     1.112   .     S
C37    H99     1.111   .     S
C37    N23     1.447   .     S
C37    H100    1.110   .     S
C37    H98     1.112   .     S
C38    H102    1.112   .     S
C38    N27     1.447   .     S
C38    H103    1.110   .     S
C38    H104    1.111   .     S
C39    H107    1.112   .     S
C39    N28     1.447   .     S
C39    H109    1.110   .     S
C39    H108    1.111   .     S
C40    H112    1.111   .     S
C40    N29     1.447   .     S
C40    H113    1.111   .     S
C40    H111    1.112   .     S
C41    H118    1.110   .     S
C41    H115    1.112   .     S
C41    N30     1.447   .     S
C41    H116    1.111   .     S
C42    H120    1.112   .     S
C42    H121    1.110   .     S
C42    N31     1.447   .     S
C42    H122    1.111   .     S
C43    N32     1.447   .     S
C43    H126    1.111   .     S
C43    H124    1.112   .     S
C43    H125    1.111   .     S
C44    N2      1.447   .     S
C44    H129    1.110   .     S
C44    H131    1.112   .     S
C44    H130    1.111   .     S
C45    H135    1.110   .     S
C45    H134    1.111   .     S
C45    H133    1.112   .     S
C45    N3      1.447   .     S
C46    C120    1.397   .     A
C46    C128    1.464   .     S
C46    C131    1.396   .     A
C47    N4      1.447   .     S
C47    H140    1.112   .     S
C47    H138    1.111   .     S
C47    H137    1.110   .     S
C48    N5      1.448   .     S
C48    H143    1.110   .     S
C48    H142    1.112   .     S
C48    H144    1.108   .     S
C49    H148    1.112   .     S
C49    N6      1.447   .     S
C49    H146    1.110   .     S
C49    H147    1.111   .     S
C50    N7      1.447   .     S
C50    H151    1.112   .     S
C50    H153    1.111   .     S
C50    H152    1.111   .     S
C51    N8      1.447   .     S
C51    H157    1.112   .     S
C51    H155    1.110   .     S
C51    H156    1.111   .     S
C52    H3      1.111   .     S
C52    N9      1.447   .     S
C52    H159    1.112   .     S
C52    H160    1.111   .     S
C53    H6      1.110   .     S
C53    H5      1.112   .     S
C53    H7      1.111   .     S
C53    N10     1.447   .     S
C54    H9      1.112   .     S
C54    N11     1.447   .     S
C54    H10     1.111   .     S
C54    H11     1.110   .     S
C55    N13     1.447   .     S
C55    H16     1.111   .     S
C55    H14     1.112   .     S
C55    H15     1.110   .     S
C56    H20     1.110   .     S
C56    H18     1.112   .     S
C56    N14     1.447   .     S
C56    H19     1.111   .     S
C57    C127    1.395   .     A
C57    C117    1.466   .     S
C57    C121    1.397   .     A
C58    H23     1.110   .     S
C58    N15     1.447   .     S
C58    H25     1.111   .     S
C58    H22     1.112   .     S
C59    H29     1.110   .     S
C59    H27     1.112   .     S
C59    N16     1.447   .     S
C59    H28     1.111   .     S
C60    H33     1.111   .     S
C60    H32     1.110   .     S
C60    N17     1.447   .     S
C60    H31     1.112   .     S
C61    H37     1.111   .     S
C61    H36     1.112   .     S
C61    N18     1.447   .     S
C61    H38     1.111   .     S
C62    H42     1.112   .     S
C62    N19     1.447   .     S
C62    H40     1.110   .     S
C62    H41     1.111   .     S
C63    H47     1.110   .     S
C63    H45     1.111   .     S
C63    N20     1.447   .     S
C63    H44     1.112   .     S
C64    H50     1.111   .     S
C64    H49     1.111   .     S
C64    N21     1.447   .     S
C64    H51     1.107   .     S
C65    H53     1.112   .     S
C65    N22     1.447   .     S
C65    H55     1.111   .     S
C65    H54     1.111   .     S
C66    H59     1.111   .     S
C66    H60     1.112   .     S
C66    H58     1.110   .     S
C66    N24     1.447   .     S
C67    H63     1.111   .     S
C67    N25     1.447   .     S
C67    H64     1.111   .     S
C67    H62     1.112   .     S
C68    C122    1.397   .     A
C68    C129    1.396   .     A
C68    C106    1.465   .     S
C69    H66     1.111   .     S
C69    N26     1.447   .     S
C69    H69     1.112   .     S
C69    H67     1.111   .     S
C70    C87     1.418   .     S
C70    C71     1.196   .     T
C71    C86     1.418   .     S
C72    C85     1.419   1_565 S
C72    C74     1.196   1_565 S
C73    C135    1.399   .     A
C73    C107    1.398   .     A
C74    C83     1.419   .     S
C74    C72     1.196   1_545 S
C75    C82     1.418   .     S
C75    C76     1.196   1_556 S
C76    C75     1.196   1_554 S
C76    C81     1.418   .     S
C77    C80     1.419   .     S
C77    C78     1.196   1_556 S
C78    C79     1.419   .     S
C78    C77     1.196   1_554 S
C79    O45     1.277   .     A
C79    O52     1.278   .     A
C80    O49     1.278   .     A
C80    O2      1.278   .     A
C81    O3      1.277   .     S
C81    O50     1.277   .     S
C82    O4      1.277   .     S
C82    O51     1.277   .     S
C83    O9      1.278   .     A
C83    O5      1.278   1_545 S
C84    C132    1.396   .     A
C84    C108    1.395   .     A
C85    C72     1.419   1_545 S
C85    O10     1.278   1_545 A
C85    O6      1.278   .     S
C86    O11     1.277   .     A
C86    O7      1.277   1_455 S
C87    O8      1.277   .     A
C87    O13     1.277   1_455 S
C88    O47     1.277   .     A
C88    O14     1.278   .     A
C89    O48     1.279   .     A
C89    O15     1.281   .     A
C90    O16     1.278   .     A
C90    O44     1.277   .     A
C91    O46     1.277   .     A
C91    O17     1.280   .     A
C92    O18     1.278   .     A
C92    O42     1.277   .     A
C93    O19     1.279   .     A
C93    O43     1.273   .     A
C94    O40     1.279   .     A
C94    O20     1.279   .     A
C95    C109    1.397   .     A
C95    C133    1.398   .     A
C95    C150    1.465   .     S
C96    O41     1.279   .     A
C96    O21     1.280   .     A
C97    O22     1.274   .     A
C97    O38     1.277   .     A
C98    O24     1.274   .     A
C98    O39     1.274   .     A
C99    O36     1.281   .     A
C99    O25     1.280   .     A
C100   O37     1.281   .     A
C100   O26     1.278   .     A
C101   O33     1.278   .     A
C101   O27     1.277   .     A
C102   O28     1.277   .     A
C102   O35     1.280   .     A
C103   O31     1.277   .     A
C103   O29     1.275   .     A
C104   O30     1.277   .     A
C104   O32     1.280   .     A
C105   H1      1.083   .     S
C105   C141    1.398   .     A
C106   C138    1.397   .     A
C106   C110    1.395   .     A
C107   H73     1.083   .     S
C107   C142    1.393   .     A
C108   C143    1.395   .     A
C108   H84     1.084   .     S
C109   C144    1.396   .     A
C109   H95     1.084   .     S
C110   C145    1.396   .     A
C110   H106    1.084   .     S
C111   H117    1.084   .     S
C111   C146    1.397   .     A
C111   C117    1.396   .     A
C112   C147    1.396   .     A
C112   C128    1.395   .     A
C112   H128    1.084   .     S
C113   C148    1.398   .     A
C113   C139    1.394   .     A
C113   H139    1.084   .     S
C114   C150    1.396   .     A
C114   H150    1.084   .     S
C114   C149    1.398   .     A
C115   C151    1.396   .     A
C115   H2      1.084   .     S
C116   H13     1.083   .     S
C116   C152    1.394   .     A
C117   C140    1.397   .     A
C118   C153    1.398   .     A
C118   H24     1.083   .     S
C119   H35     1.084   .     S
C119   C154    1.398   .     A
C120   C155    1.396   .     A
C120   H46     1.084   .     S
C121   C156    1.398   .     A
C121   H57     1.084   .     S
C122   C157    1.397   .     A
C122   H68     1.084   .     S
C123   H70     1.083   .     S
C123   C158    1.394   .     A
C124   H71     1.083   .     S
C124   C159    1.398   .     A
C125   H72     1.084   .     S
C125   C160    1.394   .     A
C125   C150    1.394   .     A
C126   H74     1.084   .     S
C127   H75     1.084   .     S
C128   C136    1.396   .     A
C129   H76     1.084   .     S
C130   H77     1.084   .     S
C131   H78     1.084   .     S
C132   H79     1.084   .     S
C133   H80     1.084   .     S
C134   H81     1.083   .     S
C135   H82     1.083   .     S
C136   H83     1.084   .     S
C137   H85     1.084   .     S
C137   C139    1.395   .     A
C138   H86     1.084   .     S
C140   H87     1.084   .     S
C141   N1      1.423   .     S
C142   N12     1.422   .     S
C143   N23     1.423   .     S
C144   N27     1.425   .     S
C145   N28     1.423   .     S
C146   N29     1.424   .     S
C147   N30     1.423   .     S
C148   N31     1.424   .     S
C149   N32     1.424   .     S
C151   N2      1.424   .     S
C152   N3      1.424   .     S
C153   N4      1.424   .     S
C154   N5      1.423   .     S
C155   N6      1.424   .     S
C156   N7      1.425   .     S
C157   N8      1.424   .     S
C158   N9      1.424   .     S
C159   N10     1.424   .     S
C160   N11     1.421   .     S
H4     N10     1.032   .     S
H8     N11     1.031   .     S
H12    N13     1.032   .     S
H17    N14     1.032   .     S
H21    N15     1.032   .     S
H26    N16     1.032   .     S
H30    N17     1.032   .     S
H34    N18     1.032   .     S
H39    N19     1.032   .     S
H43    N20     1.032   .     S
H48    N21     1.030   .     S
H52    N22     1.032   .     S
H56    N24     1.032   .     S
H61    N25     1.032   .     S
H65    N26     1.032   .     S
H88    N1      1.032   .     S
H92    N12     1.031   .     S
H97    N23     1.032   .     S
H101   N27     1.032   .     S
H105   N28     1.032   .     S
H110   N29     1.032   .     S
H114   N30     1.032   .     S
H119   N31     1.032   .     S
H123   N32     1.032   .     S
H127   N2      1.032   .     S
H132   N3      1.032   .     S
H136   N4      1.032   .     S
H141   N5      1.032   .     S
H145   N6      1.032   .     S
H149   N7      1.032   .     S
H154   N8      1.032   .     S
H158   N9      1.032   .     S
O1     Zn4     1.939   .     S
O1     Zn1     1.939   .     S
O1     Zn8     1.940   .     S
O1     Zn12    1.939   1_455 S
O2     Zn3     1.910   .     S
O3     Zn6     1.909   .     S
O4     Zn5     1.909   .     S
O5     Zn15    1.909   .     S
O5     C83     1.278   1_565 S
O6     Zn14    1.909   .     S
O7     Zn9     1.909   .     S
O7     C86     1.277   1_655 S
O8     Zn1     1.909   .     S
O9     Zn11    1.910   .     S
O10    Zn10    1.910   .     S
O10    C85     1.278   1_565 A
O11    Zn13    1.909   .     S
O12    Zn13    1.939   .     S
O12    Zn3     1.939   .     S
O12    Zn7     1.940   .     S
O12    Zn9     1.939   1_455 S
O13    Zn12    1.909   .     S
O13    C87     1.277   1_655 S
O14    Zn4     1.938   .     S
O15    Zn3     1.938   1_655 S
O16    Zn6     1.939   1_565 S
O17    Zn5     1.939   .     S
O18    Zn8     1.938   1_655 S
O19    Zn7     1.938   .     S
O20    Zn2     1.940   .     S
O21    Zn16    1.940   1_565 S
O22    Zn7     1.939   1_655 S
O23    Zn6     1.939   .     S
O23    Zn2     1.939   .     S
O23    Zn10    1.939   1_545 S
O23    Zn14    1.940   .     S
O24    Zn8     1.939   .     S
O25    Zn5     1.938   1_565 S
O26    Zn6     1.938   .     S
O27    Zn3     1.939   .     S
O28    Zn4     1.939   1_655 S
O29    Zn16    1.938   .     S
O30    Zn2     1.938   1_565 S
O31    Zn11    1.938   .     S
O32    Zn10    1.938   .     S
O33    Zn13    1.939   .     S
O34    Zn11    1.939   .     S
O34    Zn5     1.939   .     S
O34    Zn15    1.940   1_545 S
O34    Zn16    1.939   .     S
O35    Zn12    1.939   .     S
O36    Zn15    1.938   .     S
O37    Zn14    1.938   .     S
O38    Zn9     1.940   .     S
O39    Zn1     1.940   .     S
O40    Zn14    1.939   .     S
O41    Zn15    1.939   .     S
O42    Zn12    1.938   .     S
O43    Zn13    1.938   .     S
O44    Zn10    1.939   .     S
O45    Zn8     1.909   .     S
O46    Zn11    1.939   .     S
O47    Zn1     1.938   .     S
O48    Zn9     1.938   .     S
O49    Zn7     1.909   .     S
O50    Zn2     1.909   .     S
O51    Zn16    1.909   .     S
O52    Zn4     1.910   .     S
Zn2    O30     1.938   1_545 S
Zn3    O15     1.938   1_455 S
Zn4    O28     1.939   1_455 S
Zn5    O25     1.938   1_545 S
Zn6    O16     1.939   1_545 S
Zn7    O22     1.939   1_455 S
Zn8    O18     1.938   1_455 S
Zn9    O12     1.939   1_655 S
Zn10   O23     1.939   1_565 S
Zn12   O1      1.939   1_655 S
Zn15   O34     1.940   1_565 S
Zn16   O21     1.940   1_545 S
