data_str_m3_o1_o5_pcu_sym.101
_audit_creation_date              2020-01-03
_audit_creation_method            'Materials Studio'
_symmetry_space_group_name_H-M    'P1'
_symmetry_Int_Tables_number       1
_symmetry_cell_setting            triclinic
loop_
_symmetry_equiv_pos_as_xyz
  x,y,z
_cell_length_a                    31.9103
_cell_length_b                    30.1947
_cell_length_c                    26.6301
_cell_angle_alpha                 90.8884
_cell_angle_beta                  95.4318
_cell_angle_gamma                 90.0211
loop_
_atom_site_label
_atom_site_type_symbol
_atom_site_fract_x
_atom_site_fract_y
_atom_site_fract_z
_atom_site_U_iso_or_equiv
_atom_site_adp_type
_atom_site_occupancy
C1     C     0.08692   0.16635   0.17113   0.00000  Uiso   1.00
C2     C     0.24574   0.16687   0.16003   0.00000  Uiso   1.00
C3     C     0.16659   0.16646   0.07312   0.00000  Uiso   1.00
C4     C     0.16707   0.16688   0.26025   0.00000  Uiso   1.00
C5     C     0.16697   0.16645   0.02190   0.00000  Uiso   1.00
C6     C     0.16707   0.16701   0.31151   0.00000  Uiso   1.00
C7     C     0.01932   0.12488   0.16388   0.00000  Uiso   1.00
C8     C     0.31243   0.20767   0.15919   0.00000  Uiso   1.00
C9     C     0.31060   0.12754   0.14490   0.00000  Uiso   1.00
C10    C     0.02033   0.20506   0.18041   0.00000  Uiso   1.00
C11    C     0.28962   0.16793   0.14986   0.00000  Uiso   1.00
C12    C     0.04189   0.16485   0.17581   0.00000  Uiso   1.00
C13    C     0.19305   0.02450   0.20183   0.00000  Uiso   1.00
C14    C     0.13857   0.30954   0.13427   0.00000  Uiso   1.00
C15    C     0.14171   0.02358   0.13098   0.00000  Uiso   1.00
C16    C     0.19246   0.30972   0.20204   0.00000  Uiso   1.00
N17    N     0.16667   0.28573   0.16667   0.00000  Uiso   1.00
N18    N     0.16667   0.04760   0.16667   0.00000  Uiso   1.00
O19    O     0.10559   0.20487   0.16666   0.00000  Uiso   1.00
O20    O     0.22774   0.12846   0.16667   0.00000  Uiso   1.00
O21    O     0.22774   0.20487   0.16667   0.00000  Uiso   1.00
O22    O     0.10559   0.12846   0.16666   0.00000  Uiso   1.00
O23    O     0.16667   0.20488   0.09511   0.00000  Uiso   1.00
O24    O     0.16666   0.12845   0.23822   0.00000  Uiso   1.00
O25    O     0.16666   0.20488   0.23822   0.00000  Uiso   1.00
O26    O     0.16667   0.12845   0.09511   0.00000  Uiso   1.00
Zn27   Zn    0.16667   0.21771   0.16667   0.00000  Uiso   1.00
Zn28   Zn    0.16667   0.11563   0.16667   0.00000  Uiso   1.00
C29    C     0.03758   0.07958   0.17662   0.00000  Uiso   1.00
H30    H     0.06072   0.08136   0.21048   0.00000  Uiso   1.00
H31    H     0.01297   0.05625   0.18663   0.00000  Uiso   1.00
H32    H     0.05206   0.06537   0.14397   0.00000  Uiso   1.00
C33    C     0.29503   0.25250   0.14315   0.00000  Uiso   1.00
H34    H     0.26710   0.24953   0.11518   0.00000  Uiso   1.00
H35    H     0.28729   0.27222   0.17636   0.00000  Uiso   1.00
H36    H     0.31887   0.27087   0.12381   0.00000  Uiso   1.00
C37    C     0.28921   0.08846   0.11655   0.00000  Uiso   1.00
H38    H     0.27822   0.06414   0.14314   0.00000  Uiso   1.00
H39    H     0.26195   0.09940   0.09067   0.00000  Uiso   1.00
H40    H     0.31134   0.07188   0.09255   0.00000  Uiso   1.00
C41    C     0.03773   0.24265   0.21461   0.00000  Uiso   1.00
H42    H     0.06910   0.23514   0.23407   0.00000  Uiso   1.00
H43    H     0.03911   0.27411   0.19404   0.00000  Uiso   1.00
H44    H     0.01625   0.24807   0.24458   0.00000  Uiso   1.00
C45    C     0.22022   0.05127   0.24248   0.00000  Uiso   1.00
C46    C     0.26752   0.04059   0.25336   0.00000  Uiso   1.00
C47    C     0.29346   0.08140   0.27171   0.00000  Uiso   1.00
H48    H     0.29179   0.10712   0.24236   0.00000  Uiso   1.00
H49    H     0.28156   0.09553   0.30642   0.00000  Uiso   1.00
H50    H     0.32694   0.07186   0.28052   0.00000  Uiso   1.00
H51    H     0.27202   0.01712   0.28501   0.00000  Uiso   1.00
H52    H     0.28032   0.02642   0.21929   0.00000  Uiso   1.00
H53    H     0.22040   0.08487   0.23055   0.00000  Uiso   1.00
H54    H     0.20502   0.05286   0.27807   0.00000  Uiso   1.00
C55    C     0.09766   0.28844   0.11116   0.00000  Uiso   1.00
C56    C     0.09969   0.26334   0.06085   0.00000  Uiso   1.00
C57    C     0.06350   0.27564   0.02207   0.00000  Uiso   1.00
H58    H     0.03278   0.26816   0.03657   0.00000  Uiso   1.00
H59    H     0.06476   0.31124   0.01304   0.00000  Uiso   1.00
H60    H     0.06605   0.25592   0.32044   0.00000  Uiso   1.00
H61    H     0.13004   0.26923   0.04488   0.00000  Uiso   1.00
H62    H     0.09637   0.22737   0.06733   0.00000  Uiso   1.00
H63    H     0.08483   0.26799   0.13856   0.00000  Uiso   1.00
H64    H     0.07111   0.31193   0.10907   0.00000  Uiso   1.00
C65    C     0.11813   0.04730   0.08657   0.00000  Uiso   1.00
C66    C     0.14104   0.04305   0.03855   0.00000  Uiso   1.00
C67    C     0.11544   0.06399   0.32690   0.00000  Uiso   1.00
H68    H     0.08522   0.04617   0.31785   0.00000  Uiso   1.00
H69    H     0.10834   0.09912   0.00195   0.00000  Uiso   1.00
H70    H     0.13330   0.06222   0.29320   0.00000  Uiso   1.00
H71    H     0.17255   0.05890   0.04433   0.00000  Uiso   1.00
H72    H     0.14594   0.00767   0.02944   0.00000  Uiso   1.00
H73    H     0.08556   0.03594   0.07726   0.00000  Uiso   1.00
H74    H     0.11244   0.08193   0.09596   0.00000  Uiso   1.00
C75    C     0.21902   0.28466   0.24261   0.00000  Uiso   1.00
C76    C     0.20219   0.28748   0.29490   0.00000  Uiso   1.00
C77    C     0.23085   0.26289   0.00095   0.00000  Uiso   1.00
H78    H     0.23531   0.22801   0.32219   0.00000  Uiso   1.00
H79    H     0.26210   0.27938   0.00674   0.00000  Uiso   1.00
H80    H     0.21653   0.26317   0.03737   0.00000  Uiso   1.00
H81    H     0.20000   0.32195   0.30832   0.00000  Uiso   1.00
H82    H     0.16996   0.27331   0.29297   0.00000  Uiso   1.00
H83    H     0.22127   0.25005   0.23261   0.00000  Uiso   1.00
H84    H     0.25239   0.29342   0.24379   0.00000  Uiso   1.00
C85    C     0.42025   0.16635   0.17113   0.00000  Uiso   1.00
C86    C     0.57908   0.16687   0.16003   0.00000  Uiso   1.00
C87    C     0.49993   0.16646   0.07312   0.00000  Uiso   1.00
C88    C     0.50040   0.16688   0.26025   0.00000  Uiso   1.00
C89    C     0.50030   0.16645   0.02190   0.00000  Uiso   1.00
C90    C     0.50041   0.16701   0.31151   0.00000  Uiso   1.00
C91    C     0.35265   0.12488   0.16388   0.00000  Uiso   1.00
C92    C     0.64576   0.20767   0.15919   0.00000  Uiso   1.00
C93    C     0.64393   0.12754   0.14490   0.00000  Uiso   1.00
C94    C     0.35366   0.20506   0.18041   0.00000  Uiso   1.00
C95    C     0.62295   0.16793   0.14986   0.00000  Uiso   1.00
C96    C     0.37523   0.16485   0.17581   0.00000  Uiso   1.00
C97    C     0.52639   0.02450   0.20183   0.00000  Uiso   1.00
C98    C     0.47191   0.30954   0.13427   0.00000  Uiso   1.00
C99    C     0.47505   0.02358   0.13098   0.00000  Uiso   1.00
C100   C     0.52579   0.30972   0.20204   0.00000  Uiso   1.00
N101   N     0.50000   0.28573   0.16667   0.00000  Uiso   1.00
N102   N     0.50000   0.04760   0.16667   0.00000  Uiso   1.00
O103   O     0.43892   0.20487   0.16666   0.00000  Uiso   1.00
O104   O     0.56108   0.12846   0.16667   0.00000  Uiso   1.00
O105   O     0.56108   0.20487   0.16667   0.00000  Uiso   1.00
O106   O     0.43892   0.12846   0.16666   0.00000  Uiso   1.00
O107   O     0.50000   0.20488   0.09511   0.00000  Uiso   1.00
O108   O     0.50000   0.12845   0.23822   0.00000  Uiso   1.00
O109   O     0.50000   0.20488   0.23822   0.00000  Uiso   1.00
O110   O     0.50000   0.12845   0.09511   0.00000  Uiso   1.00
Zn111  Zn    0.50000   0.21771   0.16667   0.00000  Uiso   1.00
Zn112  Zn    0.50000   0.11563   0.16667   0.00000  Uiso   1.00
C113   C     0.37091   0.07958   0.17662   0.00000  Uiso   1.00
H114   H     0.39405   0.08136   0.21048   0.00000  Uiso   1.00
H115   H     0.34630   0.05625   0.18663   0.00000  Uiso   1.00
H116   H     0.38539   0.06537   0.14397   0.00000  Uiso   1.00
C117   C     0.62837   0.25250   0.14315   0.00000  Uiso   1.00
H118   H     0.60043   0.24953   0.11518   0.00000  Uiso   1.00
H119   H     0.62063   0.27222   0.17636   0.00000  Uiso   1.00
H120   H     0.65220   0.27087   0.12381   0.00000  Uiso   1.00
C121   C     0.62254   0.08846   0.11655   0.00000  Uiso   1.00
H122   H     0.61155   0.06414   0.14314   0.00000  Uiso   1.00
H123   H     0.59528   0.09940   0.09067   0.00000  Uiso   1.00
H124   H     0.64468   0.07188   0.09255   0.00000  Uiso   1.00
C125   C     0.37106   0.24265   0.21461   0.00000  Uiso   1.00
H126   H     0.40244   0.23514   0.23407   0.00000  Uiso   1.00
H127   H     0.37245   0.27411   0.19404   0.00000  Uiso   1.00
H128   H     0.34958   0.24807   0.24458   0.00000  Uiso   1.00
C129   C     0.55356   0.05127   0.24248   0.00000  Uiso   1.00
C130   C     0.60085   0.04059   0.25336   0.00000  Uiso   1.00
C131   C     0.62680   0.08140   0.27171   0.00000  Uiso   1.00
H132   H     0.62512   0.10712   0.24236   0.00000  Uiso   1.00
H133   H     0.61489   0.09553   0.30642   0.00000  Uiso   1.00
H134   H     0.66027   0.07186   0.28052   0.00000  Uiso   1.00
H135   H     0.60535   0.01712   0.28501   0.00000  Uiso   1.00
H136   H     0.61365   0.02642   0.21929   0.00000  Uiso   1.00
H137   H     0.55373   0.08487   0.23055   0.00000  Uiso   1.00
H138   H     0.53835   0.05286   0.27807   0.00000  Uiso   1.00
C139   C     0.43099   0.28844   0.11116   0.00000  Uiso   1.00
C140   C     0.43302   0.26334   0.06085   0.00000  Uiso   1.00
C141   C     0.39683   0.27564   0.02207   0.00000  Uiso   1.00
H142   H     0.36612   0.26816   0.03657   0.00000  Uiso   1.00
H143   H     0.39810   0.31124   0.01304   0.00000  Uiso   1.00
H144   H     0.39938   0.25592   0.32044   0.00000  Uiso   1.00
H145   H     0.46338   0.26923   0.04488   0.00000  Uiso   1.00
H146   H     0.42970   0.22737   0.06733   0.00000  Uiso   1.00
H147   H     0.41816   0.26799   0.13856   0.00000  Uiso   1.00
H148   H     0.40444   0.31193   0.10907   0.00000  Uiso   1.00
C149   C     0.45146   0.04730   0.08657   0.00000  Uiso   1.00
C150   C     0.47437   0.04305   0.03855   0.00000  Uiso   1.00
C151   C     0.44878   0.06399   0.32690   0.00000  Uiso   1.00
H152   H     0.41855   0.04617   0.31785   0.00000  Uiso   1.00
H153   H     0.44167   0.09912   0.00195   0.00000  Uiso   1.00
H154   H     0.46663   0.06222   0.29320   0.00000  Uiso   1.00
H155   H     0.50588   0.05890   0.04433   0.00000  Uiso   1.00
H156   H     0.47927   0.00767   0.02944   0.00000  Uiso   1.00
H157   H     0.41890   0.03594   0.07726   0.00000  Uiso   1.00
H158   H     0.44577   0.08193   0.09596   0.00000  Uiso   1.00
C159   C     0.55236   0.28466   0.24261   0.00000  Uiso   1.00
C160   C     0.53552   0.28748   0.29490   0.00000  Uiso   1.00
C161   C     0.56419   0.26289   0.00095   0.00000  Uiso   1.00
H162   H     0.56865   0.22801   0.32219   0.00000  Uiso   1.00
H163   H     0.59543   0.27938   0.00674   0.00000  Uiso   1.00
H164   H     0.54986   0.26317   0.03737   0.00000  Uiso   1.00
H165   H     0.53334   0.32195   0.30832   0.00000  Uiso   1.00
H166   H     0.50329   0.27331   0.29297   0.00000  Uiso   1.00
H167   H     0.55460   0.25005   0.23261   0.00000  Uiso   1.00
H168   H     0.58572   0.29342   0.24379   0.00000  Uiso   1.00
C169   C     0.75358   0.16635   0.17113   0.00000  Uiso   1.00
C170   C     0.91241   0.16687   0.16003   0.00000  Uiso   1.00
C171   C     0.83326   0.16646   0.07312   0.00000  Uiso   1.00
C172   C     0.83373   0.16688   0.26025   0.00000  Uiso   1.00
C173   C     0.83364   0.16645   0.02190   0.00000  Uiso   1.00
C174   C     0.83374   0.16701   0.31151   0.00000  Uiso   1.00
C175   C     0.68598   0.12488   0.16388   0.00000  Uiso   1.00
C176   C     0.97909   0.20767   0.15919   0.00000  Uiso   1.00
C177   C     0.97726   0.12754   0.14490   0.00000  Uiso   1.00
C178   C     0.68699   0.20506   0.18041   0.00000  Uiso   1.00
C179   C     0.95628   0.16793   0.14986   0.00000  Uiso   1.00
C180   C     0.70856   0.16485   0.17581   0.00000  Uiso   1.00
C181   C     0.85972   0.02450   0.20183   0.00000  Uiso   1.00
C182   C     0.80524   0.30954   0.13427   0.00000  Uiso   1.00
C183   C     0.80838   0.02358   0.13098   0.00000  Uiso   1.00
C184   C     0.85913   0.30972   0.20204   0.00000  Uiso   1.00
N185   N     0.83333   0.28573   0.16667   0.00000  Uiso   1.00
N186   N     0.83333   0.04760   0.16667   0.00000  Uiso   1.00
O187   O     0.77226   0.20487   0.16666   0.00000  Uiso   1.00
O188   O     0.89441   0.12846   0.16667   0.00000  Uiso   1.00
O189   O     0.89441   0.20487   0.16667   0.00000  Uiso   1.00
O190   O     0.77226   0.12846   0.16666   0.00000  Uiso   1.00
O191   O     0.83334   0.20488   0.09511   0.00000  Uiso   1.00
O192   O     0.83333   0.12845   0.23822   0.00000  Uiso   1.00
O193   O     0.83333   0.20488   0.23822   0.00000  Uiso   1.00
O194   O     0.83334   0.12845   0.09511   0.00000  Uiso   1.00
Zn195  Zn    0.83333   0.21771   0.16667   0.00000  Uiso   1.00
Zn196  Zn    0.83333   0.11563   0.16667   0.00000  Uiso   1.00
C197   C     0.70425   0.07958   0.17662   0.00000  Uiso   1.00
H198   H     0.72739   0.08136   0.21048   0.00000  Uiso   1.00
H199   H     0.67963   0.05625   0.18663   0.00000  Uiso   1.00
H200   H     0.71873   0.06537   0.14397   0.00000  Uiso   1.00
C201   C     0.96170   0.25250   0.14315   0.00000  Uiso   1.00
H202   H     0.93376   0.24953   0.11518   0.00000  Uiso   1.00
H203   H     0.95396   0.27222   0.17636   0.00000  Uiso   1.00
H204   H     0.98553   0.27087   0.12381   0.00000  Uiso   1.00
C205   C     0.95587   0.08846   0.11655   0.00000  Uiso   1.00
H206   H     0.94489   0.06414   0.14314   0.00000  Uiso   1.00
H207   H     0.92861   0.09940   0.09067   0.00000  Uiso   1.00
H208   H     0.97801   0.07188   0.09255   0.00000  Uiso   1.00
C209   C     0.70440   0.24265   0.21461   0.00000  Uiso   1.00
H210   H     0.73577   0.23514   0.23407   0.00000  Uiso   1.00
H211   H     0.70578   0.27411   0.19404   0.00000  Uiso   1.00
H212   H     0.68292   0.24807   0.24458   0.00000  Uiso   1.00
C213   C     0.88689   0.05127   0.24248   0.00000  Uiso   1.00
C214   C     0.93419   0.04059   0.25336   0.00000  Uiso   1.00
C215   C     0.96013   0.08140   0.27171   0.00000  Uiso   1.00
H216   H     0.95845   0.10712   0.24236   0.00000  Uiso   1.00
H217   H     0.94822   0.09553   0.30642   0.00000  Uiso   1.00
H218   H     0.99361   0.07186   0.28052   0.00000  Uiso   1.00
H219   H     0.93868   0.01712   0.28501   0.00000  Uiso   1.00
H220   H     0.94698   0.02642   0.21929   0.00000  Uiso   1.00
H221   H     0.88706   0.08487   0.23055   0.00000  Uiso   1.00
H222   H     0.87169   0.05286   0.27807   0.00000  Uiso   1.00
C223   C     0.76432   0.28844   0.11116   0.00000  Uiso   1.00
C224   C     0.76635   0.26334   0.06085   0.00000  Uiso   1.00
C225   C     0.73017   0.27564   0.02207   0.00000  Uiso   1.00
H226   H     0.69945   0.26816   0.03657   0.00000  Uiso   1.00
H227   H     0.73143   0.31124   0.01304   0.00000  Uiso   1.00
H228   H     0.73271   0.25592   0.32044   0.00000  Uiso   1.00
H229   H     0.79671   0.26923   0.04488   0.00000  Uiso   1.00
H230   H     0.76303   0.22737   0.06733   0.00000  Uiso   1.00
H231   H     0.75149   0.26799   0.13856   0.00000  Uiso   1.00
H232   H     0.73777   0.31193   0.10907   0.00000  Uiso   1.00
C233   C     0.78480   0.04730   0.08657   0.00000  Uiso   1.00
C234   C     0.80770   0.04305   0.03855   0.00000  Uiso   1.00
C235   C     0.78211   0.06399   0.32690   0.00000  Uiso   1.00
H236   H     0.75188   0.04617   0.31785   0.00000  Uiso   1.00
H237   H     0.77501   0.09912   0.00195   0.00000  Uiso   1.00
H238   H     0.79997   0.06222   0.29320   0.00000  Uiso   1.00
H239   H     0.83922   0.05890   0.04433   0.00000  Uiso   1.00
H240   H     0.81260   0.00767   0.02944   0.00000  Uiso   1.00
H241   H     0.75223   0.03594   0.07726   0.00000  Uiso   1.00
H242   H     0.77910   0.08193   0.09596   0.00000  Uiso   1.00
C243   C     0.88569   0.28466   0.24261   0.00000  Uiso   1.00
C244   C     0.86886   0.28748   0.29490   0.00000  Uiso   1.00
C245   C     0.89752   0.26289   0.00095   0.00000  Uiso   1.00
H246   H     0.90198   0.22801   0.32219   0.00000  Uiso   1.00
H247   H     0.92877   0.27938   0.00674   0.00000  Uiso   1.00
H248   H     0.88320   0.26317   0.03737   0.00000  Uiso   1.00
H249   H     0.86667   0.32195   0.30832   0.00000  Uiso   1.00
H250   H     0.83662   0.27331   0.29297   0.00000  Uiso   1.00
H251   H     0.88793   0.25005   0.23261   0.00000  Uiso   1.00
H252   H     0.91906   0.29342   0.24379   0.00000  Uiso   1.00
C253   C     0.08692   0.49968   0.17113   0.00000  Uiso   1.00
C254   C     0.24574   0.50021   0.16003   0.00000  Uiso   1.00
C255   C     0.16659   0.49980   0.07312   0.00000  Uiso   1.00
C256   C     0.16707   0.50022   0.26025   0.00000  Uiso   1.00
C257   C     0.16697   0.49978   0.02190   0.00000  Uiso   1.00
C258   C     0.16707   0.50034   0.31151   0.00000  Uiso   1.00
C259   C     0.01932   0.45821   0.16388   0.00000  Uiso   1.00
C260   C     0.31243   0.54101   0.15919   0.00000  Uiso   1.00
C261   C     0.31060   0.46087   0.14490   0.00000  Uiso   1.00
C262   C     0.02033   0.53840   0.18041   0.00000  Uiso   1.00
C263   C     0.28962   0.50126   0.14986   0.00000  Uiso   1.00
C264   C     0.04189   0.49819   0.17581   0.00000  Uiso   1.00
C265   C     0.19305   0.35784   0.20183   0.00000  Uiso   1.00
C266   C     0.13857   0.64288   0.13427   0.00000  Uiso   1.00
C267   C     0.14171   0.35691   0.13098   0.00000  Uiso   1.00
C268   C     0.19246   0.64305   0.20204   0.00000  Uiso   1.00
N269   N     0.16667   0.61907   0.16667   0.00000  Uiso   1.00
N270   N     0.16667   0.38093   0.16667   0.00000  Uiso   1.00
O271   O     0.10559   0.53821   0.16666   0.00000  Uiso   1.00
O272   O     0.22774   0.46179   0.16667   0.00000  Uiso   1.00
O273   O     0.22774   0.53821   0.16667   0.00000  Uiso   1.00
O274   O     0.10559   0.46179   0.16666   0.00000  Uiso   1.00
O275   O     0.16667   0.53821   0.09511   0.00000  Uiso   1.00
O276   O     0.16666   0.46179   0.23822   0.00000  Uiso   1.00
O277   O     0.16666   0.53821   0.23822   0.00000  Uiso   1.00
O278   O     0.16667   0.46179   0.09511   0.00000  Uiso   1.00
Zn279  Zn    0.16667   0.55104   0.16667   0.00000  Uiso   1.00
Zn280  Zn    0.16667   0.44896   0.16667   0.00000  Uiso   1.00
C281   C     0.03758   0.41291   0.17662   0.00000  Uiso   1.00
H282   H     0.06072   0.41469   0.21048   0.00000  Uiso   1.00
H283   H     0.01297   0.38958   0.18663   0.00000  Uiso   1.00
H284   H     0.05206   0.39871   0.14397   0.00000  Uiso   1.00
C285   C     0.29503   0.58583   0.14315   0.00000  Uiso   1.00
H286   H     0.26710   0.58286   0.11518   0.00000  Uiso   1.00
H287   H     0.28729   0.60555   0.17636   0.00000  Uiso   1.00
H288   H     0.31887   0.60421   0.12381   0.00000  Uiso   1.00
C289   C     0.28921   0.42179   0.11655   0.00000  Uiso   1.00
H290   H     0.27822   0.39747   0.14314   0.00000  Uiso   1.00
H291   H     0.26195   0.43274   0.09067   0.00000  Uiso   1.00
H292   H     0.31134   0.40521   0.09255   0.00000  Uiso   1.00
C293   C     0.03773   0.57598   0.21461   0.00000  Uiso   1.00
H294   H     0.06910   0.56847   0.23407   0.00000  Uiso   1.00
H295   H     0.03911   0.60744   0.19404   0.00000  Uiso   1.00
H296   H     0.01625   0.58141   0.24458   0.00000  Uiso   1.00
C297   C     0.22022   0.38461   0.24248   0.00000  Uiso   1.00
C298   C     0.26752   0.37393   0.25336   0.00000  Uiso   1.00
C299   C     0.29346   0.41473   0.27171   0.00000  Uiso   1.00
H300   H     0.29179   0.44045   0.24236   0.00000  Uiso   1.00
H301   H     0.28156   0.42886   0.30642   0.00000  Uiso   1.00
H302   H     0.32694   0.40519   0.28052   0.00000  Uiso   1.00
H303   H     0.27202   0.35045   0.28501   0.00000  Uiso   1.00
H304   H     0.28032   0.35975   0.21929   0.00000  Uiso   1.00
H305   H     0.22040   0.41820   0.23055   0.00000  Uiso   1.00
H306   H     0.20502   0.38619   0.27807   0.00000  Uiso   1.00
C307   C     0.09766   0.62177   0.11116   0.00000  Uiso   1.00
C308   C     0.09969   0.59667   0.06085   0.00000  Uiso   1.00
C309   C     0.06350   0.60897   0.02207   0.00000  Uiso   1.00
H310   H     0.03278   0.60149   0.03657   0.00000  Uiso   1.00
H311   H     0.06476   0.64457   0.01304   0.00000  Uiso   1.00
H312   H     0.06605   0.58926   0.32044   0.00000  Uiso   1.00
H313   H     0.13004   0.60256   0.04488   0.00000  Uiso   1.00
H314   H     0.09637   0.56071   0.06733   0.00000  Uiso   1.00
H315   H     0.08483   0.60132   0.13856   0.00000  Uiso   1.00
H316   H     0.07111   0.64526   0.10907   0.00000  Uiso   1.00
C317   C     0.11813   0.38064   0.08657   0.00000  Uiso   1.00
C318   C     0.14104   0.37639   0.03855   0.00000  Uiso   1.00
C319   C     0.11544   0.39732   0.32690   0.00000  Uiso   1.00
H320   H     0.08522   0.37950   0.31785   0.00000  Uiso   1.00
H321   H     0.10834   0.43246   0.00195   0.00000  Uiso   1.00
H322   H     0.13330   0.39556   0.29320   0.00000  Uiso   1.00
H323   H     0.17255   0.39224   0.04433   0.00000  Uiso   1.00
H324   H     0.14594   0.34100   0.02944   0.00000  Uiso   1.00
H325   H     0.08556   0.36928   0.07726   0.00000  Uiso   1.00
H326   H     0.11244   0.41527   0.09596   0.00000  Uiso   1.00
C327   C     0.21902   0.61800   0.24261   0.00000  Uiso   1.00
C328   C     0.20219   0.62081   0.29490   0.00000  Uiso   1.00
C329   C     0.23085   0.59622   0.00095   0.00000  Uiso   1.00
H330   H     0.23531   0.56134   0.32219   0.00000  Uiso   1.00
H331   H     0.26210   0.61271   0.00674   0.00000  Uiso   1.00
H332   H     0.21653   0.59650   0.03737   0.00000  Uiso   1.00
H333   H     0.20000   0.65528   0.30832   0.00000  Uiso   1.00
H334   H     0.16996   0.60664   0.29297   0.00000  Uiso   1.00
H335   H     0.22127   0.58338   0.23261   0.00000  Uiso   1.00
H336   H     0.25239   0.62676   0.24379   0.00000  Uiso   1.00
C337   C     0.42025   0.49968   0.17113   0.00000  Uiso   1.00
C338   C     0.57908   0.50021   0.16003   0.00000  Uiso   1.00
C339   C     0.49993   0.49980   0.07312   0.00000  Uiso   1.00
C340   C     0.50040   0.50022   0.26025   0.00000  Uiso   1.00
C341   C     0.50030   0.49978   0.02190   0.00000  Uiso   1.00
C342   C     0.50041   0.50034   0.31151   0.00000  Uiso   1.00
C343   C     0.35265   0.45821   0.16388   0.00000  Uiso   1.00
C344   C     0.64576   0.54101   0.15919   0.00000  Uiso   1.00
C345   C     0.64393   0.46087   0.14490   0.00000  Uiso   1.00
C346   C     0.35366   0.53840   0.18041   0.00000  Uiso   1.00
C347   C     0.62295   0.50126   0.14986   0.00000  Uiso   1.00
C348   C     0.37523   0.49819   0.17581   0.00000  Uiso   1.00
C349   C     0.52639   0.35784   0.20183   0.00000  Uiso   1.00
C350   C     0.47191   0.64288   0.13427   0.00000  Uiso   1.00
C351   C     0.47505   0.35691   0.13098   0.00000  Uiso   1.00
C352   C     0.52579   0.64305   0.20204   0.00000  Uiso   1.00
N353   N     0.50000   0.61907   0.16667   0.00000  Uiso   1.00
N354   N     0.50000   0.38093   0.16667   0.00000  Uiso   1.00
O355   O     0.43892   0.53821   0.16666   0.00000  Uiso   1.00
O356   O     0.56108   0.46179   0.16667   0.00000  Uiso   1.00
O357   O     0.56108   0.53821   0.16667   0.00000  Uiso   1.00
O358   O     0.43892   0.46179   0.16666   0.00000  Uiso   1.00
O359   O     0.50000   0.53821   0.09511   0.00000  Uiso   1.00
O360   O     0.50000   0.46179   0.23822   0.00000  Uiso   1.00
O361   O     0.50000   0.53821   0.23822   0.00000  Uiso   1.00
O362   O     0.50000   0.46179   0.09511   0.00000  Uiso   1.00
Zn363  Zn    0.50000   0.55104   0.16667   0.00000  Uiso   1.00
Zn364  Zn    0.50000   0.44896   0.16667   0.00000  Uiso   1.00
C365   C     0.37091   0.41291   0.17662   0.00000  Uiso   1.00
H366   H     0.39405   0.41469   0.21048   0.00000  Uiso   1.00
H367   H     0.34630   0.38958   0.18663   0.00000  Uiso   1.00
H368   H     0.38539   0.39871   0.14397   0.00000  Uiso   1.00
C369   C     0.62837   0.58583   0.14315   0.00000  Uiso   1.00
H370   H     0.60043   0.58286   0.11518   0.00000  Uiso   1.00
H371   H     0.62063   0.60555   0.17636   0.00000  Uiso   1.00
H372   H     0.65220   0.60421   0.12381   0.00000  Uiso   1.00
C373   C     0.62254   0.42179   0.11655   0.00000  Uiso   1.00
H374   H     0.61155   0.39747   0.14314   0.00000  Uiso   1.00
H375   H     0.59528   0.43274   0.09067   0.00000  Uiso   1.00
H376   H     0.64468   0.40521   0.09255   0.00000  Uiso   1.00
C377   C     0.37106   0.57598   0.21461   0.00000  Uiso   1.00
H378   H     0.40244   0.56847   0.23407   0.00000  Uiso   1.00
H379   H     0.37245   0.60744   0.19404   0.00000  Uiso   1.00
H380   H     0.34958   0.58141   0.24458   0.00000  Uiso   1.00
C381   C     0.55356   0.38461   0.24248   0.00000  Uiso   1.00
C382   C     0.60085   0.37393   0.25336   0.00000  Uiso   1.00
C383   C     0.62680   0.41473   0.27171   0.00000  Uiso   1.00
H384   H     0.62512   0.44045   0.24236   0.00000  Uiso   1.00
H385   H     0.61489   0.42886   0.30642   0.00000  Uiso   1.00
H386   H     0.66027   0.40519   0.28052   0.00000  Uiso   1.00
H387   H     0.60535   0.35045   0.28501   0.00000  Uiso   1.00
H388   H     0.61365   0.35975   0.21929   0.00000  Uiso   1.00
H389   H     0.55373   0.41820   0.23055   0.00000  Uiso   1.00
H390   H     0.53835   0.38619   0.27807   0.00000  Uiso   1.00
C391   C     0.43099   0.62177   0.11116   0.00000  Uiso   1.00
C392   C     0.43302   0.59667   0.06085   0.00000  Uiso   1.00
C393   C     0.39683   0.60897   0.02207   0.00000  Uiso   1.00
H394   H     0.36612   0.60149   0.03657   0.00000  Uiso   1.00
H395   H     0.39810   0.64457   0.01304   0.00000  Uiso   1.00
H396   H     0.39938   0.58926   0.32044   0.00000  Uiso   1.00
H397   H     0.46338   0.60256   0.04488   0.00000  Uiso   1.00
H398   H     0.42970   0.56071   0.06733   0.00000  Uiso   1.00
H399   H     0.41816   0.60132   0.13856   0.00000  Uiso   1.00
H400   H     0.40444   0.64526   0.10907   0.00000  Uiso   1.00
C401   C     0.45146   0.38064   0.08657   0.00000  Uiso   1.00
C402   C     0.47437   0.37639   0.03855   0.00000  Uiso   1.00
C403   C     0.44878   0.39732   0.32690   0.00000  Uiso   1.00
H404   H     0.41855   0.37950   0.31785   0.00000  Uiso   1.00
H405   H     0.44167   0.43246   0.00195   0.00000  Uiso   1.00
H406   H     0.46663   0.39556   0.29320   0.00000  Uiso   1.00
H407   H     0.50588   0.39224   0.04433   0.00000  Uiso   1.00
H408   H     0.47927   0.34100   0.02944   0.00000  Uiso   1.00
H409   H     0.41890   0.36928   0.07726   0.00000  Uiso   1.00
H410   H     0.44577   0.41527   0.09596   0.00000  Uiso   1.00
C411   C     0.55236   0.61800   0.24261   0.00000  Uiso   1.00
C412   C     0.53552   0.62081   0.29490   0.00000  Uiso   1.00
C413   C     0.56419   0.59622   0.00095   0.00000  Uiso   1.00
H414   H     0.56865   0.56134   0.32219   0.00000  Uiso   1.00
H415   H     0.59543   0.61271   0.00674   0.00000  Uiso   1.00
H416   H     0.54986   0.59650   0.03737   0.00000  Uiso   1.00
H417   H     0.53334   0.65528   0.30832   0.00000  Uiso   1.00
H418   H     0.50329   0.60664   0.29297   0.00000  Uiso   1.00
H419   H     0.55460   0.58338   0.23261   0.00000  Uiso   1.00
H420   H     0.58572   0.62676   0.24379   0.00000  Uiso   1.00
C421   C     0.75358   0.49968   0.17113   0.00000  Uiso   1.00
C422   C     0.91241   0.50021   0.16003   0.00000  Uiso   1.00
C423   C     0.83326   0.49980   0.07312   0.00000  Uiso   1.00
C424   C     0.83373   0.50022   0.26025   0.00000  Uiso   1.00
C425   C     0.83364   0.49978   0.02190   0.00000  Uiso   1.00
C426   C     0.83374   0.50034   0.31151   0.00000  Uiso   1.00
C427   C     0.68598   0.45821   0.16388   0.00000  Uiso   1.00
C428   C     0.97909   0.54101   0.15919   0.00000  Uiso   1.00
C429   C     0.97726   0.46087   0.14490   0.00000  Uiso   1.00
C430   C     0.68699   0.53840   0.18041   0.00000  Uiso   1.00
C431   C     0.95628   0.50126   0.14986   0.00000  Uiso   1.00
C432   C     0.70856   0.49819   0.17581   0.00000  Uiso   1.00
C433   C     0.85972   0.35784   0.20183   0.00000  Uiso   1.00
C434   C     0.80524   0.64288   0.13427   0.00000  Uiso   1.00
C435   C     0.80838   0.35691   0.13098   0.00000  Uiso   1.00
C436   C     0.85913   0.64305   0.20204   0.00000  Uiso   1.00
N437   N     0.83333   0.61907   0.16667   0.00000  Uiso   1.00
N438   N     0.83333   0.38093   0.16667   0.00000  Uiso   1.00
O439   O     0.77226   0.53821   0.16666   0.00000  Uiso   1.00
O440   O     0.89441   0.46179   0.16667   0.00000  Uiso   1.00
O441   O     0.89441   0.53821   0.16667   0.00000  Uiso   1.00
O442   O     0.77226   0.46179   0.16666   0.00000  Uiso   1.00
O443   O     0.83334   0.53821   0.09511   0.00000  Uiso   1.00
O444   O     0.83333   0.46179   0.23822   0.00000  Uiso   1.00
O445   O     0.83333   0.53821   0.23822   0.00000  Uiso   1.00
O446   O     0.83334   0.46179   0.09511   0.00000  Uiso   1.00
Zn447  Zn    0.83333   0.55104   0.16667   0.00000  Uiso   1.00
Zn448  Zn    0.83333   0.44896   0.16667   0.00000  Uiso   1.00
C449   C     0.70425   0.41291   0.17662   0.00000  Uiso   1.00
H450   H     0.72739   0.41469   0.21048   0.00000  Uiso   1.00
H451   H     0.67963   0.38958   0.18663   0.00000  Uiso   1.00
H452   H     0.71873   0.39871   0.14397   0.00000  Uiso   1.00
C453   C     0.96170   0.58583   0.14315   0.00000  Uiso   1.00
H454   H     0.93376   0.58286   0.11518   0.00000  Uiso   1.00
H455   H     0.95396   0.60555   0.17636   0.00000  Uiso   1.00
H456   H     0.98553   0.60421   0.12381   0.00000  Uiso   1.00
C457   C     0.95587   0.42179   0.11655   0.00000  Uiso   1.00
H458   H     0.94489   0.39747   0.14314   0.00000  Uiso   1.00
H459   H     0.92861   0.43274   0.09067   0.00000  Uiso   1.00
H460   H     0.97801   0.40521   0.09255   0.00000  Uiso   1.00
C461   C     0.70440   0.57598   0.21461   0.00000  Uiso   1.00
H462   H     0.73577   0.56847   0.23407   0.00000  Uiso   1.00
H463   H     0.70578   0.60744   0.19404   0.00000  Uiso   1.00
H464   H     0.68292   0.58141   0.24458   0.00000  Uiso   1.00
C465   C     0.88689   0.38461   0.24248   0.00000  Uiso   1.00
C466   C     0.93419   0.37393   0.25336   0.00000  Uiso   1.00
C467   C     0.96013   0.41473   0.27171   0.00000  Uiso   1.00
H468   H     0.95845   0.44045   0.24236   0.00000  Uiso   1.00
H469   H     0.94822   0.42886   0.30642   0.00000  Uiso   1.00
H470   H     0.99361   0.40519   0.28052   0.00000  Uiso   1.00
H471   H     0.93868   0.35045   0.28501   0.00000  Uiso   1.00
H472   H     0.94698   0.35975   0.21929   0.00000  Uiso   1.00
H473   H     0.88706   0.41820   0.23055   0.00000  Uiso   1.00
H474   H     0.87169   0.38619   0.27807   0.00000  Uiso   1.00
C475   C     0.76432   0.62177   0.11116   0.00000  Uiso   1.00
C476   C     0.76635   0.59667   0.06085   0.00000  Uiso   1.00
C477   C     0.73017   0.60897   0.02207   0.00000  Uiso   1.00
H478   H     0.69945   0.60149   0.03657   0.00000  Uiso   1.00
H479   H     0.73143   0.64457   0.01304   0.00000  Uiso   1.00
H480   H     0.73271   0.58926   0.32044   0.00000  Uiso   1.00
H481   H     0.79671   0.60256   0.04488   0.00000  Uiso   1.00
H482   H     0.76303   0.56071   0.06733   0.00000  Uiso   1.00
H483   H     0.75149   0.60132   0.13856   0.00000  Uiso   1.00
H484   H     0.73777   0.64526   0.10907   0.00000  Uiso   1.00
C485   C     0.78480   0.38064   0.08657   0.00000  Uiso   1.00
C486   C     0.80770   0.37639   0.03855   0.00000  Uiso   1.00
C487   C     0.78211   0.39732   0.32690   0.00000  Uiso   1.00
H488   H     0.75188   0.37950   0.31785   0.00000  Uiso   1.00
H489   H     0.77501   0.43246   0.00195   0.00000  Uiso   1.00
H490   H     0.79997   0.39556   0.29320   0.00000  Uiso   1.00
H491   H     0.83922   0.39224   0.04433   0.00000  Uiso   1.00
H492   H     0.81260   0.34100   0.02944   0.00000  Uiso   1.00
H493   H     0.75223   0.36928   0.07726   0.00000  Uiso   1.00
H494   H     0.77910   0.41527   0.09596   0.00000  Uiso   1.00
C495   C     0.88569   0.61800   0.24261   0.00000  Uiso   1.00
C496   C     0.86886   0.62081   0.29490   0.00000  Uiso   1.00
C497   C     0.89752   0.59622   0.00095   0.00000  Uiso   1.00
H498   H     0.90198   0.56134   0.32219   0.00000  Uiso   1.00
H499   H     0.92877   0.61271   0.00674   0.00000  Uiso   1.00
H500   H     0.88320   0.59650   0.03737   0.00000  Uiso   1.00
H501   H     0.86667   0.65528   0.30832   0.00000  Uiso   1.00
H502   H     0.83662   0.60664   0.29297   0.00000  Uiso   1.00
H503   H     0.88793   0.58338   0.23261   0.00000  Uiso   1.00
H504   H     0.91906   0.62676   0.24379   0.00000  Uiso   1.00
C505   C     0.08692   0.83302   0.17113   0.00000  Uiso   1.00
C506   C     0.24574   0.83354   0.16003   0.00000  Uiso   1.00
C507   C     0.16659   0.83313   0.07312   0.00000  Uiso   1.00
C508   C     0.16707   0.83355   0.26025   0.00000  Uiso   1.00
C509   C     0.16697   0.83312   0.02190   0.00000  Uiso   1.00
C510   C     0.16707   0.83368   0.31151   0.00000  Uiso   1.00
C511   C     0.01932   0.79155   0.16388   0.00000  Uiso   1.00
C512   C     0.31243   0.87434   0.15919   0.00000  Uiso   1.00
C513   C     0.31060   0.79421   0.14490   0.00000  Uiso   1.00
C514   C     0.02033   0.87173   0.18041   0.00000  Uiso   1.00
C515   C     0.28962   0.83460   0.14986   0.00000  Uiso   1.00
C516   C     0.04189   0.83152   0.17581   0.00000  Uiso   1.00
C517   C     0.19305   0.69117   0.20183   0.00000  Uiso   1.00
C518   C     0.13857   0.97621   0.13427   0.00000  Uiso   1.00
C519   C     0.14171   0.69025   0.13098   0.00000  Uiso   1.00
C520   C     0.19246   0.97638   0.20204   0.00000  Uiso   1.00
N521   N     0.16667   0.95240   0.16667   0.00000  Uiso   1.00
N522   N     0.16667   0.71427   0.16667   0.00000  Uiso   1.00
O523   O     0.10559   0.87154   0.16666   0.00000  Uiso   1.00
O524   O     0.22774   0.79513   0.16667   0.00000  Uiso   1.00
O525   O     0.22774   0.87154   0.16667   0.00000  Uiso   1.00
O526   O     0.10559   0.79513   0.16666   0.00000  Uiso   1.00
O527   O     0.16667   0.87155   0.09511   0.00000  Uiso   1.00
O528   O     0.16666   0.79512   0.23822   0.00000  Uiso   1.00
O529   O     0.16666   0.87155   0.23822   0.00000  Uiso   1.00
O530   O     0.16667   0.79512   0.09511   0.00000  Uiso   1.00
Zn531  Zn    0.16667   0.88437   0.16667   0.00000  Uiso   1.00
Zn532  Zn    0.16667   0.78229   0.16667   0.00000  Uiso   1.00
C533   C     0.03758   0.74625   0.17662   0.00000  Uiso   1.00
H534   H     0.06072   0.74802   0.21048   0.00000  Uiso   1.00
H535   H     0.01297   0.72292   0.18663   0.00000  Uiso   1.00
H536   H     0.05206   0.73204   0.14397   0.00000  Uiso   1.00
C537   C     0.29503   0.91916   0.14315   0.00000  Uiso   1.00
H538   H     0.26710   0.91619   0.11518   0.00000  Uiso   1.00
H539   H     0.28729   0.93888   0.17636   0.00000  Uiso   1.00
H540   H     0.31887   0.93754   0.12381   0.00000  Uiso   1.00
C541   C     0.28921   0.75513   0.11655   0.00000  Uiso   1.00
H542   H     0.27822   0.73080   0.14314   0.00000  Uiso   1.00
H543   H     0.26195   0.76607   0.09067   0.00000  Uiso   1.00
H544   H     0.31134   0.73854   0.09255   0.00000  Uiso   1.00
C545   C     0.03773   0.90932   0.21461   0.00000  Uiso   1.00
H546   H     0.06910   0.90181   0.23407   0.00000  Uiso   1.00
H547   H     0.03911   0.94078   0.19404   0.00000  Uiso   1.00
H548   H     0.01625   0.91474   0.24458   0.00000  Uiso   1.00
C549   C     0.22022   0.71794   0.24248   0.00000  Uiso   1.00
C550   C     0.26752   0.70726   0.25336   0.00000  Uiso   1.00
C551   C     0.29346   0.74806   0.27171   0.00000  Uiso   1.00
H552   H     0.29179   0.77379   0.24236   0.00000  Uiso   1.00
H553   H     0.28156   0.76220   0.30642   0.00000  Uiso   1.00
H554   H     0.32694   0.73852   0.28052   0.00000  Uiso   1.00
H555   H     0.27202   0.68378   0.28501   0.00000  Uiso   1.00
H556   H     0.28032   0.69309   0.21929   0.00000  Uiso   1.00
H557   H     0.22040   0.75153   0.23055   0.00000  Uiso   1.00
H558   H     0.20502   0.71953   0.27807   0.00000  Uiso   1.00
C559   C     0.09766   0.95511   0.11116   0.00000  Uiso   1.00
C560   C     0.09969   0.93000   0.06085   0.00000  Uiso   1.00
C561   C     0.06350   0.94231   0.02207   0.00000  Uiso   1.00
H562   H     0.03278   0.93482   0.03657   0.00000  Uiso   1.00
H563   H     0.06476   0.97790   0.01304   0.00000  Uiso   1.00
H564   H     0.06605   0.92259   0.32044   0.00000  Uiso   1.00
H565   H     0.13004   0.93590   0.04488   0.00000  Uiso   1.00
H566   H     0.09637   0.89404   0.06733   0.00000  Uiso   1.00
H567   H     0.08483   0.93466   0.13856   0.00000  Uiso   1.00
H568   H     0.07111   0.97859   0.10907   0.00000  Uiso   1.00
C569   C     0.11813   0.71397   0.08657   0.00000  Uiso   1.00
C570   C     0.14104   0.70972   0.03855   0.00000  Uiso   1.00
C571   C     0.11544   0.73065   0.32690   0.00000  Uiso   1.00
H572   H     0.08522   0.71284   0.31785   0.00000  Uiso   1.00
H573   H     0.10834   0.76579   0.00195   0.00000  Uiso   1.00
H574   H     0.13330   0.72889   0.29320   0.00000  Uiso   1.00
H575   H     0.17255   0.72557   0.04433   0.00000  Uiso   1.00
H576   H     0.14594   0.67434   0.02944   0.00000  Uiso   1.00
H577   H     0.08556   0.70261   0.07726   0.00000  Uiso   1.00
H578   H     0.11244   0.74860   0.09596   0.00000  Uiso   1.00
C579   C     0.21902   0.95133   0.24261   0.00000  Uiso   1.00
C580   C     0.20219   0.95415   0.29490   0.00000  Uiso   1.00
C581   C     0.23085   0.92955   0.00095   0.00000  Uiso   1.00
H582   H     0.23531   0.89468   0.32219   0.00000  Uiso   1.00
H583   H     0.26210   0.94604   0.00674   0.00000  Uiso   1.00
H584   H     0.21653   0.92983   0.03737   0.00000  Uiso   1.00
H585   H     0.20000   0.98862   0.30832   0.00000  Uiso   1.00
H586   H     0.16996   0.93998   0.29297   0.00000  Uiso   1.00
H587   H     0.22127   0.91671   0.23261   0.00000  Uiso   1.00
H588   H     0.25239   0.96009   0.24379   0.00000  Uiso   1.00
C589   C     0.42025   0.83302   0.17113   0.00000  Uiso   1.00
C590   C     0.57908   0.83354   0.16003   0.00000  Uiso   1.00
C591   C     0.49993   0.83313   0.07312   0.00000  Uiso   1.00
C592   C     0.50040   0.83355   0.26025   0.00000  Uiso   1.00
C593   C     0.50030   0.83312   0.02190   0.00000  Uiso   1.00
C594   C     0.50041   0.83368   0.31151   0.00000  Uiso   1.00
C595   C     0.35265   0.79155   0.16388   0.00000  Uiso   1.00
C596   C     0.64576   0.87434   0.15919   0.00000  Uiso   1.00
C597   C     0.64393   0.79421   0.14490   0.00000  Uiso   1.00
C598   C     0.35366   0.87173   0.18041   0.00000  Uiso   1.00
C599   C     0.62295   0.83460   0.14986   0.00000  Uiso   1.00
C600   C     0.37523   0.83152   0.17581   0.00000  Uiso   1.00
C601   C     0.52639   0.69117   0.20183   0.00000  Uiso   1.00
C602   C     0.47191   0.97621   0.13427   0.00000  Uiso   1.00
C603   C     0.47505   0.69025   0.13098   0.00000  Uiso   1.00
C604   C     0.52579   0.97638   0.20204   0.00000  Uiso   1.00
N605   N     0.50000   0.95240   0.16667   0.00000  Uiso   1.00
N606   N     0.50000   0.71427   0.16667   0.00000  Uiso   1.00
O607   O     0.43892   0.87154   0.16666   0.00000  Uiso   1.00
O608   O     0.56108   0.79513   0.16667   0.00000  Uiso   1.00
O609   O     0.56108   0.87154   0.16667   0.00000  Uiso   1.00
O610   O     0.43892   0.79513   0.16666   0.00000  Uiso   1.00
O611   O     0.50000   0.87155   0.09511   0.00000  Uiso   1.00
O612   O     0.50000   0.79512   0.23822   0.00000  Uiso   1.00
O613   O     0.50000   0.87155   0.23822   0.00000  Uiso   1.00
O614   O     0.50000   0.79512   0.09511   0.00000  Uiso   1.00
Zn615  Zn    0.50000   0.88437   0.16667   0.00000  Uiso   1.00
Zn616  Zn    0.50000   0.78229   0.16667   0.00000  Uiso   1.00
C617   C     0.37091   0.74625   0.17662   0.00000  Uiso   1.00
H618   H     0.39405   0.74802   0.21048   0.00000  Uiso   1.00
H619   H     0.34630   0.72292   0.18663   0.00000  Uiso   1.00
H620   H     0.38539   0.73204   0.14397   0.00000  Uiso   1.00
C621   C     0.62837   0.91916   0.14315   0.00000  Uiso   1.00
H622   H     0.60043   0.91619   0.11518   0.00000  Uiso   1.00
H623   H     0.62063   0.93888   0.17636   0.00000  Uiso   1.00
H624   H     0.65220   0.93754   0.12381   0.00000  Uiso   1.00
C625   C     0.62254   0.75513   0.11655   0.00000  Uiso   1.00
H626   H     0.61155   0.73080   0.14314   0.00000  Uiso   1.00
H627   H     0.59528   0.76607   0.09067   0.00000  Uiso   1.00
H628   H     0.64468   0.73854   0.09255   0.00000  Uiso   1.00
C629   C     0.37106   0.90932   0.21461   0.00000  Uiso   1.00
H630   H     0.40244   0.90181   0.23407   0.00000  Uiso   1.00
H631   H     0.37245   0.94078   0.19404   0.00000  Uiso   1.00
H632   H     0.34958   0.91474   0.24458   0.00000  Uiso   1.00
C633   C     0.55356   0.71794   0.24248   0.00000  Uiso   1.00
C634   C     0.60085   0.70726   0.25336   0.00000  Uiso   1.00
C635   C     0.62680   0.74806   0.27171   0.00000  Uiso   1.00
H636   H     0.62512   0.77379   0.24236   0.00000  Uiso   1.00
H637   H     0.61489   0.76220   0.30642   0.00000  Uiso   1.00
H638   H     0.66027   0.73852   0.28052   0.00000  Uiso   1.00
H639   H     0.60535   0.68378   0.28501   0.00000  Uiso   1.00
H640   H     0.61365   0.69309   0.21929   0.00000  Uiso   1.00
H641   H     0.55373   0.75153   0.23055   0.00000  Uiso   1.00
H642   H     0.53835   0.71953   0.27807   0.00000  Uiso   1.00
C643   C     0.43099   0.95511   0.11116   0.00000  Uiso   1.00
C644   C     0.43302   0.93000   0.06085   0.00000  Uiso   1.00
C645   C     0.39683   0.94231   0.02207   0.00000  Uiso   1.00
H646   H     0.36612   0.93482   0.03657   0.00000  Uiso   1.00
H647   H     0.39810   0.97790   0.01304   0.00000  Uiso   1.00
H648   H     0.39938   0.92259   0.32044   0.00000  Uiso   1.00
H649   H     0.46338   0.93590   0.04488   0.00000  Uiso   1.00
H650   H     0.42970   0.89404   0.06733   0.00000  Uiso   1.00
H651   H     0.41816   0.93466   0.13856   0.00000  Uiso   1.00
H652   H     0.40444   0.97859   0.10907   0.00000  Uiso   1.00
C653   C     0.45146   0.71397   0.08657   0.00000  Uiso   1.00
C654   C     0.47437   0.70972   0.03855   0.00000  Uiso   1.00
C655   C     0.44878   0.73065   0.32690   0.00000  Uiso   1.00
H656   H     0.41855   0.71284   0.31785   0.00000  Uiso   1.00
H657   H     0.44167   0.76579   0.00195   0.00000  Uiso   1.00
H658   H     0.46663   0.72889   0.29320   0.00000  Uiso   1.00
H659   H     0.50588   0.72557   0.04433   0.00000  Uiso   1.00
H660   H     0.47927   0.67434   0.02944   0.00000  Uiso   1.00
H661   H     0.41890   0.70261   0.07726   0.00000  Uiso   1.00
H662   H     0.44577   0.74860   0.09596   0.00000  Uiso   1.00
C663   C     0.55236   0.95133   0.24261   0.00000  Uiso   1.00
C664   C     0.53552   0.95415   0.29490   0.00000  Uiso   1.00
C665   C     0.56419   0.92955   0.00095   0.00000  Uiso   1.00
H666   H     0.56865   0.89468   0.32219   0.00000  Uiso   1.00
H667   H     0.59543   0.94604   0.00674   0.00000  Uiso   1.00
H668   H     0.54986   0.92983   0.03737   0.00000  Uiso   1.00
H669   H     0.53334   0.98862   0.30832   0.00000  Uiso   1.00
H670   H     0.50329   0.93998   0.29297   0.00000  Uiso   1.00
H671   H     0.55460   0.91671   0.23261   0.00000  Uiso   1.00
H672   H     0.58572   0.96009   0.24379   0.00000  Uiso   1.00
C673   C     0.75358   0.83302   0.17113   0.00000  Uiso   1.00
C674   C     0.91241   0.83354   0.16003   0.00000  Uiso   1.00
C675   C     0.83326   0.83313   0.07312   0.00000  Uiso   1.00
C676   C     0.83373   0.83355   0.26025   0.00000  Uiso   1.00
C677   C     0.83364   0.83312   0.02190   0.00000  Uiso   1.00
C678   C     0.83374   0.83368   0.31151   0.00000  Uiso   1.00
C679   C     0.68598   0.79155   0.16388   0.00000  Uiso   1.00
C680   C     0.97909   0.87434   0.15919   0.00000  Uiso   1.00
C681   C     0.97726   0.79421   0.14490   0.00000  Uiso   1.00
C682   C     0.68699   0.87173   0.18041   0.00000  Uiso   1.00
C683   C     0.95628   0.83460   0.14986   0.00000  Uiso   1.00
C684   C     0.70856   0.83152   0.17581   0.00000  Uiso   1.00
C685   C     0.85972   0.69117   0.20183   0.00000  Uiso   1.00
C686   C     0.80524   0.97621   0.13427   0.00000  Uiso   1.00
C687   C     0.80838   0.69025   0.13098   0.00000  Uiso   1.00
C688   C     0.85913   0.97638   0.20204   0.00000  Uiso   1.00
N689   N     0.83333   0.95240   0.16667   0.00000  Uiso   1.00
N690   N     0.83333   0.71427   0.16667   0.00000  Uiso   1.00
O691   O     0.77226   0.87154   0.16666   0.00000  Uiso   1.00
O692   O     0.89441   0.79513   0.16667   0.00000  Uiso   1.00
O693   O     0.89441   0.87154   0.16667   0.00000  Uiso   1.00
O694   O     0.77226   0.79513   0.16666   0.00000  Uiso   1.00
O695   O     0.83334   0.87155   0.09511   0.00000  Uiso   1.00
O696   O     0.83333   0.79512   0.23822   0.00000  Uiso   1.00
O697   O     0.83333   0.87155   0.23822   0.00000  Uiso   1.00
O698   O     0.83334   0.79512   0.09511   0.00000  Uiso   1.00
Zn699  Zn    0.83333   0.88437   0.16667   0.00000  Uiso   1.00
Zn700  Zn    0.83333   0.78229   0.16667   0.00000  Uiso   1.00
C701   C     0.70425   0.74625   0.17662   0.00000  Uiso   1.00
H702   H     0.72739   0.74802   0.21048   0.00000  Uiso   1.00
H703   H     0.67963   0.72292   0.18663   0.00000  Uiso   1.00
H704   H     0.71873   0.73204   0.14397   0.00000  Uiso   1.00
C705   C     0.96170   0.91916   0.14315   0.00000  Uiso   1.00
H706   H     0.93376   0.91619   0.11518   0.00000  Uiso   1.00
H707   H     0.95396   0.93888   0.17636   0.00000  Uiso   1.00
H708   H     0.98553   0.93754   0.12381   0.00000  Uiso   1.00
C709   C     0.95587   0.75513   0.11655   0.00000  Uiso   1.00
H710   H     0.94489   0.73080   0.14314   0.00000  Uiso   1.00
H711   H     0.92861   0.76607   0.09067   0.00000  Uiso   1.00
H712   H     0.97801   0.73854   0.09255   0.00000  Uiso   1.00
C713   C     0.70440   0.90932   0.21461   0.00000  Uiso   1.00
H714   H     0.73577   0.90181   0.23407   0.00000  Uiso   1.00
H715   H     0.70578   0.94078   0.19404   0.00000  Uiso   1.00
H716   H     0.68292   0.91474   0.24458   0.00000  Uiso   1.00
C717   C     0.88689   0.71794   0.24248   0.00000  Uiso   1.00
C718   C     0.93419   0.70726   0.25336   0.00000  Uiso   1.00
C719   C     0.96013   0.74806   0.27171   0.00000  Uiso   1.00
H720   H     0.95845   0.77379   0.24236   0.00000  Uiso   1.00
H721   H     0.94822   0.76220   0.30642   0.00000  Uiso   1.00
H722   H     0.99361   0.73852   0.28052   0.00000  Uiso   1.00
H723   H     0.93868   0.68378   0.28501   0.00000  Uiso   1.00
H724   H     0.94698   0.69309   0.21929   0.00000  Uiso   1.00
H725   H     0.88706   0.75153   0.23055   0.00000  Uiso   1.00
H726   H     0.87169   0.71953   0.27807   0.00000  Uiso   1.00
C727   C     0.76432   0.95511   0.11116   0.00000  Uiso   1.00
C728   C     0.76635   0.93000   0.06085   0.00000  Uiso   1.00
C729   C     0.73017   0.94231   0.02207   0.00000  Uiso   1.00
H730   H     0.69945   0.93482   0.03657   0.00000  Uiso   1.00
H731   H     0.73143   0.97790   0.01304   0.00000  Uiso   1.00
H732   H     0.73271   0.92259   0.32044   0.00000  Uiso   1.00
H733   H     0.79671   0.93590   0.04488   0.00000  Uiso   1.00
H734   H     0.76303   0.89404   0.06733   0.00000  Uiso   1.00
H735   H     0.75149   0.93466   0.13856   0.00000  Uiso   1.00
H736   H     0.73777   0.97859   0.10907   0.00000  Uiso   1.00
C737   C     0.78480   0.71397   0.08657   0.00000  Uiso   1.00
C738   C     0.80770   0.70972   0.03855   0.00000  Uiso   1.00
C739   C     0.78211   0.73065   0.32690   0.00000  Uiso   1.00
H740   H     0.75188   0.71284   0.31785   0.00000  Uiso   1.00
H741   H     0.77501   0.76579   0.00195   0.00000  Uiso   1.00
H742   H     0.79997   0.72889   0.29320   0.00000  Uiso   1.00
H743   H     0.83922   0.72557   0.04433   0.00000  Uiso   1.00
H744   H     0.81260   0.67434   0.02944   0.00000  Uiso   1.00
H745   H     0.75223   0.70261   0.07726   0.00000  Uiso   1.00
H746   H     0.77910   0.74860   0.09596   0.00000  Uiso   1.00
C747   C     0.88569   0.95133   0.24261   0.00000  Uiso   1.00
C748   C     0.86886   0.95415   0.29490   0.00000  Uiso   1.00
C749   C     0.89752   0.92955   0.00095   0.00000  Uiso   1.00
H750   H     0.90198   0.89468   0.32219   0.00000  Uiso   1.00
H751   H     0.92877   0.94604   0.00674   0.00000  Uiso   1.00
H752   H     0.88320   0.92983   0.03737   0.00000  Uiso   1.00
H753   H     0.86667   0.98862   0.30832   0.00000  Uiso   1.00
H754   H     0.83662   0.93998   0.29297   0.00000  Uiso   1.00
H755   H     0.88793   0.91671   0.23261   0.00000  Uiso   1.00
H756   H     0.91906   0.96009   0.24379   0.00000  Uiso   1.00
C757   C     0.08692   0.16635   0.50446   0.00000  Uiso   1.00
C758   C     0.24574   0.16687   0.49336   0.00000  Uiso   1.00
C759   C     0.16659   0.16646   0.40645   0.00000  Uiso   1.00
C760   C     0.16707   0.16688   0.59358   0.00000  Uiso   1.00
C761   C     0.16697   0.16645   0.35523   0.00000  Uiso   1.00
C762   C     0.16707   0.16701   0.64484   0.00000  Uiso   1.00
C763   C     0.01932   0.12488   0.49722   0.00000  Uiso   1.00
C764   C     0.31243   0.20767   0.49252   0.00000  Uiso   1.00
C765   C     0.31060   0.12754   0.47823   0.00000  Uiso   1.00
C766   C     0.02033   0.20506   0.51374   0.00000  Uiso   1.00
C767   C     0.28962   0.16793   0.48319   0.00000  Uiso   1.00
C768   C     0.04189   0.16485   0.50915   0.00000  Uiso   1.00
C769   C     0.19305   0.02450   0.53516   0.00000  Uiso   1.00
C770   C     0.13857   0.30954   0.46760   0.00000  Uiso   1.00
C771   C     0.14171   0.02358   0.46431   0.00000  Uiso   1.00
C772   C     0.19246   0.30972   0.53537   0.00000  Uiso   1.00
N773   N     0.16667   0.28573   0.50000   0.00000  Uiso   1.00
N774   N     0.16667   0.04760   0.50000   0.00000  Uiso   1.00
O775   O     0.10559   0.20487   0.50000   0.00000  Uiso   1.00
O776   O     0.22774   0.12846   0.50000   0.00000  Uiso   1.00
O777   O     0.22774   0.20487   0.50000   0.00000  Uiso   1.00
O778   O     0.10559   0.12846   0.50000   0.00000  Uiso   1.00
O779   O     0.16667   0.20488   0.42845   0.00000  Uiso   1.00
O780   O     0.16666   0.12845   0.57155   0.00000  Uiso   1.00
O781   O     0.16666   0.20488   0.57155   0.00000  Uiso   1.00
O782   O     0.16667   0.12845   0.42845   0.00000  Uiso   1.00
Zn783  Zn    0.16667   0.21771   0.50000   0.00000  Uiso   1.00
Zn784  Zn    0.16667   0.11563   0.50000   0.00000  Uiso   1.00
C785   C     0.03758   0.07958   0.50996   0.00000  Uiso   1.00
H786   H     0.06072   0.08136   0.54382   0.00000  Uiso   1.00
H787   H     0.01297   0.05625   0.51996   0.00000  Uiso   1.00
H788   H     0.05206   0.06537   0.47731   0.00000  Uiso   1.00
C789   C     0.29503   0.25250   0.47649   0.00000  Uiso   1.00
H790   H     0.26710   0.24953   0.44851   0.00000  Uiso   1.00
H791   H     0.28729   0.27222   0.50970   0.00000  Uiso   1.00
H792   H     0.31887   0.27087   0.45714   0.00000  Uiso   1.00
C793   C     0.28921   0.08846   0.44989   0.00000  Uiso   1.00
H794   H     0.27822   0.06414   0.47647   0.00000  Uiso   1.00
H795   H     0.26195   0.09940   0.42400   0.00000  Uiso   1.00
H796   H     0.31134   0.07188   0.42588   0.00000  Uiso   1.00
C797   C     0.03773   0.24265   0.54794   0.00000  Uiso   1.00
H798   H     0.06910   0.23514   0.56740   0.00000  Uiso   1.00
H799   H     0.03911   0.27411   0.52738   0.00000  Uiso   1.00
H800   H     0.01625   0.24807   0.57791   0.00000  Uiso   1.00
C801   C     0.22022   0.05127   0.57582   0.00000  Uiso   1.00
C802   C     0.26752   0.04059   0.58669   0.00000  Uiso   1.00
C803   C     0.29346   0.08140   0.60504   0.00000  Uiso   1.00
H804   H     0.29179   0.10712   0.57570   0.00000  Uiso   1.00
H805   H     0.28156   0.09553   0.63975   0.00000  Uiso   1.00
H806   H     0.32694   0.07186   0.61385   0.00000  Uiso   1.00
H807   H     0.27202   0.01712   0.61834   0.00000  Uiso   1.00
H808   H     0.28032   0.02642   0.55262   0.00000  Uiso   1.00
H809   H     0.22040   0.08487   0.56388   0.00000  Uiso   1.00
H810   H     0.20502   0.05286   0.61140   0.00000  Uiso   1.00
C811   C     0.09766   0.28844   0.44449   0.00000  Uiso   1.00
C812   C     0.09969   0.26334   0.39418   0.00000  Uiso   1.00
C813   C     0.06350   0.27564   0.35541   0.00000  Uiso   1.00
H814   H     0.03278   0.26816   0.36990   0.00000  Uiso   1.00
H815   H     0.06476   0.31124   0.34638   0.00000  Uiso   1.00
H816   H     0.06605   0.25592   0.65378   0.00000  Uiso   1.00
H817   H     0.13004   0.26923   0.37821   0.00000  Uiso   1.00
H818   H     0.09637   0.22737   0.40066   0.00000  Uiso   1.00
H819   H     0.08483   0.26799   0.47189   0.00000  Uiso   1.00
H820   H     0.07111   0.31193   0.44241   0.00000  Uiso   1.00
C821   C     0.11813   0.04730   0.41990   0.00000  Uiso   1.00
C822   C     0.14104   0.04305   0.37188   0.00000  Uiso   1.00
C823   C     0.11544   0.06399   0.66024   0.00000  Uiso   1.00
H824   H     0.08522   0.04617   0.65119   0.00000  Uiso   1.00
H825   H     0.10834   0.09912   0.33528   0.00000  Uiso   1.00
H826   H     0.13330   0.06222   0.62653   0.00000  Uiso   1.00
H827   H     0.17255   0.05890   0.37767   0.00000  Uiso   1.00
H828   H     0.14594   0.00767   0.36278   0.00000  Uiso   1.00
H829   H     0.08556   0.03594   0.41059   0.00000  Uiso   1.00
H830   H     0.11244   0.08193   0.42930   0.00000  Uiso   1.00
C831   C     0.21902   0.28466   0.57595   0.00000  Uiso   1.00
C832   C     0.20219   0.28748   0.62823   0.00000  Uiso   1.00
C833   C     0.23085   0.26289   0.33429   0.00000  Uiso   1.00
H834   H     0.23531   0.22801   0.65552   0.00000  Uiso   1.00
H835   H     0.26210   0.27938   0.34007   0.00000  Uiso   1.00
H836   H     0.21653   0.26317   0.37070   0.00000  Uiso   1.00
H837   H     0.20000   0.32195   0.64166   0.00000  Uiso   1.00
H838   H     0.16996   0.27331   0.62630   0.00000  Uiso   1.00
H839   H     0.22127   0.25005   0.56594   0.00000  Uiso   1.00
H840   H     0.25239   0.29342   0.57712   0.00000  Uiso   1.00
C841   C     0.42025   0.16635   0.50446   0.00000  Uiso   1.00
C842   C     0.57908   0.16687   0.49336   0.00000  Uiso   1.00
C843   C     0.49993   0.16646   0.40645   0.00000  Uiso   1.00
C844   C     0.50040   0.16688   0.59358   0.00000  Uiso   1.00
C845   C     0.50030   0.16645   0.35523   0.00000  Uiso   1.00
C846   C     0.50041   0.16701   0.64484   0.00000  Uiso   1.00
C847   C     0.35265   0.12488   0.49722   0.00000  Uiso   1.00
C848   C     0.64576   0.20767   0.49252   0.00000  Uiso   1.00
C849   C     0.64393   0.12754   0.47823   0.00000  Uiso   1.00
C850   C     0.35366   0.20506   0.51374   0.00000  Uiso   1.00
C851   C     0.62295   0.16793   0.48319   0.00000  Uiso   1.00
C852   C     0.37523   0.16485   0.50915   0.00000  Uiso   1.00
C853   C     0.52639   0.02450   0.53516   0.00000  Uiso   1.00
C854   C     0.47191   0.30954   0.46760   0.00000  Uiso   1.00
C855   C     0.47505   0.02358   0.46431   0.00000  Uiso   1.00
C856   C     0.52579   0.30972   0.53537   0.00000  Uiso   1.00
N857   N     0.50000   0.28573   0.50000   0.00000  Uiso   1.00
N858   N     0.50000   0.04760   0.50000   0.00000  Uiso   1.00
O859   O     0.43892   0.20487   0.50000   0.00000  Uiso   1.00
O860   O     0.56108   0.12846   0.50000   0.00000  Uiso   1.00
O861   O     0.56108   0.20487   0.50000   0.00000  Uiso   1.00
O862   O     0.43892   0.12846   0.50000   0.00000  Uiso   1.00
O863   O     0.50000   0.20488   0.42845   0.00000  Uiso   1.00
O864   O     0.50000   0.12845   0.57155   0.00000  Uiso   1.00
O865   O     0.50000   0.20488   0.57155   0.00000  Uiso   1.00
O866   O     0.50000   0.12845   0.42845   0.00000  Uiso   1.00
Zn867  Zn    0.50000   0.21771   0.50000   0.00000  Uiso   1.00
Zn868  Zn    0.50000   0.11563   0.50000   0.00000  Uiso   1.00
C869   C     0.37091   0.07958   0.50996   0.00000  Uiso   1.00
H870   H     0.39405   0.08136   0.54382   0.00000  Uiso   1.00
H871   H     0.34630   0.05625   0.51996   0.00000  Uiso   1.00
H872   H     0.38539   0.06537   0.47731   0.00000  Uiso   1.00
C873   C     0.62837   0.25250   0.47649   0.00000  Uiso   1.00
H874   H     0.60043   0.24953   0.44851   0.00000  Uiso   1.00
H875   H     0.62063   0.27222   0.50970   0.00000  Uiso   1.00
H876   H     0.65220   0.27087   0.45714   0.00000  Uiso   1.00
C877   C     0.62254   0.08846   0.44989   0.00000  Uiso   1.00
H878   H     0.61155   0.06414   0.47647   0.00000  Uiso   1.00
H879   H     0.59528   0.09940   0.42400   0.00000  Uiso   1.00
H880   H     0.64468   0.07188   0.42588   0.00000  Uiso   1.00
C881   C     0.37106   0.24265   0.54794   0.00000  Uiso   1.00
H882   H     0.40244   0.23514   0.56740   0.00000  Uiso   1.00
H883   H     0.37245   0.27411   0.52738   0.00000  Uiso   1.00
H884   H     0.34958   0.24807   0.57791   0.00000  Uiso   1.00
C885   C     0.55356   0.05127   0.57582   0.00000  Uiso   1.00
C886   C     0.60085   0.04059   0.58669   0.00000  Uiso   1.00
C887   C     0.62680   0.08140   0.60504   0.00000  Uiso   1.00
H888   H     0.62512   0.10712   0.57570   0.00000  Uiso   1.00
H889   H     0.61489   0.09553   0.63975   0.00000  Uiso   1.00
H890   H     0.66027   0.07186   0.61385   0.00000  Uiso   1.00
H891   H     0.60535   0.01712   0.61834   0.00000  Uiso   1.00
H892   H     0.61365   0.02642   0.55262   0.00000  Uiso   1.00
H893   H     0.55373   0.08487   0.56388   0.00000  Uiso   1.00
H894   H     0.53835   0.05286   0.61140   0.00000  Uiso   1.00
C895   C     0.43099   0.28844   0.44449   0.00000  Uiso   1.00
C896   C     0.43302   0.26334   0.39418   0.00000  Uiso   1.00
C897   C     0.39683   0.27564   0.35541   0.00000  Uiso   1.00
H898   H     0.36612   0.26816   0.36990   0.00000  Uiso   1.00
H899   H     0.39810   0.31124   0.34638   0.00000  Uiso   1.00
H900   H     0.39938   0.25592   0.65378   0.00000  Uiso   1.00
H901   H     0.46338   0.26923   0.37821   0.00000  Uiso   1.00
H902   H     0.42970   0.22737   0.40066   0.00000  Uiso   1.00
H903   H     0.41816   0.26799   0.47189   0.00000  Uiso   1.00
H904   H     0.40444   0.31193   0.44241   0.00000  Uiso   1.00
C905   C     0.45146   0.04730   0.41990   0.00000  Uiso   1.00
C906   C     0.47437   0.04305   0.37188   0.00000  Uiso   1.00
C907   C     0.44878   0.06399   0.66024   0.00000  Uiso   1.00
H908   H     0.41855   0.04617   0.65119   0.00000  Uiso   1.00
H909   H     0.44167   0.09912   0.33528   0.00000  Uiso   1.00
H910   H     0.46663   0.06222   0.62653   0.00000  Uiso   1.00
H911   H     0.50588   0.05890   0.37767   0.00000  Uiso   1.00
H912   H     0.47927   0.00767   0.36278   0.00000  Uiso   1.00
H913   H     0.41890   0.03594   0.41059   0.00000  Uiso   1.00
H914   H     0.44577   0.08193   0.42930   0.00000  Uiso   1.00
C915   C     0.55236   0.28466   0.57595   0.00000  Uiso   1.00
C916   C     0.53552   0.28748   0.62823   0.00000  Uiso   1.00
C917   C     0.56419   0.26289   0.33429   0.00000  Uiso   1.00
H918   H     0.56865   0.22801   0.65552   0.00000  Uiso   1.00
H919   H     0.59543   0.27938   0.34007   0.00000  Uiso   1.00
H920   H     0.54986   0.26317   0.37070   0.00000  Uiso   1.00
H921   H     0.53334   0.32195   0.64166   0.00000  Uiso   1.00
H922   H     0.50329   0.27331   0.62630   0.00000  Uiso   1.00
H923   H     0.55460   0.25005   0.56594   0.00000  Uiso   1.00
H924   H     0.58572   0.29342   0.57712   0.00000  Uiso   1.00
C925   C     0.75358   0.16635   0.50446   0.00000  Uiso   1.00
C926   C     0.91241   0.16687   0.49336   0.00000  Uiso   1.00
C927   C     0.83326   0.16646   0.40645   0.00000  Uiso   1.00
C928   C     0.83373   0.16688   0.59358   0.00000  Uiso   1.00
C929   C     0.83364   0.16645   0.35523   0.00000  Uiso   1.00
C930   C     0.83374   0.16701   0.64484   0.00000  Uiso   1.00
C931   C     0.68598   0.12488   0.49722   0.00000  Uiso   1.00
C932   C     0.97909   0.20767   0.49252   0.00000  Uiso   1.00
C933   C     0.97726   0.12754   0.47823   0.00000  Uiso   1.00
C934   C     0.68699   0.20506   0.51374   0.00000  Uiso   1.00
C935   C     0.95628   0.16793   0.48319   0.00000  Uiso   1.00
C936   C     0.70856   0.16485   0.50915   0.00000  Uiso   1.00
C937   C     0.85972   0.02450   0.53516   0.00000  Uiso   1.00
C938   C     0.80524   0.30954   0.46760   0.00000  Uiso   1.00
C939   C     0.80838   0.02358   0.46431   0.00000  Uiso   1.00
C940   C     0.85913   0.30972   0.53537   0.00000  Uiso   1.00
N941   N     0.83333   0.28573   0.50000   0.00000  Uiso   1.00
N942   N     0.83333   0.04760   0.50000   0.00000  Uiso   1.00
O943   O     0.77226   0.20487   0.50000   0.00000  Uiso   1.00
O944   O     0.89441   0.12846   0.50000   0.00000  Uiso   1.00
O945   O     0.89441   0.20487   0.50000   0.00000  Uiso   1.00
O946   O     0.77226   0.12846   0.50000   0.00000  Uiso   1.00
O947   O     0.83334   0.20488   0.42845   0.00000  Uiso   1.00
O948   O     0.83333   0.12845   0.57155   0.00000  Uiso   1.00
O949   O     0.83333   0.20488   0.57155   0.00000  Uiso   1.00
O950   O     0.83334   0.12845   0.42845   0.00000  Uiso   1.00
Zn951  Zn    0.83333   0.21771   0.50000   0.00000  Uiso   1.00
Zn952  Zn    0.83333   0.11563   0.50000   0.00000  Uiso   1.00
C953   C     0.70425   0.07958   0.50996   0.00000  Uiso   1.00
H954   H     0.72739   0.08136   0.54382   0.00000  Uiso   1.00
H955   H     0.67963   0.05625   0.51996   0.00000  Uiso   1.00
H956   H     0.71873   0.06537   0.47731   0.00000  Uiso   1.00
C957   C     0.96170   0.25250   0.47649   0.00000  Uiso   1.00
H958   H     0.93376   0.24953   0.44851   0.00000  Uiso   1.00
H959   H     0.95396   0.27222   0.50970   0.00000  Uiso   1.00
H960   H     0.98553   0.27087   0.45714   0.00000  Uiso   1.00
C961   C     0.95587   0.08846   0.44989   0.00000  Uiso   1.00
H962   H     0.94489   0.06414   0.47647   0.00000  Uiso   1.00
H963   H     0.92861   0.09940   0.42400   0.00000  Uiso   1.00
H964   H     0.97801   0.07188   0.42588   0.00000  Uiso   1.00
C965   C     0.70440   0.24265   0.54794   0.00000  Uiso   1.00
H966   H     0.73577   0.23514   0.56740   0.00000  Uiso   1.00
H967   H     0.70578   0.27411   0.52738   0.00000  Uiso   1.00
H968   H     0.68292   0.24807   0.57791   0.00000  Uiso   1.00
C969   C     0.88689   0.05127   0.57582   0.00000  Uiso   1.00
C970   C     0.93419   0.04059   0.58669   0.00000  Uiso   1.00
C971   C     0.96013   0.08140   0.60504   0.00000  Uiso   1.00
H972   H     0.95845   0.10712   0.57570   0.00000  Uiso   1.00
H973   H     0.94822   0.09553   0.63975   0.00000  Uiso   1.00
H974   H     0.99361   0.07186   0.61385   0.00000  Uiso   1.00
H975   H     0.93868   0.01712   0.61834   0.00000  Uiso   1.00
H976   H     0.94698   0.02642   0.55262   0.00000  Uiso   1.00
H977   H     0.88706   0.08487   0.56388   0.00000  Uiso   1.00
H978   H     0.87169   0.05286   0.61140   0.00000  Uiso   1.00
C979   C     0.76432   0.28844   0.44449   0.00000  Uiso   1.00
C980   C     0.76635   0.26334   0.39418   0.00000  Uiso   1.00
C981   C     0.73017   0.27564   0.35541   0.00000  Uiso   1.00
H982   H     0.69945   0.26816   0.36990   0.00000  Uiso   1.00
H983   H     0.73143   0.31124   0.34638   0.00000  Uiso   1.00
H984   H     0.73271   0.25592   0.65378   0.00000  Uiso   1.00
H985   H     0.79671   0.26923   0.37821   0.00000  Uiso   1.00
H986   H     0.76303   0.22737   0.40066   0.00000  Uiso   1.00
H987   H     0.75149   0.26799   0.47189   0.00000  Uiso   1.00
H988   H     0.73777   0.31193   0.44241   0.00000  Uiso   1.00
C989   C     0.78480   0.04730   0.41990   0.00000  Uiso   1.00
C990   C     0.80770   0.04305   0.37188   0.00000  Uiso   1.00
C991   C     0.78211   0.06399   0.66024   0.00000  Uiso   1.00
H992   H     0.75188   0.04617   0.65119   0.00000  Uiso   1.00
H993   H     0.77501   0.09912   0.33528   0.00000  Uiso   1.00
H994   H     0.79997   0.06222   0.62653   0.00000  Uiso   1.00
H995   H     0.83922   0.05890   0.37767   0.00000  Uiso   1.00
H996   H     0.81260   0.00767   0.36278   0.00000  Uiso   1.00
H997   H     0.75223   0.03594   0.41059   0.00000  Uiso   1.00
H998   H     0.77910   0.08193   0.42930   0.00000  Uiso   1.00
C999   C     0.88569   0.28466   0.57595   0.00000  Uiso   1.00
C1000  C     0.86886   0.28748   0.62823   0.00000  Uiso   1.00
C1001  C     0.89752   0.26289   0.33429   0.00000  Uiso   1.00
H1002  H     0.90198   0.22801   0.65552   0.00000  Uiso   1.00
H1003  H     0.92877   0.27938   0.34007   0.00000  Uiso   1.00
H1004  H     0.88320   0.26317   0.37070   0.00000  Uiso   1.00
H1005  H     0.86667   0.32195   0.64166   0.00000  Uiso   1.00
H1006  H     0.83662   0.27331   0.62630   0.00000  Uiso   1.00
H1007  H     0.88793   0.25005   0.56594   0.00000  Uiso   1.00
H1008  H     0.91906   0.29342   0.57712   0.00000  Uiso   1.00
C1009  C     0.08692   0.49968   0.50446   0.00000  Uiso   1.00
C1010  C     0.24574   0.50021   0.49336   0.00000  Uiso   1.00
C1011  C     0.16659   0.49980   0.40645   0.00000  Uiso   1.00
C1012  C     0.16707   0.50022   0.59358   0.00000  Uiso   1.00
C1013  C     0.16697   0.49978   0.35523   0.00000  Uiso   1.00
C1014  C     0.16707   0.50034   0.64484   0.00000  Uiso   1.00
C1015  C     0.01932   0.45821   0.49722   0.00000  Uiso   1.00
C1016  C     0.31243   0.54101   0.49252   0.00000  Uiso   1.00
C1017  C     0.31060   0.46087   0.47823   0.00000  Uiso   1.00
C1018  C     0.02033   0.53840   0.51374   0.00000  Uiso   1.00
C1019  C     0.28962   0.50126   0.48319   0.00000  Uiso   1.00
C1020  C     0.04189   0.49819   0.50915   0.00000  Uiso   1.00
C1021  C     0.19305   0.35784   0.53516   0.00000  Uiso   1.00
C1022  C     0.13857   0.64288   0.46760   0.00000  Uiso   1.00
C1023  C     0.14171   0.35691   0.46431   0.00000  Uiso   1.00
C1024  C     0.19246   0.64305   0.53537   0.00000  Uiso   1.00
N1025  N     0.16667   0.61907   0.50000   0.00000  Uiso   1.00
N1026  N     0.16667   0.38093   0.50000   0.00000  Uiso   1.00
O1027  O     0.10559   0.53821   0.50000   0.00000  Uiso   1.00
O1028  O     0.22774   0.46179   0.50000   0.00000  Uiso   1.00
O1029  O     0.22774   0.53821   0.50000   0.00000  Uiso   1.00
O1030  O     0.10559   0.46179   0.50000   0.00000  Uiso   1.00
O1031  O     0.16667   0.53821   0.42845   0.00000  Uiso   1.00
O1032  O     0.16666   0.46179   0.57155   0.00000  Uiso   1.00
O1033  O     0.16666   0.53821   0.57155   0.00000  Uiso   1.00
O1034  O     0.16667   0.46179   0.42845   0.00000  Uiso   1.00
Zn1035 Zn    0.16667   0.55104   0.50000   0.00000  Uiso   1.00
Zn1036 Zn    0.16667   0.44896   0.50000   0.00000  Uiso   1.00
C1037  C     0.03758   0.41291   0.50996   0.00000  Uiso   1.00
H1038  H     0.06072   0.41469   0.54382   0.00000  Uiso   1.00
H1039  H     0.01297   0.38958   0.51996   0.00000  Uiso   1.00
H1040  H     0.05206   0.39871   0.47731   0.00000  Uiso   1.00
C1041  C     0.29503   0.58583   0.47649   0.00000  Uiso   1.00
H1042  H     0.26710   0.58286   0.44851   0.00000  Uiso   1.00
H1043  H     0.28729   0.60555   0.50970   0.00000  Uiso   1.00
H1044  H     0.31887   0.60421   0.45714   0.00000  Uiso   1.00
C1045  C     0.28921   0.42179   0.44989   0.00000  Uiso   1.00
H1046  H     0.27822   0.39747   0.47647   0.00000  Uiso   1.00
H1047  H     0.26195   0.43274   0.42400   0.00000  Uiso   1.00
H1048  H     0.31134   0.40521   0.42588   0.00000  Uiso   1.00
C1049  C     0.03773   0.57598   0.54794   0.00000  Uiso   1.00
H1050  H     0.06910   0.56847   0.56740   0.00000  Uiso   1.00
H1051  H     0.03911   0.60744   0.52738   0.00000  Uiso   1.00
H1052  H     0.01625   0.58141   0.57791   0.00000  Uiso   1.00
C1053  C     0.22022   0.38461   0.57582   0.00000  Uiso   1.00
C1054  C     0.26752   0.37393   0.58669   0.00000  Uiso   1.00
C1055  C     0.29346   0.41473   0.60504   0.00000  Uiso   1.00
H1056  H     0.29179   0.44045   0.57570   0.00000  Uiso   1.00
H1057  H     0.28156   0.42886   0.63975   0.00000  Uiso   1.00
H1058  H     0.32694   0.40519   0.61385   0.00000  Uiso   1.00
H1059  H     0.27202   0.35045   0.61834   0.00000  Uiso   1.00
H1060  H     0.28032   0.35975   0.55262   0.00000  Uiso   1.00
H1061  H     0.22040   0.41820   0.56388   0.00000  Uiso   1.00
H1062  H     0.20502   0.38619   0.61140   0.00000  Uiso   1.00
C1063  C     0.09766   0.62177   0.44449   0.00000  Uiso   1.00
C1064  C     0.09969   0.59667   0.39418   0.00000  Uiso   1.00
C1065  C     0.06350   0.60897   0.35541   0.00000  Uiso   1.00
H1066  H     0.03278   0.60149   0.36990   0.00000  Uiso   1.00
H1067  H     0.06476   0.64457   0.34638   0.00000  Uiso   1.00
H1068  H     0.06605   0.58926   0.65378   0.00000  Uiso   1.00
H1069  H     0.13004   0.60256   0.37821   0.00000  Uiso   1.00
H1070  H     0.09637   0.56071   0.40066   0.00000  Uiso   1.00
H1071  H     0.08483   0.60132   0.47189   0.00000  Uiso   1.00
H1072  H     0.07111   0.64526   0.44241   0.00000  Uiso   1.00
C1073  C     0.11813   0.38064   0.41990   0.00000  Uiso   1.00
C1074  C     0.14104   0.37639   0.37188   0.00000  Uiso   1.00
C1075  C     0.11544   0.39732   0.66024   0.00000  Uiso   1.00
H1076  H     0.08522   0.37950   0.65119   0.00000  Uiso   1.00
H1077  H     0.10834   0.43246   0.33528   0.00000  Uiso   1.00
H1078  H     0.13330   0.39556   0.62653   0.00000  Uiso   1.00
H1079  H     0.17255   0.39224   0.37767   0.00000  Uiso   1.00
H1080  H     0.14594   0.34100   0.36278   0.00000  Uiso   1.00
H1081  H     0.08556   0.36928   0.41059   0.00000  Uiso   1.00
H1082  H     0.11244   0.41527   0.42930   0.00000  Uiso   1.00
C1083  C     0.21902   0.61800   0.57595   0.00000  Uiso   1.00
C1084  C     0.20219   0.62081   0.62823   0.00000  Uiso   1.00
C1085  C     0.23085   0.59622   0.33429   0.00000  Uiso   1.00
H1086  H     0.23531   0.56134   0.65552   0.00000  Uiso   1.00
H1087  H     0.26210   0.61271   0.34007   0.00000  Uiso   1.00
H1088  H     0.21653   0.59650   0.37070   0.00000  Uiso   1.00
H1089  H     0.20000   0.65528   0.64166   0.00000  Uiso   1.00
H1090  H     0.16996   0.60664   0.62630   0.00000  Uiso   1.00
H1091  H     0.22127   0.58338   0.56594   0.00000  Uiso   1.00
H1092  H     0.25239   0.62676   0.57712   0.00000  Uiso   1.00
C1093  C     0.42025   0.49968   0.50446   0.00000  Uiso   1.00
C1094  C     0.57908   0.50021   0.49336   0.00000  Uiso   1.00
C1095  C     0.49993   0.49980   0.40645   0.00000  Uiso   1.00
C1096  C     0.50040   0.50022   0.59358   0.00000  Uiso   1.00
C1097  C     0.50030   0.49978   0.35523   0.00000  Uiso   1.00
C1098  C     0.50041   0.50034   0.64484   0.00000  Uiso   1.00
C1099  C     0.35265   0.45821   0.49722   0.00000  Uiso   1.00
C1100  C     0.64576   0.54101   0.49252   0.00000  Uiso   1.00
C1101  C     0.64393   0.46087   0.47823   0.00000  Uiso   1.00
C1102  C     0.35366   0.53840   0.51374   0.00000  Uiso   1.00
C1103  C     0.62295   0.50126   0.48319   0.00000  Uiso   1.00
C1104  C     0.37523   0.49819   0.50915   0.00000  Uiso   1.00
C1105  C     0.52639   0.35784   0.53516   0.00000  Uiso   1.00
C1106  C     0.47191   0.64288   0.46760   0.00000  Uiso   1.00
C1107  C     0.47505   0.35691   0.46431   0.00000  Uiso   1.00
C1108  C     0.52579   0.64305   0.53537   0.00000  Uiso   1.00
N1109  N     0.50000   0.61907   0.50000   0.00000  Uiso   1.00
N1110  N     0.50000   0.38093   0.50000   0.00000  Uiso   1.00
O1111  O     0.43892   0.53821   0.50000   0.00000  Uiso   1.00
O1112  O     0.56108   0.46179   0.50000   0.00000  Uiso   1.00
O1113  O     0.56108   0.53821   0.50000   0.00000  Uiso   1.00
O1114  O     0.43892   0.46179   0.50000   0.00000  Uiso   1.00
O1115  O     0.50000   0.53821   0.42845   0.00000  Uiso   1.00
O1116  O     0.50000   0.46179   0.57155   0.00000  Uiso   1.00
O1117  O     0.50000   0.53821   0.57155   0.00000  Uiso   1.00
O1118  O     0.50000   0.46179   0.42845   0.00000  Uiso   1.00
Zn1119 Zn    0.50000   0.55104   0.50000   0.00000  Uiso   1.00
Zn1120 Zn    0.50000   0.44896   0.50000   0.00000  Uiso   1.00
C1121  C     0.37091   0.41291   0.50996   0.00000  Uiso   1.00
H1122  H     0.39405   0.41469   0.54382   0.00000  Uiso   1.00
H1123  H     0.34630   0.38958   0.51996   0.00000  Uiso   1.00
H1124  H     0.38539   0.39871   0.47731   0.00000  Uiso   1.00
C1125  C     0.62837   0.58583   0.47649   0.00000  Uiso   1.00
H1126  H     0.60043   0.58286   0.44851   0.00000  Uiso   1.00
H1127  H     0.62063   0.60555   0.50970   0.00000  Uiso   1.00
H1128  H     0.65220   0.60421   0.45714   0.00000  Uiso   1.00
C1129  C     0.62254   0.42179   0.44989   0.00000  Uiso   1.00
H1130  H     0.61155   0.39747   0.47647   0.00000  Uiso   1.00
H1131  H     0.59528   0.43274   0.42400   0.00000  Uiso   1.00
H1132  H     0.64468   0.40521   0.42588   0.00000  Uiso   1.00
C1133  C     0.37106   0.57598   0.54794   0.00000  Uiso   1.00
H1134  H     0.40244   0.56847   0.56740   0.00000  Uiso   1.00
H1135  H     0.37245   0.60744   0.52738   0.00000  Uiso   1.00
H1136  H     0.34958   0.58141   0.57791   0.00000  Uiso   1.00
C1137  C     0.55356   0.38461   0.57582   0.00000  Uiso   1.00
C1138  C     0.60085   0.37393   0.58669   0.00000  Uiso   1.00
C1139  C     0.62680   0.41473   0.60504   0.00000  Uiso   1.00
H1140  H     0.62512   0.44045   0.57570   0.00000  Uiso   1.00
H1141  H     0.61489   0.42886   0.63975   0.00000  Uiso   1.00
H1142  H     0.66027   0.40519   0.61385   0.00000  Uiso   1.00
H1143  H     0.60535   0.35045   0.61834   0.00000  Uiso   1.00
H1144  H     0.61365   0.35975   0.55262   0.00000  Uiso   1.00
H1145  H     0.55373   0.41820   0.56388   0.00000  Uiso   1.00
H1146  H     0.53835   0.38619   0.61140   0.00000  Uiso   1.00
C1147  C     0.43099   0.62177   0.44449   0.00000  Uiso   1.00
C1148  C     0.43302   0.59667   0.39418   0.00000  Uiso   1.00
C1149  C     0.39683   0.60897   0.35541   0.00000  Uiso   1.00
H1150  H     0.36612   0.60149   0.36990   0.00000  Uiso   1.00
H1151  H     0.39810   0.64457   0.34638   0.00000  Uiso   1.00
H1152  H     0.39938   0.58926   0.65378   0.00000  Uiso   1.00
H1153  H     0.46338   0.60256   0.37821   0.00000  Uiso   1.00
H1154  H     0.42970   0.56071   0.40066   0.00000  Uiso   1.00
H1155  H     0.41816   0.60132   0.47189   0.00000  Uiso   1.00
H1156  H     0.40444   0.64526   0.44241   0.00000  Uiso   1.00
C1157  C     0.45146   0.38064   0.41990   0.00000  Uiso   1.00
C1158  C     0.47437   0.37639   0.37188   0.00000  Uiso   1.00
C1159  C     0.44878   0.39732   0.66024   0.00000  Uiso   1.00
H1160  H     0.41855   0.37950   0.65119   0.00000  Uiso   1.00
H1161  H     0.44167   0.43246   0.33528   0.00000  Uiso   1.00
H1162  H     0.46663   0.39556   0.62653   0.00000  Uiso   1.00
H1163  H     0.50588   0.39224   0.37767   0.00000  Uiso   1.00
H1164  H     0.47927   0.34100   0.36278   0.00000  Uiso   1.00
H1165  H     0.41890   0.36928   0.41059   0.00000  Uiso   1.00
H1166  H     0.44577   0.41527   0.42930   0.00000  Uiso   1.00
C1167  C     0.55236   0.61800   0.57595   0.00000  Uiso   1.00
C1168  C     0.53552   0.62081   0.62823   0.00000  Uiso   1.00
C1169  C     0.56419   0.59622   0.33429   0.00000  Uiso   1.00
H1170  H     0.56865   0.56134   0.65552   0.00000  Uiso   1.00
H1171  H     0.59543   0.61271   0.34007   0.00000  Uiso   1.00
H1172  H     0.54986   0.59650   0.37070   0.00000  Uiso   1.00
H1173  H     0.53334   0.65528   0.64166   0.00000  Uiso   1.00
H1174  H     0.50329   0.60664   0.62630   0.00000  Uiso   1.00
H1175  H     0.55460   0.58338   0.56594   0.00000  Uiso   1.00
H1176  H     0.58572   0.62676   0.57712   0.00000  Uiso   1.00
C1177  C     0.75358   0.49968   0.50446   0.00000  Uiso   1.00
C1178  C     0.91241   0.50021   0.49336   0.00000  Uiso   1.00
C1179  C     0.83326   0.49980   0.40645   0.00000  Uiso   1.00
C1180  C     0.83373   0.50022   0.59358   0.00000  Uiso   1.00
C1181  C     0.83364   0.49978   0.35523   0.00000  Uiso   1.00
C1182  C     0.83374   0.50034   0.64484   0.00000  Uiso   1.00
C1183  C     0.68598   0.45821   0.49722   0.00000  Uiso   1.00
C1184  C     0.97909   0.54101   0.49252   0.00000  Uiso   1.00
C1185  C     0.97726   0.46087   0.47823   0.00000  Uiso   1.00
C1186  C     0.68699   0.53840   0.51374   0.00000  Uiso   1.00
C1187  C     0.95628   0.50126   0.48319   0.00000  Uiso   1.00
C1188  C     0.70856   0.49819   0.50915   0.00000  Uiso   1.00
C1189  C     0.85972   0.35784   0.53516   0.00000  Uiso   1.00
C1190  C     0.80524   0.64288   0.46760   0.00000  Uiso   1.00
C1191  C     0.80838   0.35691   0.46431   0.00000  Uiso   1.00
C1192  C     0.85913   0.64305   0.53537   0.00000  Uiso   1.00
N1193  N     0.83333   0.61907   0.50000   0.00000  Uiso   1.00
N1194  N     0.83333   0.38093   0.50000   0.00000  Uiso   1.00
O1195  O     0.77226   0.53821   0.50000   0.00000  Uiso   1.00
O1196  O     0.89441   0.46179   0.50000   0.00000  Uiso   1.00
O1197  O     0.89441   0.53821   0.50000   0.00000  Uiso   1.00
O1198  O     0.77226   0.46179   0.50000   0.00000  Uiso   1.00
O1199  O     0.83334   0.53821   0.42845   0.00000  Uiso   1.00
O1200  O     0.83333   0.46179   0.57155   0.00000  Uiso   1.00
O1201  O     0.83333   0.53821   0.57155   0.00000  Uiso   1.00
O1202  O     0.83334   0.46179   0.42845   0.00000  Uiso   1.00
Zn1203 Zn    0.83333   0.55104   0.50000   0.00000  Uiso   1.00
Zn1204 Zn    0.83333   0.44896   0.50000   0.00000  Uiso   1.00
C1205  C     0.70425   0.41291   0.50996   0.00000  Uiso   1.00
H1206  H     0.72739   0.41469   0.54382   0.00000  Uiso   1.00
H1207  H     0.67963   0.38958   0.51996   0.00000  Uiso   1.00
H1208  H     0.71873   0.39871   0.47731   0.00000  Uiso   1.00
C1209  C     0.96170   0.58583   0.47649   0.00000  Uiso   1.00
H1210  H     0.93376   0.58286   0.44851   0.00000  Uiso   1.00
H1211  H     0.95396   0.60555   0.50970   0.00000  Uiso   1.00
H1212  H     0.98553   0.60421   0.45714   0.00000  Uiso   1.00
C1213  C     0.95587   0.42179   0.44989   0.00000  Uiso   1.00
H1214  H     0.94489   0.39747   0.47647   0.00000  Uiso   1.00
H1215  H     0.92861   0.43274   0.42400   0.00000  Uiso   1.00
H1216  H     0.97801   0.40521   0.42588   0.00000  Uiso   1.00
C1217  C     0.70440   0.57598   0.54794   0.00000  Uiso   1.00
H1218  H     0.73577   0.56847   0.56740   0.00000  Uiso   1.00
H1219  H     0.70578   0.60744   0.52738   0.00000  Uiso   1.00
H1220  H     0.68292   0.58141   0.57791   0.00000  Uiso   1.00
C1221  C     0.88689   0.38461   0.57582   0.00000  Uiso   1.00
C1222  C     0.93419   0.37393   0.58669   0.00000  Uiso   1.00
C1223  C     0.96013   0.41473   0.60504   0.00000  Uiso   1.00
H1224  H     0.95845   0.44045   0.57570   0.00000  Uiso   1.00
H1225  H     0.94822   0.42886   0.63975   0.00000  Uiso   1.00
H1226  H     0.99361   0.40519   0.61385   0.00000  Uiso   1.00
H1227  H     0.93868   0.35045   0.61834   0.00000  Uiso   1.00
H1228  H     0.94698   0.35975   0.55262   0.00000  Uiso   1.00
H1229  H     0.88706   0.41820   0.56388   0.00000  Uiso   1.00
H1230  H     0.87169   0.38619   0.61140   0.00000  Uiso   1.00
C1231  C     0.76432   0.62177   0.44449   0.00000  Uiso   1.00
C1232  C     0.76635   0.59667   0.39418   0.00000  Uiso   1.00
C1233  C     0.73017   0.60897   0.35541   0.00000  Uiso   1.00
H1234  H     0.69945   0.60149   0.36990   0.00000  Uiso   1.00
H1235  H     0.73143   0.64457   0.34638   0.00000  Uiso   1.00
H1236  H     0.73271   0.58926   0.65378   0.00000  Uiso   1.00
H1237  H     0.79671   0.60256   0.37821   0.00000  Uiso   1.00
H1238  H     0.76303   0.56071   0.40066   0.00000  Uiso   1.00
H1239  H     0.75149   0.60132   0.47189   0.00000  Uiso   1.00
H1240  H     0.73777   0.64526   0.44241   0.00000  Uiso   1.00
C1241  C     0.78480   0.38064   0.41990   0.00000  Uiso   1.00
C1242  C     0.80770   0.37639   0.37188   0.00000  Uiso   1.00
C1243  C     0.78211   0.39732   0.66024   0.00000  Uiso   1.00
H1244  H     0.75188   0.37950   0.65119   0.00000  Uiso   1.00
H1245  H     0.77501   0.43246   0.33528   0.00000  Uiso   1.00
H1246  H     0.79997   0.39556   0.62653   0.00000  Uiso   1.00
H1247  H     0.83922   0.39224   0.37767   0.00000  Uiso   1.00
H1248  H     0.81260   0.34100   0.36278   0.00000  Uiso   1.00
H1249  H     0.75223   0.36928   0.41059   0.00000  Uiso   1.00
H1250  H     0.77910   0.41527   0.42930   0.00000  Uiso   1.00
C1251  C     0.88569   0.61800   0.57595   0.00000  Uiso   1.00
C1252  C     0.86886   0.62081   0.62823   0.00000  Uiso   1.00
C1253  C     0.89752   0.59622   0.33429   0.00000  Uiso   1.00
H1254  H     0.90198   0.56134   0.65552   0.00000  Uiso   1.00
H1255  H     0.92877   0.61271   0.34007   0.00000  Uiso   1.00
H1256  H     0.88320   0.59650   0.37070   0.00000  Uiso   1.00
H1257  H     0.86667   0.65528   0.64166   0.00000  Uiso   1.00
H1258  H     0.83662   0.60664   0.62630   0.00000  Uiso   1.00
H1259  H     0.88793   0.58338   0.56594   0.00000  Uiso   1.00
H1260  H     0.91906   0.62676   0.57712   0.00000  Uiso   1.00
C1261  C     0.08692   0.83302   0.50446   0.00000  Uiso   1.00
C1262  C     0.24574   0.83354   0.49336   0.00000  Uiso   1.00
C1263  C     0.16659   0.83313   0.40645   0.00000  Uiso   1.00
C1264  C     0.16707   0.83355   0.59358   0.00000  Uiso   1.00
C1265  C     0.16697   0.83312   0.35523   0.00000  Uiso   1.00
C1266  C     0.16707   0.83368   0.64484   0.00000  Uiso   1.00
C1267  C     0.01932   0.79155   0.49722   0.00000  Uiso   1.00
C1268  C     0.31243   0.87434   0.49252   0.00000  Uiso   1.00
C1269  C     0.31060   0.79421   0.47823   0.00000  Uiso   1.00
C1270  C     0.02033   0.87173   0.51374   0.00000  Uiso   1.00
C1271  C     0.28962   0.83460   0.48319   0.00000  Uiso   1.00
C1272  C     0.04189   0.83152   0.50915   0.00000  Uiso   1.00
C1273  C     0.19305   0.69117   0.53516   0.00000  Uiso   1.00
C1274  C     0.13857   0.97621   0.46760   0.00000  Uiso   1.00
C1275  C     0.14171   0.69025   0.46431   0.00000  Uiso   1.00
C1276  C     0.19246   0.97638   0.53537   0.00000  Uiso   1.00
N1277  N     0.16667   0.95240   0.50000   0.00000  Uiso   1.00
N1278  N     0.16667   0.71427   0.50000   0.00000  Uiso   1.00
O1279  O     0.10559   0.87154   0.50000   0.00000  Uiso   1.00
O1280  O     0.22774   0.79513   0.50000   0.00000  Uiso   1.00
O1281  O     0.22774   0.87154   0.50000   0.00000  Uiso   1.00
O1282  O     0.10559   0.79513   0.50000   0.00000  Uiso   1.00
O1283  O     0.16667   0.87155   0.42845   0.00000  Uiso   1.00
O1284  O     0.16666   0.79512   0.57155   0.00000  Uiso   1.00
O1285  O     0.16666   0.87155   0.57155   0.00000  Uiso   1.00
O1286  O     0.16667   0.79512   0.42845   0.00000  Uiso   1.00
Zn1287 Zn    0.16667   0.88437   0.50000   0.00000  Uiso   1.00
Zn1288 Zn    0.16667   0.78229   0.50000   0.00000  Uiso   1.00
C1289  C     0.03758   0.74625   0.50996   0.00000  Uiso   1.00
H1290  H     0.06072   0.74802   0.54382   0.00000  Uiso   1.00
H1291  H     0.01297   0.72292   0.51996   0.00000  Uiso   1.00
H1292  H     0.05206   0.73204   0.47731   0.00000  Uiso   1.00
C1293  C     0.29503   0.91916   0.47649   0.00000  Uiso   1.00
H1294  H     0.26710   0.91619   0.44851   0.00000  Uiso   1.00
H1295  H     0.28729   0.93888   0.50970   0.00000  Uiso   1.00
H1296  H     0.31887   0.93754   0.45714   0.00000  Uiso   1.00
C1297  C     0.28921   0.75513   0.44989   0.00000  Uiso   1.00
H1298  H     0.27822   0.73080   0.47647   0.00000  Uiso   1.00
H1299  H     0.26195   0.76607   0.42400   0.00000  Uiso   1.00
H1300  H     0.31134   0.73854   0.42588   0.00000  Uiso   1.00
C1301  C     0.03773   0.90932   0.54794   0.00000  Uiso   1.00
H1302  H     0.06910   0.90181   0.56740   0.00000  Uiso   1.00
H1303  H     0.03911   0.94078   0.52738   0.00000  Uiso   1.00
H1304  H     0.01625   0.91474   0.57791   0.00000  Uiso   1.00
C1305  C     0.22022   0.71794   0.57582   0.00000  Uiso   1.00
C1306  C     0.26752   0.70726   0.58669   0.00000  Uiso   1.00
C1307  C     0.29346   0.74806   0.60504   0.00000  Uiso   1.00
H1308  H     0.29179   0.77379   0.57570   0.00000  Uiso   1.00
H1309  H     0.28156   0.76220   0.63975   0.00000  Uiso   1.00
H1310  H     0.32694   0.73852   0.61385   0.00000  Uiso   1.00
H1311  H     0.27202   0.68378   0.61834   0.00000  Uiso   1.00
H1312  H     0.28032   0.69309   0.55262   0.00000  Uiso   1.00
H1313  H     0.22040   0.75153   0.56388   0.00000  Uiso   1.00
H1314  H     0.20502   0.71953   0.61140   0.00000  Uiso   1.00
C1315  C     0.09766   0.95511   0.44449   0.00000  Uiso   1.00
C1316  C     0.09969   0.93000   0.39418   0.00000  Uiso   1.00
C1317  C     0.06350   0.94231   0.35541   0.00000  Uiso   1.00
H1318  H     0.03278   0.93482   0.36990   0.00000  Uiso   1.00
H1319  H     0.06476   0.97790   0.34638   0.00000  Uiso   1.00
H1320  H     0.06605   0.92259   0.65378   0.00000  Uiso   1.00
H1321  H     0.13004   0.93590   0.37821   0.00000  Uiso   1.00
H1322  H     0.09637   0.89404   0.40066   0.00000  Uiso   1.00
H1323  H     0.08483   0.93466   0.47189   0.00000  Uiso   1.00
H1324  H     0.07111   0.97859   0.44241   0.00000  Uiso   1.00
C1325  C     0.11813   0.71397   0.41990   0.00000  Uiso   1.00
C1326  C     0.14104   0.70972   0.37188   0.00000  Uiso   1.00
C1327  C     0.11544   0.73065   0.66024   0.00000  Uiso   1.00
H1328  H     0.08522   0.71284   0.65119   0.00000  Uiso   1.00
H1329  H     0.10834   0.76579   0.33528   0.00000  Uiso   1.00
H1330  H     0.13330   0.72889   0.62653   0.00000  Uiso   1.00
H1331  H     0.17255   0.72557   0.37767   0.00000  Uiso   1.00
H1332  H     0.14594   0.67434   0.36278   0.00000  Uiso   1.00
H1333  H     0.08556   0.70261   0.41059   0.00000  Uiso   1.00
H1334  H     0.11244   0.74860   0.42930   0.00000  Uiso   1.00
C1335  C     0.21902   0.95133   0.57595   0.00000  Uiso   1.00
C1336  C     0.20219   0.95415   0.62823   0.00000  Uiso   1.00
C1337  C     0.23085   0.92955   0.33429   0.00000  Uiso   1.00
H1338  H     0.23531   0.89468   0.65552   0.00000  Uiso   1.00
H1339  H     0.26210   0.94604   0.34007   0.00000  Uiso   1.00
H1340  H     0.21653   0.92983   0.37070   0.00000  Uiso   1.00
H1341  H     0.20000   0.98862   0.64166   0.00000  Uiso   1.00
H1342  H     0.16996   0.93998   0.62630   0.00000  Uiso   1.00
H1343  H     0.22127   0.91671   0.56594   0.00000  Uiso   1.00
H1344  H     0.25239   0.96009   0.57712   0.00000  Uiso   1.00
C1345  C     0.42025   0.83302   0.50446   0.00000  Uiso   1.00
C1346  C     0.57908   0.83354   0.49336   0.00000  Uiso   1.00
C1347  C     0.49993   0.83313   0.40645   0.00000  Uiso   1.00
C1348  C     0.50040   0.83355   0.59358   0.00000  Uiso   1.00
C1349  C     0.50030   0.83312   0.35523   0.00000  Uiso   1.00
C1350  C     0.50041   0.83368   0.64484   0.00000  Uiso   1.00
C1351  C     0.35265   0.79155   0.49722   0.00000  Uiso   1.00
C1352  C     0.64576   0.87434   0.49252   0.00000  Uiso   1.00
C1353  C     0.64393   0.79421   0.47823   0.00000  Uiso   1.00
C1354  C     0.35366   0.87173   0.51374   0.00000  Uiso   1.00
C1355  C     0.62295   0.83460   0.48319   0.00000  Uiso   1.00
C1356  C     0.37523   0.83152   0.50915   0.00000  Uiso   1.00
C1357  C     0.52639   0.69117   0.53516   0.00000  Uiso   1.00
C1358  C     0.47191   0.97621   0.46760   0.00000  Uiso   1.00
C1359  C     0.47505   0.69025   0.46431   0.00000  Uiso   1.00
C1360  C     0.52579   0.97638   0.53537   0.00000  Uiso   1.00
N1361  N     0.50000   0.95240   0.50000   0.00000  Uiso   1.00
N1362  N     0.50000   0.71427   0.50000   0.00000  Uiso   1.00
O1363  O     0.43892   0.87154   0.50000   0.00000  Uiso   1.00
O1364  O     0.56108   0.79513   0.50000   0.00000  Uiso   1.00
O1365  O     0.56108   0.87154   0.50000   0.00000  Uiso   1.00
O1366  O     0.43892   0.79513   0.50000   0.00000  Uiso   1.00
O1367  O     0.50000   0.87155   0.42845   0.00000  Uiso   1.00
O1368  O     0.50000   0.79512   0.57155   0.00000  Uiso   1.00
O1369  O     0.50000   0.87155   0.57155   0.00000  Uiso   1.00
O1370  O     0.50000   0.79512   0.42845   0.00000  Uiso   1.00
Zn1371 Zn    0.50000   0.88437   0.50000   0.00000  Uiso   1.00
Zn1372 Zn    0.50000   0.78229   0.50000   0.00000  Uiso   1.00
C1373  C     0.37091   0.74625   0.50996   0.00000  Uiso   1.00
H1374  H     0.39405   0.74802   0.54382   0.00000  Uiso   1.00
H1375  H     0.34630   0.72292   0.51996   0.00000  Uiso   1.00
H1376  H     0.38539   0.73204   0.47731   0.00000  Uiso   1.00
C1377  C     0.62837   0.91916   0.47649   0.00000  Uiso   1.00
H1378  H     0.60043   0.91619   0.44851   0.00000  Uiso   1.00
H1379  H     0.62063   0.93888   0.50970   0.00000  Uiso   1.00
H1380  H     0.65220   0.93754   0.45714   0.00000  Uiso   1.00
C1381  C     0.62254   0.75513   0.44989   0.00000  Uiso   1.00
H1382  H     0.61155   0.73080   0.47647   0.00000  Uiso   1.00
H1383  H     0.59528   0.76607   0.42400   0.00000  Uiso   1.00
H1384  H     0.64468   0.73854   0.42588   0.00000  Uiso   1.00
C1385  C     0.37106   0.90932   0.54794   0.00000  Uiso   1.00
H1386  H     0.40244   0.90181   0.56740   0.00000  Uiso   1.00
H1387  H     0.37245   0.94078   0.52738   0.00000  Uiso   1.00
H1388  H     0.34958   0.91474   0.57791   0.00000  Uiso   1.00
C1389  C     0.55356   0.71794   0.57582   0.00000  Uiso   1.00
C1390  C     0.60085   0.70726   0.58669   0.00000  Uiso   1.00
C1391  C     0.62680   0.74806   0.60504   0.00000  Uiso   1.00
H1392  H     0.62512   0.77379   0.57570   0.00000  Uiso   1.00
H1393  H     0.61489   0.76220   0.63975   0.00000  Uiso   1.00
H1394  H     0.66027   0.73852   0.61385   0.00000  Uiso   1.00
H1395  H     0.60535   0.68378   0.61834   0.00000  Uiso   1.00
H1396  H     0.61365   0.69309   0.55262   0.00000  Uiso   1.00
H1397  H     0.55373   0.75153   0.56388   0.00000  Uiso   1.00
H1398  H     0.53835   0.71953   0.61140   0.00000  Uiso   1.00
C1399  C     0.43099   0.95511   0.44449   0.00000  Uiso   1.00
C1400  C     0.43302   0.93000   0.39418   0.00000  Uiso   1.00
C1401  C     0.39683   0.94231   0.35541   0.00000  Uiso   1.00
H1402  H     0.36612   0.93482   0.36990   0.00000  Uiso   1.00
H1403  H     0.39810   0.97790   0.34638   0.00000  Uiso   1.00
H1404  H     0.39938   0.92259   0.65378   0.00000  Uiso   1.00
H1405  H     0.46338   0.93590   0.37821   0.00000  Uiso   1.00
H1406  H     0.42970   0.89404   0.40066   0.00000  Uiso   1.00
H1407  H     0.41816   0.93466   0.47189   0.00000  Uiso   1.00
H1408  H     0.40444   0.97859   0.44241   0.00000  Uiso   1.00
C1409  C     0.45146   0.71397   0.41990   0.00000  Uiso   1.00
C1410  C     0.47437   0.70972   0.37188   0.00000  Uiso   1.00
C1411  C     0.44878   0.73065   0.66024   0.00000  Uiso   1.00
H1412  H     0.41855   0.71284   0.65119   0.00000  Uiso   1.00
H1413  H     0.44167   0.76579   0.33528   0.00000  Uiso   1.00
H1414  H     0.46663   0.72889   0.62653   0.00000  Uiso   1.00
H1415  H     0.50588   0.72557   0.37767   0.00000  Uiso   1.00
H1416  H     0.47927   0.67434   0.36278   0.00000  Uiso   1.00
H1417  H     0.41890   0.70261   0.41059   0.00000  Uiso   1.00
H1418  H     0.44577   0.74860   0.42930   0.00000  Uiso   1.00
C1419  C     0.55236   0.95133   0.57595   0.00000  Uiso   1.00
C1420  C     0.53552   0.95415   0.62823   0.00000  Uiso   1.00
C1421  C     0.56419   0.92955   0.33429   0.00000  Uiso   1.00
H1422  H     0.56865   0.89468   0.65552   0.00000  Uiso   1.00
H1423  H     0.59543   0.94604   0.34007   0.00000  Uiso   1.00
H1424  H     0.54986   0.92983   0.37070   0.00000  Uiso   1.00
H1425  H     0.53334   0.98862   0.64166   0.00000  Uiso   1.00
H1426  H     0.50329   0.93998   0.62630   0.00000  Uiso   1.00
H1427  H     0.55460   0.91671   0.56594   0.00000  Uiso   1.00
H1428  H     0.58572   0.96009   0.57712   0.00000  Uiso   1.00
C1429  C     0.75358   0.83302   0.50446   0.00000  Uiso   1.00
C1430  C     0.91241   0.83354   0.49336   0.00000  Uiso   1.00
C1431  C     0.83326   0.83313   0.40645   0.00000  Uiso   1.00
C1432  C     0.83373   0.83355   0.59358   0.00000  Uiso   1.00
C1433  C     0.83364   0.83312   0.35523   0.00000  Uiso   1.00
C1434  C     0.83374   0.83368   0.64484   0.00000  Uiso   1.00
C1435  C     0.68598   0.79155   0.49722   0.00000  Uiso   1.00
C1436  C     0.97909   0.87434   0.49252   0.00000  Uiso   1.00
C1437  C     0.97726   0.79421   0.47823   0.00000  Uiso   1.00
C1438  C     0.68699   0.87173   0.51374   0.00000  Uiso   1.00
C1439  C     0.95628   0.83460   0.48319   0.00000  Uiso   1.00
C1440  C     0.70856   0.83152   0.50915   0.00000  Uiso   1.00
C1441  C     0.85972   0.69117   0.53516   0.00000  Uiso   1.00
C1442  C     0.80524   0.97621   0.46760   0.00000  Uiso   1.00
C1443  C     0.80838   0.69025   0.46431   0.00000  Uiso   1.00
C1444  C     0.85913   0.97638   0.53537   0.00000  Uiso   1.00
N1445  N     0.83333   0.95240   0.50000   0.00000  Uiso   1.00
N1446  N     0.83333   0.71427   0.50000   0.00000  Uiso   1.00
O1447  O     0.77226   0.87154   0.50000   0.00000  Uiso   1.00
O1448  O     0.89441   0.79513   0.50000   0.00000  Uiso   1.00
O1449  O     0.89441   0.87154   0.50000   0.00000  Uiso   1.00
O1450  O     0.77226   0.79513   0.50000   0.00000  Uiso   1.00
O1451  O     0.83334   0.87155   0.42845   0.00000  Uiso   1.00
O1452  O     0.83333   0.79512   0.57155   0.00000  Uiso   1.00
O1453  O     0.83333   0.87155   0.57155   0.00000  Uiso   1.00
O1454  O     0.83334   0.79512   0.42845   0.00000  Uiso   1.00
Zn1455 Zn    0.83333   0.88437   0.50000   0.00000  Uiso   1.00
Zn1456 Zn    0.83333   0.78229   0.50000   0.00000  Uiso   1.00
C1457  C     0.70425   0.74625   0.50996   0.00000  Uiso   1.00
H1458  H     0.72739   0.74802   0.54382   0.00000  Uiso   1.00
H1459  H     0.67963   0.72292   0.51996   0.00000  Uiso   1.00
H1460  H     0.71873   0.73204   0.47731   0.00000  Uiso   1.00
C1461  C     0.96170   0.91916   0.47649   0.00000  Uiso   1.00
H1462  H     0.93376   0.91619   0.44851   0.00000  Uiso   1.00
H1463  H     0.95396   0.93888   0.50970   0.00000  Uiso   1.00
H1464  H     0.98553   0.93754   0.45714   0.00000  Uiso   1.00
C1465  C     0.95587   0.75513   0.44989   0.00000  Uiso   1.00
H1466  H     0.94489   0.73080   0.47647   0.00000  Uiso   1.00
H1467  H     0.92861   0.76607   0.42400   0.00000  Uiso   1.00
H1468  H     0.97801   0.73854   0.42588   0.00000  Uiso   1.00
C1469  C     0.70440   0.90932   0.54794   0.00000  Uiso   1.00
H1470  H     0.73577   0.90181   0.56740   0.00000  Uiso   1.00
H1471  H     0.70578   0.94078   0.52738   0.00000  Uiso   1.00
H1472  H     0.68292   0.91474   0.57791   0.00000  Uiso   1.00
C1473  C     0.88689   0.71794   0.57582   0.00000  Uiso   1.00
C1474  C     0.93419   0.70726   0.58669   0.00000  Uiso   1.00
C1475  C     0.96013   0.74806   0.60504   0.00000  Uiso   1.00
H1476  H     0.95845   0.77379   0.57570   0.00000  Uiso   1.00
H1477  H     0.94822   0.76220   0.63975   0.00000  Uiso   1.00
H1478  H     0.99361   0.73852   0.61385   0.00000  Uiso   1.00
H1479  H     0.93868   0.68378   0.61834   0.00000  Uiso   1.00
H1480  H     0.94698   0.69309   0.55262   0.00000  Uiso   1.00
H1481  H     0.88706   0.75153   0.56388   0.00000  Uiso   1.00
H1482  H     0.87169   0.71953   0.61140   0.00000  Uiso   1.00
C1483  C     0.76432   0.95511   0.44449   0.00000  Uiso   1.00
C1484  C     0.76635   0.93000   0.39418   0.00000  Uiso   1.00
C1485  C     0.73017   0.94231   0.35541   0.00000  Uiso   1.00
H1486  H     0.69945   0.93482   0.36990   0.00000  Uiso   1.00
H1487  H     0.73143   0.97790   0.34638   0.00000  Uiso   1.00
H1488  H     0.73271   0.92259   0.65378   0.00000  Uiso   1.00
H1489  H     0.79671   0.93590   0.37821   0.00000  Uiso   1.00
H1490  H     0.76303   0.89404   0.40066   0.00000  Uiso   1.00
H1491  H     0.75149   0.93466   0.47189   0.00000  Uiso   1.00
H1492  H     0.73777   0.97859   0.44241   0.00000  Uiso   1.00
C1493  C     0.78480   0.71397   0.41990   0.00000  Uiso   1.00
C1494  C     0.80770   0.70972   0.37188   0.00000  Uiso   1.00
C1495  C     0.78211   0.73065   0.66024   0.00000  Uiso   1.00
H1496  H     0.75188   0.71284   0.65119   0.00000  Uiso   1.00
H1497  H     0.77501   0.76579   0.33528   0.00000  Uiso   1.00
H1498  H     0.79997   0.72889   0.62653   0.00000  Uiso   1.00
H1499  H     0.83922   0.72557   0.37767   0.00000  Uiso   1.00
H1500  H     0.81260   0.67434   0.36278   0.00000  Uiso   1.00
H1501  H     0.75223   0.70261   0.41059   0.00000  Uiso   1.00
H1502  H     0.77910   0.74860   0.42930   0.00000  Uiso   1.00
C1503  C     0.88569   0.95133   0.57595   0.00000  Uiso   1.00
C1504  C     0.86886   0.95415   0.62823   0.00000  Uiso   1.00
C1505  C     0.89752   0.92955   0.33429   0.00000  Uiso   1.00
H1506  H     0.90198   0.89468   0.65552   0.00000  Uiso   1.00
H1507  H     0.92877   0.94604   0.34007   0.00000  Uiso   1.00
H1508  H     0.88320   0.92983   0.37070   0.00000  Uiso   1.00
H1509  H     0.86667   0.98862   0.64166   0.00000  Uiso   1.00
H1510  H     0.83662   0.93998   0.62630   0.00000  Uiso   1.00
H1511  H     0.88793   0.91671   0.56594   0.00000  Uiso   1.00
H1512  H     0.91906   0.96009   0.57712   0.00000  Uiso   1.00
C1513  C     0.08692   0.16635   0.83779   0.00000  Uiso   1.00
C1514  C     0.24574   0.16687   0.82669   0.00000  Uiso   1.00
C1515  C     0.16659   0.16646   0.73978   0.00000  Uiso   1.00
C1516  C     0.16707   0.16688   0.92691   0.00000  Uiso   1.00
C1517  C     0.16697   0.16645   0.68857   0.00000  Uiso   1.00
C1518  C     0.16707   0.16701   0.97818   0.00000  Uiso   1.00
C1519  C     0.01932   0.12488   0.83055   0.00000  Uiso   1.00
C1520  C     0.31243   0.20767   0.82585   0.00000  Uiso   1.00
C1521  C     0.31060   0.12754   0.81156   0.00000  Uiso   1.00
C1522  C     0.02033   0.20506   0.84708   0.00000  Uiso   1.00
C1523  C     0.28962   0.16793   0.81652   0.00000  Uiso   1.00
C1524  C     0.04189   0.16485   0.84248   0.00000  Uiso   1.00
C1525  C     0.19305   0.02450   0.86849   0.00000  Uiso   1.00
C1526  C     0.13857   0.30954   0.80094   0.00000  Uiso   1.00
C1527  C     0.14171   0.02358   0.79764   0.00000  Uiso   1.00
C1528  C     0.19246   0.30972   0.86871   0.00000  Uiso   1.00
N1529  N     0.16667   0.28573   0.83333   0.00000  Uiso   1.00
N1530  N     0.16667   0.04760   0.83333   0.00000  Uiso   1.00
O1531  O     0.10559   0.20487   0.83333   0.00000  Uiso   1.00
O1532  O     0.22774   0.12846   0.83334   0.00000  Uiso   1.00
O1533  O     0.22774   0.20487   0.83334   0.00000  Uiso   1.00
O1534  O     0.10559   0.12846   0.83333   0.00000  Uiso   1.00
O1535  O     0.16667   0.20488   0.76178   0.00000  Uiso   1.00
O1536  O     0.16666   0.12845   0.90489   0.00000  Uiso   1.00
O1537  O     0.16666   0.20488   0.90489   0.00000  Uiso   1.00
O1538  O     0.16667   0.12845   0.76178   0.00000  Uiso   1.00
Zn1539 Zn    0.16667   0.21771   0.83333   0.00000  Uiso   1.00
Zn1540 Zn    0.16667   0.11563   0.83333   0.00000  Uiso   1.00
C1541  C     0.03758   0.07958   0.84329   0.00000  Uiso   1.00
H1542  H     0.06072   0.08136   0.87715   0.00000  Uiso   1.00
H1543  H     0.01297   0.05625   0.85330   0.00000  Uiso   1.00
H1544  H     0.05206   0.06537   0.81064   0.00000  Uiso   1.00
C1545  C     0.29503   0.25250   0.80982   0.00000  Uiso   1.00
H1546  H     0.26710   0.24953   0.78185   0.00000  Uiso   1.00
H1547  H     0.28729   0.27222   0.84303   0.00000  Uiso   1.00
H1548  H     0.31887   0.27087   0.79048   0.00000  Uiso   1.00
C1549  C     0.28921   0.08846   0.78322   0.00000  Uiso   1.00
H1550  H     0.27822   0.06414   0.80981   0.00000  Uiso   1.00
H1551  H     0.26195   0.09940   0.75733   0.00000  Uiso   1.00
H1552  H     0.31134   0.07188   0.75921   0.00000  Uiso   1.00
C1553  C     0.03773   0.24265   0.88127   0.00000  Uiso   1.00
H1554  H     0.06910   0.23514   0.90073   0.00000  Uiso   1.00
H1555  H     0.03911   0.27411   0.86071   0.00000  Uiso   1.00
H1556  H     0.01625   0.24807   0.91125   0.00000  Uiso   1.00
C1557  C     0.22022   0.05127   0.90915   0.00000  Uiso   1.00
C1558  C     0.26752   0.04059   0.92003   0.00000  Uiso   1.00
C1559  C     0.29346   0.08140   0.93837   0.00000  Uiso   1.00
H1560  H     0.29179   0.10712   0.90903   0.00000  Uiso   1.00
H1561  H     0.28156   0.09553   0.97309   0.00000  Uiso   1.00
H1562  H     0.32694   0.07186   0.94718   0.00000  Uiso   1.00
H1563  H     0.27202   0.01712   0.95168   0.00000  Uiso   1.00
H1564  H     0.28032   0.02642   0.88595   0.00000  Uiso   1.00
H1565  H     0.22040   0.08487   0.89722   0.00000  Uiso   1.00
H1566  H     0.20502   0.05286   0.94474   0.00000  Uiso   1.00
C1567  C     0.09766   0.28844   0.77783   0.00000  Uiso   1.00
C1568  C     0.09969   0.26334   0.72751   0.00000  Uiso   1.00
C1569  C     0.06350   0.27564   0.68874   0.00000  Uiso   1.00
H1570  H     0.03278   0.26816   0.70323   0.00000  Uiso   1.00
H1571  H     0.06476   0.31124   0.67971   0.00000  Uiso   1.00
H1572  H     0.06605   0.25592   0.98711   0.00000  Uiso   1.00
H1573  H     0.13004   0.26923   0.71155   0.00000  Uiso   1.00
H1574  H     0.09637   0.22737   0.73400   0.00000  Uiso   1.00
H1575  H     0.08483   0.26799   0.80523   0.00000  Uiso   1.00
H1576  H     0.07111   0.31193   0.77574   0.00000  Uiso   1.00
C1577  C     0.11813   0.04730   0.75323   0.00000  Uiso   1.00
C1578  C     0.14104   0.04305   0.70522   0.00000  Uiso   1.00
C1579  C     0.11544   0.06399   0.99357   0.00000  Uiso   1.00
H1580  H     0.08522   0.04617   0.98452   0.00000  Uiso   1.00
H1581  H     0.10834   0.09912   0.66861   0.00000  Uiso   1.00
H1582  H     0.13330   0.06222   0.95987   0.00000  Uiso   1.00
H1583  H     0.17255   0.05890   0.71100   0.00000  Uiso   1.00
H1584  H     0.14594   0.00767   0.69611   0.00000  Uiso   1.00
H1585  H     0.08556   0.03594   0.74393   0.00000  Uiso   1.00
H1586  H     0.11244   0.08193   0.76263   0.00000  Uiso   1.00
C1587  C     0.21902   0.28466   0.90928   0.00000  Uiso   1.00
C1588  C     0.20219   0.28748   0.96156   0.00000  Uiso   1.00
C1589  C     0.23085   0.26289   0.66762   0.00000  Uiso   1.00
H1590  H     0.23531   0.22801   0.98885   0.00000  Uiso   1.00
H1591  H     0.26210   0.27938   0.67341   0.00000  Uiso   1.00
H1592  H     0.21653   0.26317   0.70403   0.00000  Uiso   1.00
H1593  H     0.20000   0.32195   0.97499   0.00000  Uiso   1.00
H1594  H     0.16996   0.27331   0.95963   0.00000  Uiso   1.00
H1595  H     0.22127   0.25005   0.89928   0.00000  Uiso   1.00
H1596  H     0.25239   0.29342   0.91046   0.00000  Uiso   1.00
C1597  C     0.42025   0.16635   0.83779   0.00000  Uiso   1.00
C1598  C     0.57908   0.16687   0.82669   0.00000  Uiso   1.00
C1599  C     0.49993   0.16646   0.73978   0.00000  Uiso   1.00
C1600  C     0.50040   0.16688   0.92691   0.00000  Uiso   1.00
C1601  C     0.50030   0.16645   0.68857   0.00000  Uiso   1.00
C1602  C     0.50041   0.16701   0.97818   0.00000  Uiso   1.00
C1603  C     0.35265   0.12488   0.83055   0.00000  Uiso   1.00
C1604  C     0.64576   0.20767   0.82585   0.00000  Uiso   1.00
C1605  C     0.64393   0.12754   0.81156   0.00000  Uiso   1.00
C1606  C     0.35366   0.20506   0.84708   0.00000  Uiso   1.00
C1607  C     0.62295   0.16793   0.81652   0.00000  Uiso   1.00
C1608  C     0.37523   0.16485   0.84248   0.00000  Uiso   1.00
C1609  C     0.52639   0.02450   0.86849   0.00000  Uiso   1.00
C1610  C     0.47191   0.30954   0.80094   0.00000  Uiso   1.00
C1611  C     0.47505   0.02358   0.79764   0.00000  Uiso   1.00
C1612  C     0.52579   0.30972   0.86871   0.00000  Uiso   1.00
N1613  N     0.50000   0.28573   0.83333   0.00000  Uiso   1.00
N1614  N     0.50000   0.04760   0.83333   0.00000  Uiso   1.00
O1615  O     0.43892   0.20487   0.83333   0.00000  Uiso   1.00
O1616  O     0.56108   0.12846   0.83334   0.00000  Uiso   1.00
O1617  O     0.56108   0.20487   0.83334   0.00000  Uiso   1.00
O1618  O     0.43892   0.12846   0.83333   0.00000  Uiso   1.00
O1619  O     0.50000   0.20488   0.76178   0.00000  Uiso   1.00
O1620  O     0.50000   0.12845   0.90489   0.00000  Uiso   1.00
O1621  O     0.50000   0.20488   0.90489   0.00000  Uiso   1.00
O1622  O     0.50000   0.12845   0.76178   0.00000  Uiso   1.00
Zn1623 Zn    0.50000   0.21771   0.83333   0.00000  Uiso   1.00
Zn1624 Zn    0.50000   0.11563   0.83333   0.00000  Uiso   1.00
C1625  C     0.37091   0.07958   0.84329   0.00000  Uiso   1.00
H1626  H     0.39405   0.08136   0.87715   0.00000  Uiso   1.00
H1627  H     0.34630   0.05625   0.85330   0.00000  Uiso   1.00
H1628  H     0.38539   0.06537   0.81064   0.00000  Uiso   1.00
C1629  C     0.62837   0.25250   0.80982   0.00000  Uiso   1.00
H1630  H     0.60043   0.24953   0.78185   0.00000  Uiso   1.00
H1631  H     0.62063   0.27222   0.84303   0.00000  Uiso   1.00
H1632  H     0.65220   0.27087   0.79048   0.00000  Uiso   1.00
C1633  C     0.62254   0.08846   0.78322   0.00000  Uiso   1.00
H1634  H     0.61155   0.06414   0.80981   0.00000  Uiso   1.00
H1635  H     0.59528   0.09940   0.75733   0.00000  Uiso   1.00
H1636  H     0.64468   0.07188   0.75921   0.00000  Uiso   1.00
C1637  C     0.37106   0.24265   0.88127   0.00000  Uiso   1.00
H1638  H     0.40244   0.23514   0.90073   0.00000  Uiso   1.00
H1639  H     0.37245   0.27411   0.86071   0.00000  Uiso   1.00
H1640  H     0.34958   0.24807   0.91125   0.00000  Uiso   1.00
C1641  C     0.55356   0.05127   0.90915   0.00000  Uiso   1.00
C1642  C     0.60085   0.04059   0.92003   0.00000  Uiso   1.00
C1643  C     0.62680   0.08140   0.93837   0.00000  Uiso   1.00
H1644  H     0.62512   0.10712   0.90903   0.00000  Uiso   1.00
H1645  H     0.61489   0.09553   0.97309   0.00000  Uiso   1.00
H1646  H     0.66027   0.07186   0.94718   0.00000  Uiso   1.00
H1647  H     0.60535   0.01712   0.95168   0.00000  Uiso   1.00
H1648  H     0.61365   0.02642   0.88595   0.00000  Uiso   1.00
H1649  H     0.55373   0.08487   0.89722   0.00000  Uiso   1.00
H1650  H     0.53835   0.05286   0.94474   0.00000  Uiso   1.00
C1651  C     0.43099   0.28844   0.77783   0.00000  Uiso   1.00
C1652  C     0.43302   0.26334   0.72751   0.00000  Uiso   1.00
C1653  C     0.39683   0.27564   0.68874   0.00000  Uiso   1.00
H1654  H     0.36612   0.26816   0.70323   0.00000  Uiso   1.00
H1655  H     0.39810   0.31124   0.67971   0.00000  Uiso   1.00
H1656  H     0.39938   0.25592   0.98711   0.00000  Uiso   1.00
H1657  H     0.46338   0.26923   0.71155   0.00000  Uiso   1.00
H1658  H     0.42970   0.22737   0.73400   0.00000  Uiso   1.00
H1659  H     0.41816   0.26799   0.80523   0.00000  Uiso   1.00
H1660  H     0.40444   0.31193   0.77574   0.00000  Uiso   1.00
C1661  C     0.45146   0.04730   0.75323   0.00000  Uiso   1.00
C1662  C     0.47437   0.04305   0.70522   0.00000  Uiso   1.00
C1663  C     0.44878   0.06399   0.99357   0.00000  Uiso   1.00
H1664  H     0.41855   0.04617   0.98452   0.00000  Uiso   1.00
H1665  H     0.44167   0.09912   0.66861   0.00000  Uiso   1.00
H1666  H     0.46663   0.06222   0.95987   0.00000  Uiso   1.00
H1667  H     0.50588   0.05890   0.71100   0.00000  Uiso   1.00
H1668  H     0.47927   0.00767   0.69611   0.00000  Uiso   1.00
H1669  H     0.41890   0.03594   0.74393   0.00000  Uiso   1.00
H1670  H     0.44577   0.08193   0.76263   0.00000  Uiso   1.00
C1671  C     0.55236   0.28466   0.90928   0.00000  Uiso   1.00
C1672  C     0.53552   0.28748   0.96156   0.00000  Uiso   1.00
C1673  C     0.56419   0.26289   0.66762   0.00000  Uiso   1.00
H1674  H     0.56865   0.22801   0.98885   0.00000  Uiso   1.00
H1675  H     0.59543   0.27938   0.67341   0.00000  Uiso   1.00
H1676  H     0.54986   0.26317   0.70403   0.00000  Uiso   1.00
H1677  H     0.53334   0.32195   0.97499   0.00000  Uiso   1.00
H1678  H     0.50329   0.27331   0.95963   0.00000  Uiso   1.00
H1679  H     0.55460   0.25005   0.89928   0.00000  Uiso   1.00
H1680  H     0.58572   0.29342   0.91046   0.00000  Uiso   1.00
C1681  C     0.75358   0.16635   0.83779   0.00000  Uiso   1.00
C1682  C     0.91241   0.16687   0.82669   0.00000  Uiso   1.00
C1683  C     0.83326   0.16646   0.73978   0.00000  Uiso   1.00
C1684  C     0.83373   0.16688   0.92691   0.00000  Uiso   1.00
C1685  C     0.83364   0.16645   0.68857   0.00000  Uiso   1.00
C1686  C     0.83374   0.16701   0.97818   0.00000  Uiso   1.00
C1687  C     0.68598   0.12488   0.83055   0.00000  Uiso   1.00
C1688  C     0.97909   0.20767   0.82585   0.00000  Uiso   1.00
C1689  C     0.97726   0.12754   0.81156   0.00000  Uiso   1.00
C1690  C     0.68699   0.20506   0.84708   0.00000  Uiso   1.00
C1691  C     0.95628   0.16793   0.81652   0.00000  Uiso   1.00
C1692  C     0.70856   0.16485   0.84248   0.00000  Uiso   1.00
C1693  C     0.85972   0.02450   0.86849   0.00000  Uiso   1.00
C1694  C     0.80524   0.30954   0.80094   0.00000  Uiso   1.00
C1695  C     0.80838   0.02358   0.79764   0.00000  Uiso   1.00
C1696  C     0.85913   0.30972   0.86871   0.00000  Uiso   1.00
N1697  N     0.83333   0.28573   0.83333   0.00000  Uiso   1.00
N1698  N     0.83333   0.04760   0.83333   0.00000  Uiso   1.00
O1699  O     0.77226   0.20487   0.83333   0.00000  Uiso   1.00
O1700  O     0.89441   0.12846   0.83334   0.00000  Uiso   1.00
O1701  O     0.89441   0.20487   0.83334   0.00000  Uiso   1.00
O1702  O     0.77226   0.12846   0.83333   0.00000  Uiso   1.00
O1703  O     0.83334   0.20488   0.76178   0.00000  Uiso   1.00
O1704  O     0.83333   0.12845   0.90489   0.00000  Uiso   1.00
O1705  O     0.83333   0.20488   0.90489   0.00000  Uiso   1.00
O1706  O     0.83334   0.12845   0.76178   0.00000  Uiso   1.00
Zn1707 Zn    0.83333   0.21771   0.83333   0.00000  Uiso   1.00
Zn1708 Zn    0.83333   0.11563   0.83333   0.00000  Uiso   1.00
C1709  C     0.70425   0.07958   0.84329   0.00000  Uiso   1.00
H1710  H     0.72739   0.08136   0.87715   0.00000  Uiso   1.00
H1711  H     0.67963   0.05625   0.85330   0.00000  Uiso   1.00
H1712  H     0.71873   0.06537   0.81064   0.00000  Uiso   1.00
C1713  C     0.96170   0.25250   0.80982   0.00000  Uiso   1.00
H1714  H     0.93376   0.24953   0.78185   0.00000  Uiso   1.00
H1715  H     0.95396   0.27222   0.84303   0.00000  Uiso   1.00
H1716  H     0.98553   0.27087   0.79048   0.00000  Uiso   1.00
C1717  C     0.95587   0.08846   0.78322   0.00000  Uiso   1.00
H1718  H     0.94489   0.06414   0.80981   0.00000  Uiso   1.00
H1719  H     0.92861   0.09940   0.75733   0.00000  Uiso   1.00
H1720  H     0.97801   0.07188   0.75921   0.00000  Uiso   1.00
C1721  C     0.70440   0.24265   0.88127   0.00000  Uiso   1.00
H1722  H     0.73577   0.23514   0.90073   0.00000  Uiso   1.00
H1723  H     0.70578   0.27411   0.86071   0.00000  Uiso   1.00
H1724  H     0.68292   0.24807   0.91125   0.00000  Uiso   1.00
C1725  C     0.88689   0.05127   0.90915   0.00000  Uiso   1.00
C1726  C     0.93419   0.04059   0.92003   0.00000  Uiso   1.00
C1727  C     0.96013   0.08140   0.93837   0.00000  Uiso   1.00
H1728  H     0.95845   0.10712   0.90903   0.00000  Uiso   1.00
H1729  H     0.94822   0.09553   0.97309   0.00000  Uiso   1.00
H1730  H     0.99361   0.07186   0.94718   0.00000  Uiso   1.00
H1731  H     0.93868   0.01712   0.95168   0.00000  Uiso   1.00
H1732  H     0.94698   0.02642   0.88595   0.00000  Uiso   1.00
H1733  H     0.88706   0.08487   0.89722   0.00000  Uiso   1.00
H1734  H     0.87169   0.05286   0.94474   0.00000  Uiso   1.00
C1735  C     0.76432   0.28844   0.77783   0.00000  Uiso   1.00
C1736  C     0.76635   0.26334   0.72751   0.00000  Uiso   1.00
C1737  C     0.73017   0.27564   0.68874   0.00000  Uiso   1.00
H1738  H     0.69945   0.26816   0.70323   0.00000  Uiso   1.00
H1739  H     0.73143   0.31124   0.67971   0.00000  Uiso   1.00
H1740  H     0.73271   0.25592   0.98711   0.00000  Uiso   1.00
H1741  H     0.79671   0.26923   0.71155   0.00000  Uiso   1.00
H1742  H     0.76303   0.22737   0.73400   0.00000  Uiso   1.00
H1743  H     0.75149   0.26799   0.80523   0.00000  Uiso   1.00
H1744  H     0.73777   0.31193   0.77574   0.00000  Uiso   1.00
C1745  C     0.78480   0.04730   0.75323   0.00000  Uiso   1.00
C1746  C     0.80770   0.04305   0.70522   0.00000  Uiso   1.00
C1747  C     0.78211   0.06399   0.99357   0.00000  Uiso   1.00
H1748  H     0.75188   0.04617   0.98452   0.00000  Uiso   1.00
H1749  H     0.77501   0.09912   0.66861   0.00000  Uiso   1.00
H1750  H     0.79997   0.06222   0.95987   0.00000  Uiso   1.00
H1751  H     0.83922   0.05890   0.71100   0.00000  Uiso   1.00
H1752  H     0.81260   0.00767   0.69611   0.00000  Uiso   1.00
H1753  H     0.75223   0.03594   0.74393   0.00000  Uiso   1.00
H1754  H     0.77910   0.08193   0.76263   0.00000  Uiso   1.00
C1755  C     0.88569   0.28466   0.90928   0.00000  Uiso   1.00
C1756  C     0.86886   0.28748   0.96156   0.00000  Uiso   1.00
C1757  C     0.89752   0.26289   0.66762   0.00000  Uiso   1.00
H1758  H     0.90198   0.22801   0.98885   0.00000  Uiso   1.00
H1759  H     0.92877   0.27938   0.67341   0.00000  Uiso   1.00
H1760  H     0.88320   0.26317   0.70403   0.00000  Uiso   1.00
H1761  H     0.86667   0.32195   0.97499   0.00000  Uiso   1.00
H1762  H     0.83662   0.27331   0.95963   0.00000  Uiso   1.00
H1763  H     0.88793   0.25005   0.89928   0.00000  Uiso   1.00
H1764  H     0.91906   0.29342   0.91046   0.00000  Uiso   1.00
C1765  C     0.08692   0.49968   0.83779   0.00000  Uiso   1.00
C1766  C     0.24574   0.50021   0.82669   0.00000  Uiso   1.00
C1767  C     0.16659   0.49980   0.73978   0.00000  Uiso   1.00
C1768  C     0.16707   0.50022   0.92691   0.00000  Uiso   1.00
C1769  C     0.16697   0.49978   0.68857   0.00000  Uiso   1.00
C1770  C     0.16707   0.50034   0.97818   0.00000  Uiso   1.00
C1771  C     0.01932   0.45821   0.83055   0.00000  Uiso   1.00
C1772  C     0.31243   0.54101   0.82585   0.00000  Uiso   1.00
C1773  C     0.31060   0.46087   0.81156   0.00000  Uiso   1.00
C1774  C     0.02033   0.53840   0.84708   0.00000  Uiso   1.00
C1775  C     0.28962   0.50126   0.81652   0.00000  Uiso   1.00
C1776  C     0.04189   0.49819   0.84248   0.00000  Uiso   1.00
C1777  C     0.19305   0.35784   0.86849   0.00000  Uiso   1.00
C1778  C     0.13857   0.64288   0.80094   0.00000  Uiso   1.00
C1779  C     0.14171   0.35691   0.79764   0.00000  Uiso   1.00
C1780  C     0.19246   0.64305   0.86871   0.00000  Uiso   1.00
N1781  N     0.16667   0.61907   0.83333   0.00000  Uiso   1.00
N1782  N     0.16667   0.38093   0.83333   0.00000  Uiso   1.00
O1783  O     0.10559   0.53821   0.83333   0.00000  Uiso   1.00
O1784  O     0.22774   0.46179   0.83334   0.00000  Uiso   1.00
O1785  O     0.22774   0.53821   0.83334   0.00000  Uiso   1.00
O1786  O     0.10559   0.46179   0.83333   0.00000  Uiso   1.00
O1787  O     0.16667   0.53821   0.76178   0.00000  Uiso   1.00
O1788  O     0.16666   0.46179   0.90489   0.00000  Uiso   1.00
O1789  O     0.16666   0.53821   0.90489   0.00000  Uiso   1.00
O1790  O     0.16667   0.46179   0.76178   0.00000  Uiso   1.00
Zn1791 Zn    0.16667   0.55104   0.83333   0.00000  Uiso   1.00
Zn1792 Zn    0.16667   0.44896   0.83333   0.00000  Uiso   1.00
C1793  C     0.03758   0.41291   0.84329   0.00000  Uiso   1.00
H1794  H     0.06072   0.41469   0.87715   0.00000  Uiso   1.00
H1795  H     0.01297   0.38958   0.85330   0.00000  Uiso   1.00
H1796  H     0.05206   0.39871   0.81064   0.00000  Uiso   1.00
C1797  C     0.29503   0.58583   0.80982   0.00000  Uiso   1.00
H1798  H     0.26710   0.58286   0.78185   0.00000  Uiso   1.00
H1799  H     0.28729   0.60555   0.84303   0.00000  Uiso   1.00
H1800  H     0.31887   0.60421   0.79048   0.00000  Uiso   1.00
C1801  C     0.28921   0.42179   0.78322   0.00000  Uiso   1.00
H1802  H     0.27822   0.39747   0.80981   0.00000  Uiso   1.00
H1803  H     0.26195   0.43274   0.75733   0.00000  Uiso   1.00
H1804  H     0.31134   0.40521   0.75921   0.00000  Uiso   1.00
C1805  C     0.03773   0.57598   0.88127   0.00000  Uiso   1.00
H1806  H     0.06910   0.56847   0.90073   0.00000  Uiso   1.00
H1807  H     0.03911   0.60744   0.86071   0.00000  Uiso   1.00
H1808  H     0.01625   0.58141   0.91125   0.00000  Uiso   1.00
C1809  C     0.22022   0.38461   0.90915   0.00000  Uiso   1.00
C1810  C     0.26752   0.37393   0.92003   0.00000  Uiso   1.00
C1811  C     0.29346   0.41473   0.93837   0.00000  Uiso   1.00
H1812  H     0.29179   0.44045   0.90903   0.00000  Uiso   1.00
H1813  H     0.28156   0.42886   0.97309   0.00000  Uiso   1.00
H1814  H     0.32694   0.40519   0.94718   0.00000  Uiso   1.00
H1815  H     0.27202   0.35045   0.95168   0.00000  Uiso   1.00
H1816  H     0.28032   0.35975   0.88595   0.00000  Uiso   1.00
H1817  H     0.22040   0.41820   0.89722   0.00000  Uiso   1.00
H1818  H     0.20502   0.38619   0.94474   0.00000  Uiso   1.00
C1819  C     0.09766   0.62177   0.77783   0.00000  Uiso   1.00
C1820  C     0.09969   0.59667   0.72751   0.00000  Uiso   1.00
C1821  C     0.06350   0.60897   0.68874   0.00000  Uiso   1.00
H1822  H     0.03278   0.60149   0.70323   0.00000  Uiso   1.00
H1823  H     0.06476   0.64457   0.67971   0.00000  Uiso   1.00
H1824  H     0.06605   0.58926   0.98711   0.00000  Uiso   1.00
H1825  H     0.13004   0.60256   0.71155   0.00000  Uiso   1.00
H1826  H     0.09637   0.56071   0.73400   0.00000  Uiso   1.00
H1827  H     0.08483   0.60132   0.80523   0.00000  Uiso   1.00
H1828  H     0.07111   0.64526   0.77574   0.00000  Uiso   1.00
C1829  C     0.11813   0.38064   0.75323   0.00000  Uiso   1.00
C1830  C     0.14104   0.37639   0.70522   0.00000  Uiso   1.00
C1831  C     0.11544   0.39732   0.99357   0.00000  Uiso   1.00
H1832  H     0.08522   0.37950   0.98452   0.00000  Uiso   1.00
H1833  H     0.10834   0.43246   0.66861   0.00000  Uiso   1.00
H1834  H     0.13330   0.39556   0.95987   0.00000  Uiso   1.00
H1835  H     0.17255   0.39224   0.71100   0.00000  Uiso   1.00
H1836  H     0.14594   0.34100   0.69611   0.00000  Uiso   1.00
H1837  H     0.08556   0.36928   0.74393   0.00000  Uiso   1.00
H1838  H     0.11244   0.41527   0.76263   0.00000  Uiso   1.00
C1839  C     0.21902   0.61800   0.90928   0.00000  Uiso   1.00
C1840  C     0.20219   0.62081   0.96156   0.00000  Uiso   1.00
C1841  C     0.23085   0.59622   0.66762   0.00000  Uiso   1.00
H1842  H     0.23531   0.56134   0.98885   0.00000  Uiso   1.00
H1843  H     0.26210   0.61271   0.67341   0.00000  Uiso   1.00
H1844  H     0.21653   0.59650   0.70403   0.00000  Uiso   1.00
H1845  H     0.20000   0.65528   0.97499   0.00000  Uiso   1.00
H1846  H     0.16996   0.60664   0.95963   0.00000  Uiso   1.00
H1847  H     0.22127   0.58338   0.89928   0.00000  Uiso   1.00
H1848  H     0.25239   0.62676   0.91046   0.00000  Uiso   1.00
C1849  C     0.42025   0.49968   0.83779   0.00000  Uiso   1.00
C1850  C     0.57908   0.50021   0.82669   0.00000  Uiso   1.00
C1851  C     0.49993   0.49980   0.73978   0.00000  Uiso   1.00
C1852  C     0.50040   0.50022   0.92691   0.00000  Uiso   1.00
C1853  C     0.50030   0.49978   0.68857   0.00000  Uiso   1.00
C1854  C     0.50041   0.50034   0.97818   0.00000  Uiso   1.00
C1855  C     0.35265   0.45821   0.83055   0.00000  Uiso   1.00
C1856  C     0.64576   0.54101   0.82585   0.00000  Uiso   1.00
C1857  C     0.64393   0.46087   0.81156   0.00000  Uiso   1.00
C1858  C     0.35366   0.53840   0.84708   0.00000  Uiso   1.00
C1859  C     0.62295   0.50126   0.81652   0.00000  Uiso   1.00
C1860  C     0.37523   0.49819   0.84248   0.00000  Uiso   1.00
C1861  C     0.52639   0.35784   0.86849   0.00000  Uiso   1.00
C1862  C     0.47191   0.64288   0.80094   0.00000  Uiso   1.00
C1863  C     0.47505   0.35691   0.79764   0.00000  Uiso   1.00
C1864  C     0.52579   0.64305   0.86871   0.00000  Uiso   1.00
N1865  N     0.50000   0.61907   0.83333   0.00000  Uiso   1.00
N1866  N     0.50000   0.38093   0.83333   0.00000  Uiso   1.00
O1867  O     0.43892   0.53821   0.83333   0.00000  Uiso   1.00
O1868  O     0.56108   0.46179   0.83334   0.00000  Uiso   1.00
O1869  O     0.56108   0.53821   0.83334   0.00000  Uiso   1.00
O1870  O     0.43892   0.46179   0.83333   0.00000  Uiso   1.00
O1871  O     0.50000   0.53821   0.76178   0.00000  Uiso   1.00
O1872  O     0.50000   0.46179   0.90489   0.00000  Uiso   1.00
O1873  O     0.50000   0.53821   0.90489   0.00000  Uiso   1.00
O1874  O     0.50000   0.46179   0.76178   0.00000  Uiso   1.00
Zn1875 Zn    0.50000   0.55104   0.83333   0.00000  Uiso   1.00
Zn1876 Zn    0.50000   0.44896   0.83333   0.00000  Uiso   1.00
C1877  C     0.37091   0.41291   0.84329   0.00000  Uiso   1.00
H1878  H     0.39405   0.41469   0.87715   0.00000  Uiso   1.00
H1879  H     0.34630   0.38958   0.85330   0.00000  Uiso   1.00
H1880  H     0.38539   0.39871   0.81064   0.00000  Uiso   1.00
C1881  C     0.62837   0.58583   0.80982   0.00000  Uiso   1.00
H1882  H     0.60043   0.58286   0.78185   0.00000  Uiso   1.00
H1883  H     0.62063   0.60555   0.84303   0.00000  Uiso   1.00
H1884  H     0.65220   0.60421   0.79048   0.00000  Uiso   1.00
C1885  C     0.62254   0.42179   0.78322   0.00000  Uiso   1.00
H1886  H     0.61155   0.39747   0.80981   0.00000  Uiso   1.00
H1887  H     0.59528   0.43274   0.75733   0.00000  Uiso   1.00
H1888  H     0.64468   0.40521   0.75921   0.00000  Uiso   1.00
C1889  C     0.37106   0.57598   0.88127   0.00000  Uiso   1.00
H1890  H     0.40244   0.56847   0.90073   0.00000  Uiso   1.00
H1891  H     0.37245   0.60744   0.86071   0.00000  Uiso   1.00
H1892  H     0.34958   0.58141   0.91125   0.00000  Uiso   1.00
C1893  C     0.55356   0.38461   0.90915   0.00000  Uiso   1.00
C1894  C     0.60085   0.37393   0.92003   0.00000  Uiso   1.00
C1895  C     0.62680   0.41473   0.93837   0.00000  Uiso   1.00
H1896  H     0.62512   0.44045   0.90903   0.00000  Uiso   1.00
H1897  H     0.61489   0.42886   0.97309   0.00000  Uiso   1.00
H1898  H     0.66027   0.40519   0.94718   0.00000  Uiso   1.00
H1899  H     0.60535   0.35045   0.95168   0.00000  Uiso   1.00
H1900  H     0.61365   0.35975   0.88595   0.00000  Uiso   1.00
H1901  H     0.55373   0.41820   0.89722   0.00000  Uiso   1.00
H1902  H     0.53835   0.38619   0.94474   0.00000  Uiso   1.00
C1903  C     0.43099   0.62177   0.77783   0.00000  Uiso   1.00
C1904  C     0.43302   0.59667   0.72751   0.00000  Uiso   1.00
C1905  C     0.39683   0.60897   0.68874   0.00000  Uiso   1.00
H1906  H     0.36612   0.60149   0.70323   0.00000  Uiso   1.00
H1907  H     0.39810   0.64457   0.67971   0.00000  Uiso   1.00
H1908  H     0.39938   0.58926   0.98711   0.00000  Uiso   1.00
H1909  H     0.46338   0.60256   0.71155   0.00000  Uiso   1.00
H1910  H     0.42970   0.56071   0.73400   0.00000  Uiso   1.00
H1911  H     0.41816   0.60132   0.80523   0.00000  Uiso   1.00
H1912  H     0.40444   0.64526   0.77574   0.00000  Uiso   1.00
C1913  C     0.45146   0.38064   0.75323   0.00000  Uiso   1.00
C1914  C     0.47437   0.37639   0.70522   0.00000  Uiso   1.00
C1915  C     0.44878   0.39732   0.99357   0.00000  Uiso   1.00
H1916  H     0.41855   0.37950   0.98452   0.00000  Uiso   1.00
H1917  H     0.44167   0.43246   0.66861   0.00000  Uiso   1.00
H1918  H     0.46663   0.39556   0.95987   0.00000  Uiso   1.00
H1919  H     0.50588   0.39224   0.71100   0.00000  Uiso   1.00
H1920  H     0.47927   0.34100   0.69611   0.00000  Uiso   1.00
H1921  H     0.41890   0.36928   0.74393   0.00000  Uiso   1.00
H1922  H     0.44577   0.41527   0.76263   0.00000  Uiso   1.00
C1923  C     0.55236   0.61800   0.90928   0.00000  Uiso   1.00
C1924  C     0.53552   0.62081   0.96156   0.00000  Uiso   1.00
C1925  C     0.56419   0.59622   0.66762   0.00000  Uiso   1.00
H1926  H     0.56865   0.56134   0.98885   0.00000  Uiso   1.00
H1927  H     0.59543   0.61271   0.67341   0.00000  Uiso   1.00
H1928  H     0.54986   0.59650   0.70403   0.00000  Uiso   1.00
H1929  H     0.53334   0.65528   0.97499   0.00000  Uiso   1.00
H1930  H     0.50329   0.60664   0.95963   0.00000  Uiso   1.00
H1931  H     0.55460   0.58338   0.89928   0.00000  Uiso   1.00
H1932  H     0.58572   0.62676   0.91046   0.00000  Uiso   1.00
C1933  C     0.75358   0.49968   0.83779   0.00000  Uiso   1.00
C1934  C     0.91241   0.50021   0.82669   0.00000  Uiso   1.00
C1935  C     0.83326   0.49980   0.73978   0.00000  Uiso   1.00
C1936  C     0.83373   0.50022   0.92691   0.00000  Uiso   1.00
C1937  C     0.83364   0.49978   0.68857   0.00000  Uiso   1.00
C1938  C     0.83374   0.50034   0.97818   0.00000  Uiso   1.00
C1939  C     0.68598   0.45821   0.83055   0.00000  Uiso   1.00
C1940  C     0.97909   0.54101   0.82585   0.00000  Uiso   1.00
C1941  C     0.97726   0.46087   0.81156   0.00000  Uiso   1.00
C1942  C     0.68699   0.53840   0.84708   0.00000  Uiso   1.00
C1943  C     0.95628   0.50126   0.81652   0.00000  Uiso   1.00
C1944  C     0.70856   0.49819   0.84248   0.00000  Uiso   1.00
C1945  C     0.85972   0.35784   0.86849   0.00000  Uiso   1.00
C1946  C     0.80524   0.64288   0.80094   0.00000  Uiso   1.00
C1947  C     0.80838   0.35691   0.79764   0.00000  Uiso   1.00
C1948  C     0.85913   0.64305   0.86871   0.00000  Uiso   1.00
N1949  N     0.83333   0.61907   0.83333   0.00000  Uiso   1.00
N1950  N     0.83333   0.38093   0.83333   0.00000  Uiso   1.00
O1951  O     0.77226   0.53821   0.83333   0.00000  Uiso   1.00
O1952  O     0.89441   0.46179   0.83334   0.00000  Uiso   1.00
O1953  O     0.89441   0.53821   0.83334   0.00000  Uiso   1.00
O1954  O     0.77226   0.46179   0.83333   0.00000  Uiso   1.00
O1955  O     0.83334   0.53821   0.76178   0.00000  Uiso   1.00
O1956  O     0.83333   0.46179   0.90489   0.00000  Uiso   1.00
O1957  O     0.83333   0.53821   0.90489   0.00000  Uiso   1.00
O1958  O     0.83334   0.46179   0.76178   0.00000  Uiso   1.00
Zn1959 Zn    0.83333   0.55104   0.83333   0.00000  Uiso   1.00
Zn1960 Zn    0.83333   0.44896   0.83333   0.00000  Uiso   1.00
C1961  C     0.70425   0.41291   0.84329   0.00000  Uiso   1.00
H1962  H     0.72739   0.41469   0.87715   0.00000  Uiso   1.00
H1963  H     0.67963   0.38958   0.85330   0.00000  Uiso   1.00
H1964  H     0.71873   0.39871   0.81064   0.00000  Uiso   1.00
C1965  C     0.96170   0.58583   0.80982   0.00000  Uiso   1.00
H1966  H     0.93376   0.58286   0.78185   0.00000  Uiso   1.00
H1967  H     0.95396   0.60555   0.84303   0.00000  Uiso   1.00
H1968  H     0.98553   0.60421   0.79048   0.00000  Uiso   1.00
C1969  C     0.95587   0.42179   0.78322   0.00000  Uiso   1.00
H1970  H     0.94489   0.39747   0.80981   0.00000  Uiso   1.00
H1971  H     0.92861   0.43274   0.75733   0.00000  Uiso   1.00
H1972  H     0.97801   0.40521   0.75921   0.00000  Uiso   1.00
C1973  C     0.70440   0.57598   0.88127   0.00000  Uiso   1.00
H1974  H     0.73577   0.56847   0.90073   0.00000  Uiso   1.00
H1975  H     0.70578   0.60744   0.86071   0.00000  Uiso   1.00
H1976  H     0.68292   0.58141   0.91125   0.00000  Uiso   1.00
C1977  C     0.88689   0.38461   0.90915   0.00000  Uiso   1.00
C1978  C     0.93419   0.37393   0.92003   0.00000  Uiso   1.00
C1979  C     0.96013   0.41473   0.93837   0.00000  Uiso   1.00
H1980  H     0.95845   0.44045   0.90903   0.00000  Uiso   1.00
H1981  H     0.94822   0.42886   0.97309   0.00000  Uiso   1.00
H1982  H     0.99361   0.40519   0.94718   0.00000  Uiso   1.00
H1983  H     0.93868   0.35045   0.95168   0.00000  Uiso   1.00
H1984  H     0.94698   0.35975   0.88595   0.00000  Uiso   1.00
H1985  H     0.88706   0.41820   0.89722   0.00000  Uiso   1.00
H1986  H     0.87169   0.38619   0.94474   0.00000  Uiso   1.00
C1987  C     0.76432   0.62177   0.77783   0.00000  Uiso   1.00
C1988  C     0.76635   0.59667   0.72751   0.00000  Uiso   1.00
C1989  C     0.73017   0.60897   0.68874   0.00000  Uiso   1.00
H1990  H     0.69945   0.60149   0.70323   0.00000  Uiso   1.00
H1991  H     0.73143   0.64457   0.67971   0.00000  Uiso   1.00
H1992  H     0.73271   0.58926   0.98711   0.00000  Uiso   1.00
H1993  H     0.79671   0.60256   0.71155   0.00000  Uiso   1.00
H1994  H     0.76303   0.56071   0.73400   0.00000  Uiso   1.00
H1995  H     0.75149   0.60132   0.80523   0.00000  Uiso   1.00
H1996  H     0.73777   0.64526   0.77574   0.00000  Uiso   1.00
C1997  C     0.78480   0.38064   0.75323   0.00000  Uiso   1.00
C1998  C     0.80770   0.37639   0.70522   0.00000  Uiso   1.00
C1999  C     0.78211   0.39732   0.99357   0.00000  Uiso   1.00
H2000  H     0.75188   0.37950   0.98452   0.00000  Uiso   1.00
H2001  H     0.77501   0.43246   0.66861   0.00000  Uiso   1.00
H2002  H     0.79997   0.39556   0.95987   0.00000  Uiso   1.00
H2003  H     0.83922   0.39224   0.71100   0.00000  Uiso   1.00
H2004  H     0.81260   0.34100   0.69611   0.00000  Uiso   1.00
H2005  H     0.75223   0.36928   0.74393   0.00000  Uiso   1.00
H2006  H     0.77910   0.41527   0.76263   0.00000  Uiso   1.00
C2007  C     0.88569   0.61800   0.90928   0.00000  Uiso   1.00
C2008  C     0.86886   0.62081   0.96156   0.00000  Uiso   1.00
C2009  C     0.89752   0.59622   0.66762   0.00000  Uiso   1.00
H2010  H     0.90198   0.56134   0.98885   0.00000  Uiso   1.00
H2011  H     0.92877   0.61271   0.67341   0.00000  Uiso   1.00
H2012  H     0.88320   0.59650   0.70403   0.00000  Uiso   1.00
H2013  H     0.86667   0.65528   0.97499   0.00000  Uiso   1.00
H2014  H     0.83662   0.60664   0.95963   0.00000  Uiso   1.00
H2015  H     0.88793   0.58338   0.89928   0.00000  Uiso   1.00
H2016  H     0.91906   0.62676   0.91046   0.00000  Uiso   1.00
C2017  C     0.08692   0.83302   0.83779   0.00000  Uiso   1.00
C2018  C     0.24574   0.83354   0.82669   0.00000  Uiso   1.00
C2019  C     0.16659   0.83313   0.73978   0.00000  Uiso   1.00
C2020  C     0.16707   0.83355   0.92691   0.00000  Uiso   1.00
C2021  C     0.16697   0.83312   0.68857   0.00000  Uiso   1.00
C2022  C     0.16707   0.83368   0.97818   0.00000  Uiso   1.00
C2023  C     0.01932   0.79155   0.83055   0.00000  Uiso   1.00
C2024  C     0.31243   0.87434   0.82585   0.00000  Uiso   1.00
C2025  C     0.31060   0.79421   0.81156   0.00000  Uiso   1.00
C2026  C     0.02033   0.87173   0.84708   0.00000  Uiso   1.00
C2027  C     0.28962   0.83460   0.81652   0.00000  Uiso   1.00
C2028  C     0.04189   0.83152   0.84248   0.00000  Uiso   1.00
C2029  C     0.19305   0.69117   0.86849   0.00000  Uiso   1.00
C2030  C     0.13857   0.97621   0.80094   0.00000  Uiso   1.00
C2031  C     0.14171   0.69025   0.79764   0.00000  Uiso   1.00
C2032  C     0.19246   0.97638   0.86871   0.00000  Uiso   1.00
N2033  N     0.16667   0.95240   0.83333   0.00000  Uiso   1.00
N2034  N     0.16667   0.71427   0.83333   0.00000  Uiso   1.00
O2035  O     0.10559   0.87154   0.83333   0.00000  Uiso   1.00
O2036  O     0.22774   0.79513   0.83334   0.00000  Uiso   1.00
O2037  O     0.22774   0.87154   0.83334   0.00000  Uiso   1.00
O2038  O     0.10559   0.79513   0.83333   0.00000  Uiso   1.00
O2039  O     0.16667   0.87155   0.76178   0.00000  Uiso   1.00
O2040  O     0.16666   0.79512   0.90489   0.00000  Uiso   1.00
O2041  O     0.16666   0.87155   0.90489   0.00000  Uiso   1.00
O2042  O     0.16667   0.79512   0.76178   0.00000  Uiso   1.00
Zn2043 Zn    0.16667   0.88437   0.83333   0.00000  Uiso   1.00
Zn2044 Zn    0.16667   0.78229   0.83333   0.00000  Uiso   1.00
C2045  C     0.03758   0.74625   0.84329   0.00000  Uiso   1.00
H2046  H     0.06072   0.74802   0.87715   0.00000  Uiso   1.00
H2047  H     0.01297   0.72292   0.85330   0.00000  Uiso   1.00
H2048  H     0.05206   0.73204   0.81064   0.00000  Uiso   1.00
C2049  C     0.29503   0.91916   0.80982   0.00000  Uiso   1.00
H2050  H     0.26710   0.91619   0.78185   0.00000  Uiso   1.00
H2051  H     0.28729   0.93888   0.84303   0.00000  Uiso   1.00
H2052  H     0.31887   0.93754   0.79048   0.00000  Uiso   1.00
C2053  C     0.28921   0.75513   0.78322   0.00000  Uiso   1.00
H2054  H     0.27822   0.73080   0.80981   0.00000  Uiso   1.00
H2055  H     0.26195   0.76607   0.75733   0.00000  Uiso   1.00
H2056  H     0.31134   0.73854   0.75921   0.00000  Uiso   1.00
C2057  C     0.03773   0.90932   0.88127   0.00000  Uiso   1.00
H2058  H     0.06910   0.90181   0.90073   0.00000  Uiso   1.00
H2059  H     0.03911   0.94078   0.86071   0.00000  Uiso   1.00
H2060  H     0.01625   0.91474   0.91125   0.00000  Uiso   1.00
C2061  C     0.22022   0.71794   0.90915   0.00000  Uiso   1.00
C2062  C     0.26752   0.70726   0.92003   0.00000  Uiso   1.00
C2063  C     0.29346   0.74806   0.93837   0.00000  Uiso   1.00
H2064  H     0.29179   0.77379   0.90903   0.00000  Uiso   1.00
H2065  H     0.28156   0.76220   0.97309   0.00000  Uiso   1.00
H2066  H     0.32694   0.73852   0.94718   0.00000  Uiso   1.00
H2067  H     0.27202   0.68378   0.95168   0.00000  Uiso   1.00
H2068  H     0.28032   0.69309   0.88595   0.00000  Uiso   1.00
H2069  H     0.22040   0.75153   0.89722   0.00000  Uiso   1.00
H2070  H     0.20502   0.71953   0.94474   0.00000  Uiso   1.00
C2071  C     0.09766   0.95511   0.77783   0.00000  Uiso   1.00
C2072  C     0.09969   0.93000   0.72751   0.00000  Uiso   1.00
C2073  C     0.06350   0.94231   0.68874   0.00000  Uiso   1.00
H2074  H     0.03278   0.93482   0.70323   0.00000  Uiso   1.00
H2075  H     0.06476   0.97790   0.67971   0.00000  Uiso   1.00
H2076  H     0.06605   0.92259   0.98711   0.00000  Uiso   1.00
H2077  H     0.13004   0.93590   0.71155   0.00000  Uiso   1.00
H2078  H     0.09637   0.89404   0.73400   0.00000  Uiso   1.00
H2079  H     0.08483   0.93466   0.80523   0.00000  Uiso   1.00
H2080  H     0.07111   0.97859   0.77574   0.00000  Uiso   1.00
C2081  C     0.11813   0.71397   0.75323   0.00000  Uiso   1.00
C2082  C     0.14104   0.70972   0.70522   0.00000  Uiso   1.00
C2083  C     0.11544   0.73065   0.99357   0.00000  Uiso   1.00
H2084  H     0.08522   0.71284   0.98452   0.00000  Uiso   1.00
H2085  H     0.10834   0.76579   0.66861   0.00000  Uiso   1.00
H2086  H     0.13330   0.72889   0.95987   0.00000  Uiso   1.00
H2087  H     0.17255   0.72557   0.71100   0.00000  Uiso   1.00
H2088  H     0.14594   0.67434   0.69611   0.00000  Uiso   1.00
H2089  H     0.08556   0.70261   0.74393   0.00000  Uiso   1.00
H2090  H     0.11244   0.74860   0.76263   0.00000  Uiso   1.00
C2091  C     0.21902   0.95133   0.90928   0.00000  Uiso   1.00
C2092  C     0.20219   0.95415   0.96156   0.00000  Uiso   1.00
C2093  C     0.23085   0.92955   0.66762   0.00000  Uiso   1.00
H2094  H     0.23531   0.89468   0.98885   0.00000  Uiso   1.00
H2095  H     0.26210   0.94604   0.67341   0.00000  Uiso   1.00
H2096  H     0.21653   0.92983   0.70403   0.00000  Uiso   1.00
H2097  H     0.20000   0.98862   0.97499   0.00000  Uiso   1.00
H2098  H     0.16996   0.93998   0.95963   0.00000  Uiso   1.00
H2099  H     0.22127   0.91671   0.89928   0.00000  Uiso   1.00
H2100  H     0.25239   0.96009   0.91046   0.00000  Uiso   1.00
C2101  C     0.42025   0.83302   0.83779   0.00000  Uiso   1.00
C2102  C     0.57908   0.83354   0.82669   0.00000  Uiso   1.00
C2103  C     0.49993   0.83313   0.73978   0.00000  Uiso   1.00
C2104  C     0.50040   0.83355   0.92691   0.00000  Uiso   1.00
C2105  C     0.50030   0.83312   0.68857   0.00000  Uiso   1.00
C2106  C     0.50041   0.83368   0.97818   0.00000  Uiso   1.00
C2107  C     0.35265   0.79155   0.83055   0.00000  Uiso   1.00
C2108  C     0.64576   0.87434   0.82585   0.00000  Uiso   1.00
C2109  C     0.64393   0.79421   0.81156   0.00000  Uiso   1.00
C2110  C     0.35366   0.87173   0.84708   0.00000  Uiso   1.00
C2111  C     0.62295   0.83460   0.81652   0.00000  Uiso   1.00
C2112  C     0.37523   0.83152   0.84248   0.00000  Uiso   1.00
C2113  C     0.52639   0.69117   0.86849   0.00000  Uiso   1.00
C2114  C     0.47191   0.97621   0.80094   0.00000  Uiso   1.00
C2115  C     0.47505   0.69025   0.79764   0.00000  Uiso   1.00
C2116  C     0.52579   0.97638   0.86871   0.00000  Uiso   1.00
N2117  N     0.50000   0.95240   0.83333   0.00000  Uiso   1.00
N2118  N     0.50000   0.71427   0.83333   0.00000  Uiso   1.00
O2119  O     0.43892   0.87154   0.83333   0.00000  Uiso   1.00
O2120  O     0.56108   0.79513   0.83334   0.00000  Uiso   1.00
O2121  O     0.56108   0.87154   0.83334   0.00000  Uiso   1.00
O2122  O     0.43892   0.79513   0.83333   0.00000  Uiso   1.00
O2123  O     0.50000   0.87155   0.76178   0.00000  Uiso   1.00
O2124  O     0.50000   0.79512   0.90489   0.00000  Uiso   1.00
O2125  O     0.50000   0.87155   0.90489   0.00000  Uiso   1.00
O2126  O     0.50000   0.79512   0.76178   0.00000  Uiso   1.00
Zn2127 Zn    0.50000   0.88437   0.83333   0.00000  Uiso   1.00
Zn2128 Zn    0.50000   0.78229   0.83333   0.00000  Uiso   1.00
C2129  C     0.37091   0.74625   0.84329   0.00000  Uiso   1.00
H2130  H     0.39405   0.74802   0.87715   0.00000  Uiso   1.00
H2131  H     0.34630   0.72292   0.85330   0.00000  Uiso   1.00
H2132  H     0.38539   0.73204   0.81064   0.00000  Uiso   1.00
C2133  C     0.62837   0.91916   0.80982   0.00000  Uiso   1.00
H2134  H     0.60043   0.91619   0.78185   0.00000  Uiso   1.00
H2135  H     0.62063   0.93888   0.84303   0.00000  Uiso   1.00
H2136  H     0.65220   0.93754   0.79048   0.00000  Uiso   1.00
C2137  C     0.62254   0.75513   0.78322   0.00000  Uiso   1.00
H2138  H     0.61155   0.73080   0.80981   0.00000  Uiso   1.00
H2139  H     0.59528   0.76607   0.75733   0.00000  Uiso   1.00
H2140  H     0.64468   0.73854   0.75921   0.00000  Uiso   1.00
C2141  C     0.37106   0.90932   0.88127   0.00000  Uiso   1.00
H2142  H     0.40244   0.90181   0.90073   0.00000  Uiso   1.00
H2143  H     0.37245   0.94078   0.86071   0.00000  Uiso   1.00
H2144  H     0.34958   0.91474   0.91125   0.00000  Uiso   1.00
C2145  C     0.55356   0.71794   0.90915   0.00000  Uiso   1.00
C2146  C     0.60085   0.70726   0.92003   0.00000  Uiso   1.00
C2147  C     0.62680   0.74806   0.93837   0.00000  Uiso   1.00
H2148  H     0.62512   0.77379   0.90903   0.00000  Uiso   1.00
H2149  H     0.61489   0.76220   0.97309   0.00000  Uiso   1.00
H2150  H     0.66027   0.73852   0.94718   0.00000  Uiso   1.00
H2151  H     0.60535   0.68378   0.95168   0.00000  Uiso   1.00
H2152  H     0.61365   0.69309   0.88595   0.00000  Uiso   1.00
H2153  H     0.55373   0.75153   0.89722   0.00000  Uiso   1.00
H2154  H     0.53835   0.71953   0.94474   0.00000  Uiso   1.00
C2155  C     0.43099   0.95511   0.77783   0.00000  Uiso   1.00
C2156  C     0.43302   0.93000   0.72751   0.00000  Uiso   1.00
C2157  C     0.39683   0.94231   0.68874   0.00000  Uiso   1.00
H2158  H     0.36612   0.93482   0.70323   0.00000  Uiso   1.00
H2159  H     0.39810   0.97790   0.67971   0.00000  Uiso   1.00
H2160  H     0.39938   0.92259   0.98711   0.00000  Uiso   1.00
H2161  H     0.46338   0.93590   0.71155   0.00000  Uiso   1.00
H2162  H     0.42970   0.89404   0.73400   0.00000  Uiso   1.00
H2163  H     0.41816   0.93466   0.80523   0.00000  Uiso   1.00
H2164  H     0.40444   0.97859   0.77574   0.00000  Uiso   1.00
C2165  C     0.45146   0.71397   0.75323   0.00000  Uiso   1.00
C2166  C     0.47437   0.70972   0.70522   0.00000  Uiso   1.00
C2167  C     0.44878   0.73065   0.99357   0.00000  Uiso   1.00
H2168  H     0.41855   0.71284   0.98452   0.00000  Uiso   1.00
H2169  H     0.44167   0.76579   0.66861   0.00000  Uiso   1.00
H2170  H     0.46663   0.72889   0.95987   0.00000  Uiso   1.00
H2171  H     0.50588   0.72557   0.71100   0.00000  Uiso   1.00
H2172  H     0.47927   0.67434   0.69611   0.00000  Uiso   1.00
H2173  H     0.41890   0.70261   0.74393   0.00000  Uiso   1.00
H2174  H     0.44577   0.74860   0.76263   0.00000  Uiso   1.00
C2175  C     0.55236   0.95133   0.90928   0.00000  Uiso   1.00
C2176  C     0.53552   0.95415   0.96156   0.00000  Uiso   1.00
C2177  C     0.56419   0.92955   0.66762   0.00000  Uiso   1.00
H2178  H     0.56865   0.89468   0.98885   0.00000  Uiso   1.00
H2179  H     0.59543   0.94604   0.67341   0.00000  Uiso   1.00
H2180  H     0.54986   0.92983   0.70403   0.00000  Uiso   1.00
H2181  H     0.53334   0.98862   0.97499   0.00000  Uiso   1.00
H2182  H     0.50329   0.93998   0.95963   0.00000  Uiso   1.00
H2183  H     0.55460   0.91671   0.89928   0.00000  Uiso   1.00
H2184  H     0.58572   0.96009   0.91046   0.00000  Uiso   1.00
C2185  C     0.75358   0.83302   0.83779   0.00000  Uiso   1.00
C2186  C     0.91241   0.83354   0.82669   0.00000  Uiso   1.00
C2187  C     0.83326   0.83313   0.73978   0.00000  Uiso   1.00
C2188  C     0.83373   0.83355   0.92691   0.00000  Uiso   1.00
C2189  C     0.83364   0.83312   0.68857   0.00000  Uiso   1.00
C2190  C     0.83374   0.83368   0.97818   0.00000  Uiso   1.00
C2191  C     0.68598   0.79155   0.83055   0.00000  Uiso   1.00
C2192  C     0.97909   0.87434   0.82585   0.00000  Uiso   1.00
C2193  C     0.97726   0.79421   0.81156   0.00000  Uiso   1.00
C2194  C     0.68699   0.87173   0.84708   0.00000  Uiso   1.00
C2195  C     0.95628   0.83460   0.81652   0.00000  Uiso   1.00
C2196  C     0.70856   0.83152   0.84248   0.00000  Uiso   1.00
C2197  C     0.85972   0.69117   0.86849   0.00000  Uiso   1.00
C2198  C     0.80524   0.97621   0.80094   0.00000  Uiso   1.00
C2199  C     0.80838   0.69025   0.79764   0.00000  Uiso   1.00
C2200  C     0.85913   0.97638   0.86871   0.00000  Uiso   1.00
N2201  N     0.83333   0.95240   0.83333   0.00000  Uiso   1.00
N2202  N     0.83333   0.71427   0.83333   0.00000  Uiso   1.00
O2203  O     0.77226   0.87154   0.83333   0.00000  Uiso   1.00
O2204  O     0.89441   0.79513   0.83334   0.00000  Uiso   1.00
O2205  O     0.89441   0.87154   0.83334   0.00000  Uiso   1.00
O2206  O     0.77226   0.79513   0.83333   0.00000  Uiso   1.00
O2207  O     0.83334   0.87155   0.76178   0.00000  Uiso   1.00
O2208  O     0.83333   0.79512   0.90489   0.00000  Uiso   1.00
O2209  O     0.83333   0.87155   0.90489   0.00000  Uiso   1.00
O2210  O     0.83334   0.79512   0.76178   0.00000  Uiso   1.00
Zn2211 Zn    0.83333   0.88437   0.83333   0.00000  Uiso   1.00
Zn2212 Zn    0.83333   0.78229   0.83333   0.00000  Uiso   1.00
C2213  C     0.70425   0.74625   0.84329   0.00000  Uiso   1.00
H2214  H     0.72739   0.74802   0.87715   0.00000  Uiso   1.00
H2215  H     0.67963   0.72292   0.85330   0.00000  Uiso   1.00
H2216  H     0.71873   0.73204   0.81064   0.00000  Uiso   1.00
C2217  C     0.96170   0.91916   0.80982   0.00000  Uiso   1.00
H2218  H     0.93376   0.91619   0.78185   0.00000  Uiso   1.00
H2219  H     0.95396   0.93888   0.84303   0.00000  Uiso   1.00
H2220  H     0.98553   0.93754   0.79048   0.00000  Uiso   1.00
C2221  C     0.95587   0.75513   0.78322   0.00000  Uiso   1.00
H2222  H     0.94489   0.73080   0.80981   0.00000  Uiso   1.00
H2223  H     0.92861   0.76607   0.75733   0.00000  Uiso   1.00
H2224  H     0.97801   0.73854   0.75921   0.00000  Uiso   1.00
C2225  C     0.70440   0.90932   0.88127   0.00000  Uiso   1.00
H2226  H     0.73577   0.90181   0.90073   0.00000  Uiso   1.00
H2227  H     0.70578   0.94078   0.86071   0.00000  Uiso   1.00
H2228  H     0.68292   0.91474   0.91125   0.00000  Uiso   1.00
C2229  C     0.88689   0.71794   0.90915   0.00000  Uiso   1.00
C2230  C     0.93419   0.70726   0.92003   0.00000  Uiso   1.00
C2231  C     0.96013   0.74806   0.93837   0.00000  Uiso   1.00
H2232  H     0.95845   0.77379   0.90903   0.00000  Uiso   1.00
H2233  H     0.94822   0.76220   0.97309   0.00000  Uiso   1.00
H2234  H     0.99361   0.73852   0.94718   0.00000  Uiso   1.00
H2235  H     0.93868   0.68378   0.95168   0.00000  Uiso   1.00
H2236  H     0.94698   0.69309   0.88595   0.00000  Uiso   1.00
H2237  H     0.88706   0.75153   0.89722   0.00000  Uiso   1.00
H2238  H     0.87169   0.71953   0.94474   0.00000  Uiso   1.00
C2239  C     0.76432   0.95511   0.77783   0.00000  Uiso   1.00
C2240  C     0.76635   0.93000   0.72751   0.00000  Uiso   1.00
C2241  C     0.73017   0.94231   0.68874   0.00000  Uiso   1.00
H2242  H     0.69945   0.93482   0.70323   0.00000  Uiso   1.00
H2243  H     0.73143   0.97790   0.67971   0.00000  Uiso   1.00
H2244  H     0.73271   0.92259   0.98711   0.00000  Uiso   1.00
H2245  H     0.79671   0.93590   0.71155   0.00000  Uiso   1.00
H2246  H     0.76303   0.89404   0.73400   0.00000  Uiso   1.00
H2247  H     0.75149   0.93466   0.80523   0.00000  Uiso   1.00
H2248  H     0.73777   0.97859   0.77574   0.00000  Uiso   1.00
C2249  C     0.78480   0.71397   0.75323   0.00000  Uiso   1.00
C2250  C     0.80770   0.70972   0.70522   0.00000  Uiso   1.00
C2251  C     0.78211   0.73065   0.99357   0.00000  Uiso   1.00
H2252  H     0.75188   0.71284   0.98452   0.00000  Uiso   1.00
H2253  H     0.77501   0.76579   0.66861   0.00000  Uiso   1.00
H2254  H     0.79997   0.72889   0.95987   0.00000  Uiso   1.00
H2255  H     0.83922   0.72557   0.71100   0.00000  Uiso   1.00
H2256  H     0.81260   0.67434   0.69611   0.00000  Uiso   1.00
H2257  H     0.75223   0.70261   0.74393   0.00000  Uiso   1.00
H2258  H     0.77910   0.74860   0.76263   0.00000  Uiso   1.00
C2259  C     0.88569   0.95133   0.90928   0.00000  Uiso   1.00
C2260  C     0.86886   0.95415   0.96156   0.00000  Uiso   1.00
C2261  C     0.89752   0.92955   0.66762   0.00000  Uiso   1.00
H2262  H     0.90198   0.89468   0.98885   0.00000  Uiso   1.00
H2263  H     0.92877   0.94604   0.67341   0.00000  Uiso   1.00
H2264  H     0.88320   0.92983   0.70403   0.00000  Uiso   1.00
H2265  H     0.86667   0.98862   0.97499   0.00000  Uiso   1.00
H2266  H     0.83662   0.93998   0.95963   0.00000  Uiso   1.00
H2267  H     0.88793   0.91671   0.89928   0.00000  Uiso   1.00
H2268  H     0.91906   0.96009   0.91046   0.00000  Uiso   1.00
loop_
_geom_bond_atom_site_label_1
_geom_bond_atom_site_label_2
_geom_bond_distance
_geom_bond_site_symmetry_2
_ccdc_geom_bond_type
C1     O22     1.299   .     A
C1     C12     1.455   .     S
C1     O19     1.319   .     A
C2     C11     1.451   .     S
C2     O20     1.316   .     A
C2     O21     1.300   .     A
C3     O23     1.291   .     A
C3     O26     1.297   .     A
C3     C5      1.365   .     S
C4     O25     1.296   .     A
C4     O24     1.292   .     A
C4     C6      1.365   .     S
C5     C1518   1.165   1_554 S
C6     C761    1.165   .     S
C7     C29     1.518   .     S
C7     C12     1.422   .     A
C7     C177    1.391   1_455 S
C8     C11     1.410   .     A
C8     C33     1.515   .     S
C8     C94     1.385   .     S
C9     C37     1.517   .     S
C9     C11     1.402   .     A
C9     C91     1.391   .     S
C10    C41     1.516   .     S
C10    C12     1.405   .     A
C10    C176    1.385   1_455 S
C13    N18     1.394   .     A
C13    C45     1.540   .     S
C13    C520    1.453   1_545 S
C14    C55     1.525   .     S
C14    N17     1.392   .     A
C14    C267    1.438   .     S
C15    N18     1.378   .     A
C15    C65     1.528   .     S
C15    C518    1.438   1_545 S
C16    C75     1.520   .     S
C16    N17     1.386   .     A
C16    C265    1.453   .     S
N17    Zn27    2.054   .     S
N18    Zn28    2.054   .     S
O19    Zn27    1.987   .     S
O20    Zn28    1.987   .     S
O21    Zn27    1.987   .     S
O22    Zn28    1.987   .     S
O23    Zn27    1.939   .     S
O24    Zn28    1.939   .     S
O25    Zn27    1.950   .     S
O26    Zn28    1.950   .     S
C29    H32     1.104   .     S
C29    H30     1.111   .     S
C29    H31     1.109   .     S
C33    H36     1.111   .     S
C33    H34     1.109   .     S
C33    H35     1.106   .     S
C37    H38     1.107   .     S
C37    H39     1.111   .     S
C37    H40     1.111   .     S
C41    H42     1.108   .     S
C41    H43     1.107   .     S
C41    H44     1.111   .     S
C45    C46     1.545   .     S
C45    H53     1.068   .     S
C45    H54     1.105   .     S
C46    H52     1.110   .     S
C46    H51     1.109   .     S
C46    C47     1.532   .     S
C47    H49     1.111   .     S
C47    H48     1.108   .     S
C47    H50     1.111   .     S
C55    C56     1.536   .     S
C55    H63     1.073   .     S
C55    H64     1.103   .     S
C56    C57     1.524   .     S
C56    H62     1.109   .     S
C56    H61     1.109   .     S
C57    H59     1.107   .     S
C57    H58     1.111   .     S
C57    H1572   1.107   1_554 S
H60    C813    1.107   .     S
C65    H73     1.099   .     S
C65    H74     1.091   .     S
C65    C66     1.535   .     S
C66    H72     1.106   .     S
C66    H71     1.110   .     S
C66    C1579   1.530   1_554 S
C67    H68     1.109   .     S
C67    H70     1.108   .     S
C67    C822    1.530   .     S
C67    H825    1.109   .     S
H69    C1579   1.109   1_554 S
C75    H84     1.094   .     S
C75    C76     1.540   .     S
C75    H83     1.079   .     S
C76    H82     1.110   .     S
C76    H81     1.100   .     S
C76    C833    1.527   .     S
C77    H79     1.111   .     S
C77    H80     1.110   .     S
C77    C1588   1.527   1_554 S
C77    H1590   1.110   1_554 S
H78    C833    1.110   .     S
C85    O106    1.299   .     A
C85    C96     1.455   .     S
C85    O103    1.319   .     A
C86    C95     1.451   .     S
C86    O104    1.316   .     A
C86    O105    1.300   .     A
C87    O107    1.291   .     A
C87    O110    1.297   .     A
C87    C89     1.365   .     S
C88    O109    1.296   .     A
C88    O108    1.292   .     A
C88    C90     1.365   .     S
C89    C1602   1.165   1_554 S
C90    C845    1.165   .     S
C91    C113    1.518   .     S
C91    C96     1.422   .     A
C92    C95     1.410   .     A
C92    C117    1.515   .     S
C92    C178    1.385   .     S
C93    C121    1.517   .     S
C93    C95     1.402   .     A
C93    C175    1.391   .     S
C94    C125    1.516   .     S
C94    C96     1.405   .     A
C97    N102    1.394   .     A
C97    C129    1.540   .     S
C97    C604    1.453   1_545 S
C98    C139    1.525   .     S
C98    N101    1.392   .     A
C98    C351    1.438   .     S
C99    N102    1.378   .     A
C99    C149    1.528   .     S
C99    C602    1.438   1_545 S
C100   C159    1.520   .     S
C100   N101    1.386   .     A
C100   C349    1.453   .     S
N101   Zn111   2.054   .     S
N102   Zn112   2.054   .     S
O103   Zn111   1.987   .     S
O104   Zn112   1.987   .     S
O105   Zn111   1.987   .     S
O106   Zn112   1.987   .     S
O107   Zn111   1.939   .     S
O108   Zn112   1.939   .     S
O109   Zn111   1.950   .     S
O110   Zn112   1.950   .     S
C113   H116    1.104   .     S
C113   H114    1.111   .     S
C113   H115    1.109   .     S
C117   H120    1.111   .     S
C117   H118    1.109   .     S
C117   H119    1.106   .     S
C121   H122    1.107   .     S
C121   H123    1.111   .     S
C121   H124    1.111   .     S
C125   H126    1.108   .     S
C125   H127    1.107   .     S
C125   H128    1.111   .     S
C129   C130    1.545   .     S
C129   H137    1.068   .     S
C129   H138    1.105   .     S
C130   H136    1.110   .     S
C130   H135    1.109   .     S
C130   C131    1.532   .     S
C131   H133    1.111   .     S
C131   H132    1.108   .     S
C131   H134    1.111   .     S
C139   C140    1.536   .     S
C139   H147    1.073   .     S
C139   H148    1.103   .     S
C140   C141    1.524   .     S
C140   H146    1.109   .     S
C140   H145    1.109   .     S
C141   H143    1.107   .     S
C141   H142    1.111   .     S
C141   H1656   1.107   1_554 S
H144   C897    1.107   .     S
C149   H157    1.099   .     S
C149   H158    1.091   .     S
C149   C150    1.535   .     S
C150   H156    1.106   .     S
C150   H155    1.110   .     S
C150   C1663   1.530   1_554 S
C151   H152    1.109   .     S
C151   H154    1.108   .     S
C151   C906    1.530   .     S
C151   H909    1.109   .     S
H153   C1663   1.109   1_554 S
C159   H168    1.094   .     S
C159   C160    1.540   .     S
C159   H167    1.079   .     S
C160   H166    1.110   .     S
C160   H165    1.100   .     S
C160   C917    1.527   .     S
C161   H163    1.111   .     S
C161   H164    1.110   .     S
C161   C1672   1.527   1_554 S
C161   H1674   1.110   1_554 S
H162   C917    1.110   .     S
C169   O190    1.299   .     A
C169   C180    1.455   .     S
C169   O187    1.319   .     A
C170   C179    1.451   .     S
C170   O188    1.316   .     A
C170   O189    1.300   .     A
C171   O191    1.291   .     A
C171   O194    1.297   .     A
C171   C173    1.365   .     S
C172   O193    1.296   .     A
C172   O192    1.292   .     A
C172   C174    1.365   .     S
C173   C1686   1.165   1_554 S
C174   C929    1.165   .     S
C175   C197    1.518   .     S
C175   C180    1.422   .     A
C176   C179    1.410   .     A
C176   C201    1.515   .     S
C176   C10     1.385   1_655 S
C177   C205    1.517   .     S
C177   C179    1.402   .     A
C177   C7      1.391   1_655 S
C178   C209    1.516   .     S
C178   C180    1.405   .     A
C181   N186    1.394   .     A
C181   C213    1.540   .     S
C181   C688    1.453   1_545 S
C182   C223    1.525   .     S
C182   N185    1.392   .     A
C182   C435    1.438   .     S
C183   N186    1.378   .     A
C183   C233    1.528   .     S
C183   C686    1.438   1_545 S
C184   C243    1.520   .     S
C184   N185    1.386   .     A
C184   C433    1.453   .     S
N185   Zn195   2.054   .     S
N186   Zn196   2.054   .     S
O187   Zn195   1.987   .     S
O188   Zn196   1.987   .     S
O189   Zn195   1.987   .     S
O190   Zn196   1.987   .     S
O191   Zn195   1.939   .     S
O192   Zn196   1.939   .     S
O193   Zn195   1.950   .     S
O194   Zn196   1.950   .     S
C197   H200    1.104   .     S
C197   H198    1.111   .     S
C197   H199    1.109   .     S
C201   H204    1.111   .     S
C201   H202    1.109   .     S
C201   H203    1.106   .     S
C205   H206    1.107   .     S
C205   H207    1.111   .     S
C205   H208    1.111   .     S
C209   H210    1.108   .     S
C209   H211    1.107   .     S
C209   H212    1.111   .     S
C213   C214    1.545   .     S
C213   H221    1.068   .     S
C213   H222    1.105   .     S
C214   H220    1.110   .     S
C214   H219    1.109   .     S
C214   C215    1.532   .     S
C215   H217    1.111   .     S
C215   H216    1.108   .     S
C215   H218    1.111   .     S
C223   C224    1.536   .     S
C223   H231    1.073   .     S
C223   H232    1.103   .     S
C224   C225    1.524   .     S
C224   H230    1.109   .     S
C224   H229    1.109   .     S
C225   H227    1.107   .     S
C225   H226    1.111   .     S
C225   H1740   1.107   1_554 S
H228   C981    1.107   .     S
C233   H241    1.099   .     S
C233   H242    1.091   .     S
C233   C234    1.535   .     S
C234   H240    1.106   .     S
C234   H239    1.110   .     S
C234   C1747   1.530   1_554 S
C235   H236    1.109   .     S
C235   H238    1.108   .     S
C235   C990    1.530   .     S
C235   H993    1.109   .     S
H237   C1747   1.109   1_554 S
C243   H252    1.094   .     S
C243   C244    1.540   .     S
C243   H251    1.079   .     S
C244   H250    1.110   .     S
C244   H249    1.100   .     S
C244   C1001   1.527   .     S
C245   H247    1.111   .     S
C245   H248    1.110   .     S
C245   C1756   1.527   1_554 S
C245   H1758   1.110   1_554 S
H246   C1001   1.110   .     S
C253   O274    1.299   .     A
C253   C264    1.455   .     S
C253   O271    1.319   .     A
C254   C263    1.451   .     S
C254   O272    1.316   .     A
C254   O273    1.300   .     A
C255   O275    1.291   .     A
C255   O278    1.297   .     A
C255   C257    1.365   .     S
C256   O277    1.296   .     A
C256   O276    1.292   .     A
C256   C258    1.365   .     S
C257   C1770   1.165   1_554 S
C258   C1013   1.165   .     S
C259   C281    1.518   .     S
C259   C264    1.422   .     A
C259   C429    1.391   1_455 S
C260   C263    1.410   .     A
C260   C285    1.515   .     S
C260   C346    1.385   .     S
C261   C289    1.517   .     S
C261   C263    1.402   .     A
C261   C343    1.391   .     S
C262   C293    1.516   .     S
C262   C264    1.405   .     A
C262   C428    1.385   1_455 S
C265   N270    1.394   .     A
C265   C297    1.540   .     S
C266   C307    1.525   .     S
C266   N269    1.392   .     A
C266   C519    1.438   .     S
C267   N270    1.378   .     A
C267   C317    1.528   .     S
C268   C327    1.520   .     S
C268   N269    1.386   .     A
C268   C517    1.453   .     S
N269   Zn279   2.054   .     S
N270   Zn280   2.054   .     S
O271   Zn279   1.987   .     S
O272   Zn280   1.987   .     S
O273   Zn279   1.987   .     S
O274   Zn280   1.987   .     S
O275   Zn279   1.939   .     S
O276   Zn280   1.939   .     S
O277   Zn279   1.950   .     S
O278   Zn280   1.950   .     S
C281   H284    1.104   .     S
C281   H282    1.111   .     S
C281   H283    1.109   .     S
C285   H288    1.111   .     S
C285   H286    1.109   .     S
C285   H287    1.106   .     S
C289   H290    1.107   .     S
C289   H291    1.111   .     S
C289   H292    1.111   .     S
C293   H294    1.108   .     S
C293   H295    1.107   .     S
C293   H296    1.111   .     S
C297   C298    1.545   .     S
C297   H305    1.068   .     S
C297   H306    1.105   .     S
C298   H304    1.110   .     S
C298   H303    1.109   .     S
C298   C299    1.532   .     S
C299   H301    1.111   .     S
C299   H300    1.108   .     S
C299   H302    1.111   .     S
C307   C308    1.536   .     S
C307   H315    1.073   .     S
C307   H316    1.103   .     S
C308   C309    1.524   .     S
C308   H314    1.109   .     S
C308   H313    1.109   .     S
C309   H311    1.107   .     S
C309   H310    1.111   .     S
C309   H1824   1.107   1_554 S
H312   C1065   1.107   .     S
C317   H325    1.099   .     S
C317   H326    1.091   .     S
C317   C318    1.535   .     S
C318   H324    1.106   .     S
C318   H323    1.110   .     S
C318   C1831   1.530   1_554 S
C319   H320    1.109   .     S
C319   H322    1.108   .     S
C319   C1074   1.530   .     S
C319   H1077   1.109   .     S
H321   C1831   1.109   1_554 S
C327   H336    1.094   .     S
C327   C328    1.540   .     S
C327   H335    1.079   .     S
C328   H334    1.110   .     S
C328   H333    1.100   .     S
C328   C1085   1.527   .     S
C329   H331    1.111   .     S
C329   H332    1.110   .     S
C329   C1840   1.527   1_554 S
C329   H1842   1.110   1_554 S
H330   C1085   1.110   .     S
C337   O358    1.299   .     A
C337   C348    1.455   .     S
C337   O355    1.319   .     A
C338   C347    1.451   .     S
C338   O356    1.316   .     A
C338   O357    1.300   .     A
C339   O359    1.291   .     A
C339   O362    1.297   .     A
C339   C341    1.365   .     S
C340   O361    1.296   .     A
C340   O360    1.292   .     A
C340   C342    1.365   .     S
C341   C1854   1.165   1_554 S
C342   C1097   1.165   .     S
C343   C365    1.518   .     S
C343   C348    1.422   .     A
C344   C347    1.410   .     A
C344   C369    1.515   .     S
C344   C430    1.385   .     S
C345   C373    1.517   .     S
C345   C347    1.402   .     A
C345   C427    1.391   .     S
C346   C377    1.516   .     S
C346   C348    1.405   .     A
C349   N354    1.394   .     A
C349   C381    1.540   .     S
C350   C391    1.525   .     S
C350   N353    1.392   .     A
C350   C603    1.438   .     S
C351   N354    1.378   .     A
C351   C401    1.528   .     S
C352   C411    1.520   .     S
C352   N353    1.386   .     A
C352   C601    1.453   .     S
N353   Zn363   2.054   .     S
N354   Zn364   2.054   .     S
O355   Zn363   1.987   .     S
O356   Zn364   1.987   .     S
O357   Zn363   1.987   .     S
O358   Zn364   1.987   .     S
O359   Zn363   1.939   .     S
O360   Zn364   1.939   .     S
O361   Zn363   1.950   .     S
O362   Zn364   1.950   .     S
C365   H368    1.104   .     S
C365   H366    1.111   .     S
C365   H367    1.109   .     S
C369   H372    1.111   .     S
C369   H370    1.109   .     S
C369   H371    1.106   .     S
C373   H374    1.107   .     S
C373   H375    1.111   .     S
C373   H376    1.111   .     S
C377   H378    1.108   .     S
C377   H379    1.107   .     S
C377   H380    1.111   .     S
C381   C382    1.545   .     S
C381   H389    1.068   .     S
C381   H390    1.105   .     S
C382   H388    1.110   .     S
C382   H387    1.109   .     S
C382   C383    1.532   .     S
C383   H385    1.111   .     S
C383   H384    1.108   .     S
C383   H386    1.111   .     S
C391   C392    1.536   .     S
C391   H399    1.073   .     S
C391   H400    1.103   .     S
C392   C393    1.524   .     S
C392   H398    1.109   .     S
C392   H397    1.109   .     S
C393   H395    1.107   .     S
C393   H394    1.111   .     S
C393   H1908   1.107   1_554 S
H396   C1149   1.107   .     S
C401   H409    1.099   .     S
C401   H410    1.091   .     S
C401   C402    1.535   .     S
C402   H408    1.106   .     S
C402   H407    1.110   .     S
C402   C1915   1.530   1_554 S
C403   H404    1.109   .     S
C403   H406    1.108   .     S
C403   C1158   1.530   .     S
C403   H1161   1.109   .     S
H405   C1915   1.109   1_554 S
C411   H420    1.094   .     S
C411   C412    1.540   .     S
C411   H419    1.079   .     S
C412   H418    1.110   .     S
C412   H417    1.100   .     S
C412   C1169   1.527   .     S
C413   H415    1.111   .     S
C413   H416    1.110   .     S
C413   C1924   1.527   1_554 S
C413   H1926   1.110   1_554 S
H414   C1169   1.110   .     S
C421   O442    1.299   .     A
C421   C432    1.455   .     S
C421   O439    1.319   .     A
C422   C431    1.451   .     S
C422   O440    1.316   .     A
C422   O441    1.300   .     A
C423   O443    1.291   .     A
C423   O446    1.297   .     A
C423   C425    1.365   .     S
C424   O445    1.296   .     A
C424   O444    1.292   .     A
C424   C426    1.365   .     S
C425   C1938   1.165   1_554 S
C426   C1181   1.165   .     S
C427   C449    1.518   .     S
C427   C432    1.422   .     A
C428   C431    1.410   .     A
C428   C453    1.515   .     S
C428   C262    1.385   1_655 S
C429   C457    1.517   .     S
C429   C431    1.402   .     A
C429   C259    1.391   1_655 S
C430   C461    1.516   .     S
C430   C432    1.405   .     A
C433   N438    1.394   .     A
C433   C465    1.540   .     S
C434   C475    1.525   .     S
C434   N437    1.392   .     A
C434   C687    1.438   .     S
C435   N438    1.378   .     A
C435   C485    1.528   .     S
C436   C495    1.520   .     S
C436   N437    1.386   .     A
C436   C685    1.453   .     S
N437   Zn447   2.054   .     S
N438   Zn448   2.054   .     S
O439   Zn447   1.987   .     S
O440   Zn448   1.987   .     S
O441   Zn447   1.987   .     S
O442   Zn448   1.987   .     S
O443   Zn447   1.939   .     S
O444   Zn448   1.939   .     S
O445   Zn447   1.950   .     S
O446   Zn448   1.950   .     S
C449   H452    1.104   .     S
C449   H450    1.111   .     S
C449   H451    1.109   .     S
C453   H456    1.111   .     S
C453   H454    1.109   .     S
C453   H455    1.106   .     S
C457   H458    1.107   .     S
C457   H459    1.111   .     S
C457   H460    1.111   .     S
C461   H462    1.108   .     S
C461   H463    1.107   .     S
C461   H464    1.111   .     S
C465   C466    1.545   .     S
C465   H473    1.068   .     S
C465   H474    1.105   .     S
C466   H472    1.110   .     S
C466   H471    1.109   .     S
C466   C467    1.532   .     S
C467   H469    1.111   .     S
C467   H468    1.108   .     S
C467   H470    1.111   .     S
C475   C476    1.536   .     S
C475   H483    1.073   .     S
C475   H484    1.103   .     S
C476   C477    1.524   .     S
C476   H482    1.109   .     S
C476   H481    1.109   .     S
C477   H479    1.107   .     S
C477   H478    1.111   .     S
C477   H1992   1.107   1_554 S
H480   C1233   1.107   .     S
C485   H493    1.099   .     S
C485   H494    1.091   .     S
C485   C486    1.535   .     S
C486   H492    1.106   .     S
C486   H491    1.110   .     S
C486   C1999   1.530   1_554 S
C487   H488    1.109   .     S
C487   H490    1.108   .     S
C487   C1242   1.530   .     S
C487   H1245   1.109   .     S
H489   C1999   1.109   1_554 S
C495   H504    1.094   .     S
C495   C496    1.540   .     S
C495   H503    1.079   .     S
C496   H502    1.110   .     S
C496   H501    1.100   .     S
C496   C1253   1.527   .     S
C497   H499    1.111   .     S
C497   H500    1.110   .     S
C497   C2008   1.527   1_554 S
C497   H2010   1.110   1_554 S
H498   C1253   1.110   .     S
C505   O526    1.299   .     A
C505   C516    1.455   .     S
C505   O523    1.319   .     A
C506   C515    1.451   .     S
C506   O524    1.316   .     A
C506   O525    1.300   .     A
C507   O527    1.291   .     A
C507   O530    1.297   .     A
C507   C509    1.365   .     S
C508   O529    1.296   .     A
C508   O528    1.292   .     A
C508   C510    1.365   .     S
C509   C2022   1.165   1_554 S
C510   C1265   1.165   .     S
C511   C533    1.518   .     S
C511   C516    1.422   .     A
C511   C681    1.391   1_455 S
C512   C515    1.410   .     A
C512   C537    1.515   .     S
C512   C598    1.385   .     S
C513   C541    1.517   .     S
C513   C515    1.402   .     A
C513   C595    1.391   .     S
C514   C545    1.516   .     S
C514   C516    1.405   .     A
C514   C680    1.385   1_455 S
C517   N522    1.394   .     A
C517   C549    1.540   .     S
C518   C559    1.525   .     S
C518   N521    1.392   .     A
C518   C15     1.438   1_565 S
C519   N522    1.378   .     A
C519   C569    1.528   .     S
C520   C579    1.520   .     S
C520   N521    1.386   .     A
C520   C13     1.453   1_565 S
N521   Zn531   2.054   .     S
N522   Zn532   2.054   .     S
O523   Zn531   1.987   .     S
O524   Zn532   1.987   .     S
O525   Zn531   1.987   .     S
O526   Zn532   1.987   .     S
O527   Zn531   1.939   .     S
O528   Zn532   1.939   .     S
O529   Zn531   1.950   .     S
O530   Zn532   1.950   .     S
C533   H536    1.104   .     S
C533   H534    1.111   .     S
C533   H535    1.109   .     S
C537   H540    1.111   .     S
C537   H538    1.109   .     S
C537   H539    1.106   .     S
C541   H542    1.107   .     S
C541   H543    1.111   .     S
C541   H544    1.111   .     S
C545   H546    1.108   .     S
C545   H547    1.107   .     S
C545   H548    1.111   .     S
C549   C550    1.545   .     S
C549   H557    1.068   .     S
C549   H558    1.105   .     S
C550   H556    1.110   .     S
C550   H555    1.109   .     S
C550   C551    1.532   .     S
C551   H553    1.111   .     S
C551   H552    1.108   .     S
C551   H554    1.111   .     S
C559   C560    1.536   .     S
C559   H567    1.073   .     S
C559   H568    1.103   .     S
C560   C561    1.524   .     S
C560   H566    1.109   .     S
C560   H565    1.109   .     S
C561   H563    1.107   .     S
C561   H562    1.111   .     S
C561   H2076   1.107   1_554 S
H564   C1317   1.107   .     S
C569   H577    1.099   .     S
C569   H578    1.091   .     S
C569   C570    1.535   .     S
C570   H576    1.106   .     S
C570   H575    1.110   .     S
C570   C2083   1.530   1_554 S
C571   H572    1.109   .     S
C571   H574    1.108   .     S
C571   C1326   1.530   .     S
C571   H1329   1.109   .     S
H573   C2083   1.109   1_554 S
C579   H588    1.094   .     S
C579   C580    1.540   .     S
C579   H587    1.079   .     S
C580   H586    1.110   .     S
C580   H585    1.100   .     S
C580   C1337   1.527   .     S
C581   H583    1.111   .     S
C581   H584    1.110   .     S
C581   C2092   1.527   1_554 S
C581   H2094   1.110   1_554 S
H582   C1337   1.110   .     S
C589   O610    1.299   .     A
C589   C600    1.455   .     S
C589   O607    1.319   .     A
C590   C599    1.451   .     S
C590   O608    1.316   .     A
C590   O609    1.300   .     A
C591   O611    1.291   .     A
C591   O614    1.297   .     A
C591   C593    1.365   .     S
C592   O613    1.296   .     A
C592   O612    1.292   .     A
C592   C594    1.365   .     S
C593   C2106   1.165   1_554 S
C594   C1349   1.165   .     S
C595   C617    1.518   .     S
C595   C600    1.422   .     A
C596   C599    1.410   .     A
C596   C621    1.515   .     S
C596   C682    1.385   .     S
C597   C625    1.517   .     S
C597   C599    1.402   .     A
C597   C679    1.391   .     S
C598   C629    1.516   .     S
C598   C600    1.405   .     A
C601   N606    1.394   .     A
C601   C633    1.540   .     S
C602   C643    1.525   .     S
C602   N605    1.392   .     A
C602   C99     1.438   1_565 S
C603   N606    1.378   .     A
C603   C653    1.528   .     S
C604   C663    1.520   .     S
C604   N605    1.386   .     A
C604   C97     1.453   1_565 S
N605   Zn615   2.054   .     S
N606   Zn616   2.054   .     S
O607   Zn615   1.987   .     S
O608   Zn616   1.987   .     S
O609   Zn615   1.987   .     S
O610   Zn616   1.987   .     S
O611   Zn615   1.939   .     S
O612   Zn616   1.939   .     S
O613   Zn615   1.950   .     S
O614   Zn616   1.950   .     S
C617   H620    1.104   .     S
C617   H618    1.111   .     S
C617   H619    1.109   .     S
C621   H624    1.111   .     S
C621   H622    1.109   .     S
C621   H623    1.106   .     S
C625   H626    1.107   .     S
C625   H627    1.111   .     S
C625   H628    1.111   .     S
C629   H630    1.108   .     S
C629   H631    1.107   .     S
C629   H632    1.111   .     S
C633   C634    1.545   .     S
C633   H641    1.068   .     S
C633   H642    1.105   .     S
C634   H640    1.110   .     S
C634   H639    1.109   .     S
C634   C635    1.532   .     S
C635   H637    1.111   .     S
C635   H636    1.108   .     S
C635   H638    1.111   .     S
C643   C644    1.536   .     S
C643   H651    1.073   .     S
C643   H652    1.103   .     S
C644   C645    1.524   .     S
C644   H650    1.109   .     S
C644   H649    1.109   .     S
C645   H647    1.107   .     S
C645   H646    1.111   .     S
C645   H2160   1.107   1_554 S
H648   C1401   1.107   .     S
C653   H661    1.099   .     S
C653   H662    1.091   .     S
C653   C654    1.535   .     S
C654   H660    1.106   .     S
C654   H659    1.110   .     S
C654   C2167   1.530   1_554 S
C655   H656    1.109   .     S
C655   H658    1.108   .     S
C655   C1410   1.530   .     S
C655   H1413   1.109   .     S
H657   C2167   1.109   1_554 S
C663   H672    1.094   .     S
C663   C664    1.540   .     S
C663   H671    1.079   .     S
C664   H670    1.110   .     S
C664   H669    1.100   .     S
C664   C1421   1.527   .     S
C665   H667    1.111   .     S
C665   H668    1.110   .     S
C665   C2176   1.527   1_554 S
C665   H2178   1.110   1_554 S
H666   C1421   1.110   .     S
C673   O694    1.299   .     A
C673   C684    1.455   .     S
C673   O691    1.319   .     A
C674   C683    1.451   .     S
C674   O692    1.316   .     A
C674   O693    1.300   .     A
C675   O695    1.291   .     A
C675   O698    1.297   .     A
C675   C677    1.365   .     S
C676   O697    1.296   .     A
C676   O696    1.292   .     A
C676   C678    1.365   .     S
C677   C2190   1.165   1_554 S
C678   C1433   1.165   .     S
C679   C701    1.518   .     S
C679   C684    1.422   .     A
C680   C683    1.410   .     A
C680   C705    1.515   .     S
C680   C514    1.385   1_655 S
C681   C709    1.517   .     S
C681   C683    1.402   .     A
C681   C511    1.391   1_655 S
C682   C713    1.516   .     S
C682   C684    1.405   .     A
C685   N690    1.394   .     A
C685   C717    1.540   .     S
C686   C727    1.525   .     S
C686   N689    1.392   .     A
C686   C183    1.438   1_565 S
C687   N690    1.378   .     A
C687   C737    1.528   .     S
C688   C747    1.520   .     S
C688   N689    1.386   .     A
C688   C181    1.453   1_565 S
N689   Zn699   2.054   .     S
N690   Zn700   2.054   .     S
O691   Zn699   1.987   .     S
O692   Zn700   1.987   .     S
O693   Zn699   1.987   .     S
O694   Zn700   1.987   .     S
O695   Zn699   1.939   .     S
O696   Zn700   1.939   .     S
O697   Zn699   1.950   .     S
O698   Zn700   1.950   .     S
C701   H704    1.104   .     S
C701   H702    1.111   .     S
C701   H703    1.109   .     S
C705   H708    1.111   .     S
C705   H706    1.109   .     S
C705   H707    1.106   .     S
C709   H710    1.107   .     S
C709   H711    1.111   .     S
C709   H712    1.111   .     S
C713   H714    1.108   .     S
C713   H715    1.107   .     S
C713   H716    1.111   .     S
C717   C718    1.545   .     S
C717   H725    1.068   .     S
C717   H726    1.105   .     S
C718   H724    1.110   .     S
C718   H723    1.109   .     S
C718   C719    1.532   .     S
C719   H721    1.111   .     S
C719   H720    1.108   .     S
C719   H722    1.111   .     S
C727   C728    1.536   .     S
C727   H735    1.073   .     S
C727   H736    1.103   .     S
C728   C729    1.524   .     S
C728   H734    1.109   .     S
C728   H733    1.109   .     S
C729   H731    1.107   .     S
C729   H730    1.111   .     S
C729   H2244   1.107   1_554 S
H732   C1485   1.107   .     S
C737   H745    1.099   .     S
C737   H746    1.091   .     S
C737   C738    1.535   .     S
C738   H744    1.106   .     S
C738   H743    1.110   .     S
C738   C2251   1.530   1_554 S
C739   H740    1.109   .     S
C739   H742    1.108   .     S
C739   C1494   1.530   .     S
C739   H1497   1.109   .     S
H741   C2251   1.109   1_554 S
C747   H756    1.094   .     S
C747   C748    1.540   .     S
C747   H755    1.079   .     S
C748   H754    1.110   .     S
C748   H753    1.100   .     S
C748   C1505   1.527   .     S
C749   H751    1.111   .     S
C749   H752    1.110   .     S
C749   C2260   1.527   1_554 S
C749   H2262   1.110   1_554 S
H750   C1505   1.110   .     S
C757   O778    1.299   .     A
C757   C768    1.455   .     S
C757   O775    1.319   .     A
C758   C767    1.451   .     S
C758   O776    1.316   .     A
C758   O777    1.300   .     A
C759   O779    1.291   .     A
C759   O782    1.297   .     A
C759   C761    1.365   .     S
C760   O781    1.296   .     A
C760   O780    1.292   .     A
C760   C762    1.365   .     S
C762   C1517   1.165   .     S
C763   C785    1.518   .     S
C763   C768    1.422   .     A
C763   C933    1.391   1_455 S
C764   C767    1.410   .     A
C764   C789    1.515   .     S
C764   C850    1.385   .     S
C765   C793    1.517   .     S
C765   C767    1.402   .     A
C765   C847    1.391   .     S
C766   C797    1.516   .     S
C766   C768    1.405   .     A
C766   C932    1.385   1_455 S
C769   N774    1.394   .     A
C769   C801    1.540   .     S
C769   C1276   1.453   1_545 S
C770   C811    1.525   .     S
C770   N773    1.392   .     A
C770   C1023   1.438   .     S
C771   N774    1.378   .     A
C771   C821    1.528   .     S
C771   C1274   1.438   1_545 S
C772   C831    1.520   .     S
C772   N773    1.386   .     A
C772   C1021   1.453   .     S
N773   Zn783   2.054   .     S
N774   Zn784   2.054   .     S
O775   Zn783   1.987   .     S
O776   Zn784   1.987   .     S
O777   Zn783   1.987   .     S
O778   Zn784   1.987   .     S
O779   Zn783   1.939   .     S
O780   Zn784   1.939   .     S
O781   Zn783   1.950   .     S
O782   Zn784   1.950   .     S
C785   H788    1.104   .     S
C785   H786    1.111   .     S
C785   H787    1.109   .     S
C789   H792    1.111   .     S
C789   H790    1.109   .     S
C789   H791    1.106   .     S
C793   H794    1.107   .     S
C793   H795    1.111   .     S
C793   H796    1.111   .     S
C797   H798    1.108   .     S
C797   H799    1.107   .     S
C797   H800    1.111   .     S
C801   C802    1.545   .     S
C801   H809    1.068   .     S
C801   H810    1.105   .     S
C802   H808    1.110   .     S
C802   H807    1.109   .     S
C802   C803    1.532   .     S
C803   H805    1.111   .     S
C803   H804    1.108   .     S
C803   H806    1.111   .     S
C811   C812    1.536   .     S
C811   H819    1.073   .     S
C811   H820    1.103   .     S
C812   C813    1.524   .     S
C812   H818    1.109   .     S
C812   H817    1.109   .     S
C813   H815    1.107   .     S
C813   H814    1.111   .     S
H816   C1569   1.107   .     S
C821   H829    1.099   .     S
C821   H830    1.091   .     S
C821   C822    1.535   .     S
C822   H828    1.106   .     S
C822   H827    1.110   .     S
C823   H824    1.109   .     S
C823   H826    1.108   .     S
C823   C1578   1.530   .     S
C823   H1581   1.109   .     S
C831   H840    1.094   .     S
C831   C832    1.540   .     S
C831   H839    1.079   .     S
C832   H838    1.110   .     S
C832   H837    1.100   .     S
C832   C1589   1.527   .     S
C833   H835    1.111   .     S
C833   H836    1.110   .     S
H834   C1589   1.110   .     S
C841   O862    1.299   .     A
C841   C852    1.455   .     S
C841   O859    1.319   .     A
C842   C851    1.451   .     S
C842   O860    1.316   .     A
C842   O861    1.300   .     A
C843   O863    1.291   .     A
C843   O866    1.297   .     A
C843   C845    1.365   .     S
C844   O865    1.296   .     A
C844   O864    1.292   .     A
C844   C846    1.365   .     S
C846   C1601   1.165   .     S
C847   C869    1.518   .     S
C847   C852    1.422   .     A
C848   C851    1.410   .     A
C848   C873    1.515   .     S
C848   C934    1.385   .     S
C849   C877    1.517   .     S
C849   C851    1.402   .     A
C849   C931    1.391   .     S
C850   C881    1.516   .     S
C850   C852    1.405   .     A
C853   N858    1.394   .     A
C853   C885    1.540   .     S
C853   C1360   1.453   1_545 S
C854   C895    1.525   .     S
C854   N857    1.392   .     A
C854   C1107   1.438   .     S
C855   N858    1.378   .     A
C855   C905    1.528   .     S
C855   C1358   1.438   1_545 S
C856   C915    1.520   .     S
C856   N857    1.386   .     A
C856   C1105   1.453   .     S
N857   Zn867   2.054   .     S
N858   Zn868   2.054   .     S
O859   Zn867   1.987   .     S
O860   Zn868   1.987   .     S
O861   Zn867   1.987   .     S
O862   Zn868   1.987   .     S
O863   Zn867   1.939   .     S
O864   Zn868   1.939   .     S
O865   Zn867   1.950   .     S
O866   Zn868   1.950   .     S
C869   H872    1.104   .     S
C869   H870    1.111   .     S
C869   H871    1.109   .     S
C873   H876    1.111   .     S
C873   H874    1.109   .     S
C873   H875    1.106   .     S
C877   H878    1.107   .     S
C877   H879    1.111   .     S
C877   H880    1.111   .     S
C881   H882    1.108   .     S
C881   H883    1.107   .     S
C881   H884    1.111   .     S
C885   C886    1.545   .     S
C885   H893    1.068   .     S
C885   H894    1.105   .     S
C886   H892    1.110   .     S
C886   H891    1.109   .     S
C886   C887    1.532   .     S
C887   H889    1.111   .     S
C887   H888    1.108   .     S
C887   H890    1.111   .     S
C895   C896    1.536   .     S
C895   H903    1.073   .     S
C895   H904    1.103   .     S
C896   C897    1.524   .     S
C896   H902    1.109   .     S
C896   H901    1.109   .     S
C897   H899    1.107   .     S
C897   H898    1.111   .     S
H900   C1653   1.107   .     S
C905   H913    1.099   .     S
C905   H914    1.091   .     S
C905   C906    1.535   .     S
C906   H912    1.106   .     S
C906   H911    1.110   .     S
C907   H908    1.109   .     S
C907   H910    1.108   .     S
C907   C1662   1.530   .     S
C907   H1665   1.109   .     S
C915   H924    1.094   .     S
C915   C916    1.540   .     S
C915   H923    1.079   .     S
C916   H922    1.110   .     S
C916   H921    1.100   .     S
C916   C1673   1.527   .     S
C917   H919    1.111   .     S
C917   H920    1.110   .     S
H918   C1673   1.110   .     S
C925   O946    1.299   .     A
C925   C936    1.455   .     S
C925   O943    1.319   .     A
C926   C935    1.451   .     S
C926   O944    1.316   .     A
C926   O945    1.300   .     A
C927   O947    1.291   .     A
C927   O950    1.297   .     A
C927   C929    1.365   .     S
C928   O949    1.296   .     A
C928   O948    1.292   .     A
C928   C930    1.365   .     S
C930   C1685   1.165   .     S
C931   C953    1.518   .     S
C931   C936    1.422   .     A
C932   C935    1.410   .     A
C932   C957    1.515   .     S
C932   C766    1.385   1_655 S
C933   C961    1.517   .     S
C933   C935    1.402   .     A
C933   C763    1.391   1_655 S
C934   C965    1.516   .     S
C934   C936    1.405   .     A
C937   N942    1.394   .     A
C937   C969    1.540   .     S
C937   C1444   1.453   1_545 S
C938   C979    1.525   .     S
C938   N941    1.392   .     A
C938   C1191   1.438   .     S
C939   N942    1.378   .     A
C939   C989    1.528   .     S
C939   C1442   1.438   1_545 S
C940   C999    1.520   .     S
C940   N941    1.386   .     A
C940   C1189   1.453   .     S
N941   Zn951   2.054   .     S
N942   Zn952   2.054   .     S
O943   Zn951   1.987   .     S
O944   Zn952   1.987   .     S
O945   Zn951   1.987   .     S
O946   Zn952   1.987   .     S
O947   Zn951   1.939   .     S
O948   Zn952   1.939   .     S
O949   Zn951   1.950   .     S
O950   Zn952   1.950   .     S
C953   H956    1.104   .     S
C953   H954    1.111   .     S
C953   H955    1.109   .     S
C957   H960    1.111   .     S
C957   H958    1.109   .     S
C957   H959    1.106   .     S
C961   H962    1.107   .     S
C961   H963    1.111   .     S
C961   H964    1.111   .     S
C965   H966    1.108   .     S
C965   H967    1.107   .     S
C965   H968    1.111   .     S
C969   C970    1.545   .     S
C969   H977    1.068   .     S
C969   H978    1.105   .     S
C970   H976    1.110   .     S
C970   H975    1.109   .     S
C970   C971    1.532   .     S
C971   H973    1.111   .     S
C971   H972    1.108   .     S
C971   H974    1.111   .     S
C979   C980    1.536   .     S
C979   H987    1.073   .     S
C979   H988    1.103   .     S
C980   C981    1.524   .     S
C980   H986    1.109   .     S
C980   H985    1.109   .     S
C981   H983    1.107   .     S
C981   H982    1.111   .     S
H984   C1737   1.107   .     S
C989   H997    1.099   .     S
C989   H998    1.091   .     S
C989   C990    1.535   .     S
C990   H996    1.106   .     S
C990   H995    1.110   .     S
C991   H992    1.109   .     S
C991   H994    1.108   .     S
C991   C1746   1.530   .     S
C991   H1749   1.109   .     S
C999   H1008   1.094   .     S
C999   C1000   1.540   .     S
C999   H1007   1.079   .     S
C1000  H1006   1.110   .     S
C1000  H1005   1.100   .     S
C1000  C1757   1.527   .     S
C1001  H1003   1.111   .     S
C1001  H1004   1.110   .     S
H1002  C1757   1.110   .     S
C1009  O1030   1.299   .     A
C1009  C1020   1.455   .     S
C1009  O1027   1.319   .     A
C1010  C1019   1.451   .     S
C1010  O1028   1.316   .     A
C1010  O1029   1.300   .     A
C1011  O1031   1.291   .     A
C1011  O1034   1.297   .     A
C1011  C1013   1.365   .     S
C1012  O1033   1.296   .     A
C1012  O1032   1.292   .     A
C1012  C1014   1.365   .     S
C1014  C1769   1.165   .     S
C1015  C1037   1.518   .     S
C1015  C1020   1.422   .     A
C1015  C1185   1.391   1_455 S
C1016  C1019   1.410   .     A
C1016  C1041   1.515   .     S
C1016  C1102   1.385   .     S
C1017  C1045   1.517   .     S
C1017  C1019   1.402   .     A
C1017  C1099   1.391   .     S
C1018  C1049   1.516   .     S
C1018  C1020   1.405   .     A
C1018  C1184   1.385   1_455 S
C1021  N1026   1.394   .     A
C1021  C1053   1.540   .     S
C1022  C1063   1.525   .     S
C1022  N1025   1.392   .     A
C1022  C1275   1.438   .     S
C1023  N1026   1.378   .     A
C1023  C1073   1.528   .     S
C1024  C1083   1.520   .     S
C1024  N1025   1.386   .     A
C1024  C1273   1.453   .     S
N1025  Zn1035  2.054   .     S
N1026  Zn1036  2.054   .     S
O1027  Zn1035  1.987   .     S
O1028  Zn1036  1.987   .     S
O1029  Zn1035  1.987   .     S
O1030  Zn1036  1.987   .     S
O1031  Zn1035  1.939   .     S
O1032  Zn1036  1.939   .     S
O1033  Zn1035  1.950   .     S
O1034  Zn1036  1.950   .     S
C1037  H1040   1.104   .     S
C1037  H1038   1.111   .     S
C1037  H1039   1.109   .     S
C1041  H1044   1.111   .     S
C1041  H1042   1.109   .     S
C1041  H1043   1.106   .     S
C1045  H1046   1.107   .     S
C1045  H1047   1.111   .     S
C1045  H1048   1.111   .     S
C1049  H1050   1.108   .     S
C1049  H1051   1.107   .     S
C1049  H1052   1.111   .     S
C1053  C1054   1.545   .     S
C1053  H1061   1.068   .     S
C1053  H1062   1.105   .     S
C1054  H1060   1.110   .     S
C1054  H1059   1.109   .     S
C1054  C1055   1.532   .     S
C1055  H1057   1.111   .     S
C1055  H1056   1.108   .     S
C1055  H1058   1.111   .     S
C1063  C1064   1.536   .     S
C1063  H1071   1.073   .     S
C1063  H1072   1.103   .     S
C1064  C1065   1.524   .     S
C1064  H1070   1.109   .     S
C1064  H1069   1.109   .     S
C1065  H1067   1.107   .     S
C1065  H1066   1.111   .     S
H1068  C1821   1.107   .     S
C1073  H1081   1.099   .     S
C1073  H1082   1.091   .     S
C1073  C1074   1.535   .     S
C1074  H1080   1.106   .     S
C1074  H1079   1.110   .     S
C1075  H1076   1.109   .     S
C1075  H1078   1.108   .     S
C1075  C1830   1.530   .     S
C1075  H1833   1.109   .     S
C1083  H1092   1.094   .     S
C1083  C1084   1.540   .     S
C1083  H1091   1.079   .     S
C1084  H1090   1.110   .     S
C1084  H1089   1.100   .     S
C1084  C1841   1.527   .     S
C1085  H1087   1.111   .     S
C1085  H1088   1.110   .     S
H1086  C1841   1.110   .     S
C1093  O1114   1.299   .     A
C1093  C1104   1.455   .     S
C1093  O1111   1.319   .     A
C1094  C1103   1.451   .     S
C1094  O1112   1.316   .     A
C1094  O1113   1.300   .     A
C1095  O1115   1.291   .     A
C1095  O1118   1.297   .     A
C1095  C1097   1.365   .     S
C1096  O1117   1.296   .     A
C1096  O1116   1.292   .     A
C1096  C1098   1.365   .     S
C1098  C1853   1.165   .     S
C1099  C1121   1.518   .     S
C1099  C1104   1.422   .     A
C1100  C1103   1.410   .     A
C1100  C1125   1.515   .     S
C1100  C1186   1.385   .     S
C1101  C1129   1.517   .     S
C1101  C1103   1.402   .     A
C1101  C1183   1.391   .     S
C1102  C1133   1.516   .     S
C1102  C1104   1.405   .     A
C1105  N1110   1.394   .     A
C1105  C1137   1.540   .     S
C1106  C1147   1.525   .     S
C1106  N1109   1.392   .     A
C1106  C1359   1.438   .     S
C1107  N1110   1.378   .     A
C1107  C1157   1.528   .     S
C1108  C1167   1.520   .     S
C1108  N1109   1.386   .     A
C1108  C1357   1.453   .     S
N1109  Zn1119  2.054   .     S
N1110  Zn1120  2.054   .     S
O1111  Zn1119  1.987   .     S
O1112  Zn1120  1.987   .     S
O1113  Zn1119  1.987   .     S
O1114  Zn1120  1.987   .     S
O1115  Zn1119  1.939   .     S
O1116  Zn1120  1.939   .     S
O1117  Zn1119  1.950   .     S
O1118  Zn1120  1.950   .     S
C1121  H1124   1.104   .     S
C1121  H1122   1.111   .     S
C1121  H1123   1.109   .     S
C1125  H1128   1.111   .     S
C1125  H1126   1.109   .     S
C1125  H1127   1.106   .     S
C1129  H1130   1.107   .     S
C1129  H1131   1.111   .     S
C1129  H1132   1.111   .     S
C1133  H1134   1.108   .     S
C1133  H1135   1.107   .     S
C1133  H1136   1.111   .     S
C1137  C1138   1.545   .     S
C1137  H1145   1.068   .     S
C1137  H1146   1.105   .     S
C1138  H1144   1.110   .     S
C1138  H1143   1.109   .     S
C1138  C1139   1.532   .     S
C1139  H1141   1.111   .     S
C1139  H1140   1.108   .     S
C1139  H1142   1.111   .     S
C1147  C1148   1.536   .     S
C1147  H1155   1.073   .     S
C1147  H1156   1.103   .     S
C1148  C1149   1.524   .     S
C1148  H1154   1.109   .     S
C1148  H1153   1.109   .     S
C1149  H1151   1.107   .     S
C1149  H1150   1.111   .     S
H1152  C1905   1.107   .     S
C1157  H1165   1.099   .     S
C1157  H1166   1.091   .     S
C1157  C1158   1.535   .     S
C1158  H1164   1.106   .     S
C1158  H1163   1.110   .     S
C1159  H1160   1.109   .     S
C1159  H1162   1.108   .     S
C1159  C1914   1.530   .     S
C1159  H1917   1.109   .     S
C1167  H1176   1.094   .     S
C1167  C1168   1.540   .     S
C1167  H1175   1.079   .     S
C1168  H1174   1.110   .     S
C1168  H1173   1.100   .     S
C1168  C1925   1.527   .     S
C1169  H1171   1.111   .     S
C1169  H1172   1.110   .     S
H1170  C1925   1.110   .     S
C1177  O1198   1.299   .     A
C1177  C1188   1.455   .     S
C1177  O1195   1.319   .     A
C1178  C1187   1.451   .     S
C1178  O1196   1.316   .     A
C1178  O1197   1.300   .     A
C1179  O1199   1.291   .     A
C1179  O1202   1.297   .     A
C1179  C1181   1.365   .     S
C1180  O1201   1.296   .     A
C1180  O1200   1.292   .     A
C1180  C1182   1.365   .     S
C1182  C1937   1.165   .     S
C1183  C1205   1.518   .     S
C1183  C1188   1.422   .     A
C1184  C1187   1.410   .     A
C1184  C1209   1.515   .     S
C1184  C1018   1.385   1_655 S
C1185  C1213   1.517   .     S
C1185  C1187   1.402   .     A
C1185  C1015   1.391   1_655 S
C1186  C1217   1.516   .     S
C1186  C1188   1.405   .     A
C1189  N1194   1.394   .     A
C1189  C1221   1.540   .     S
C1190  C1231   1.525   .     S
C1190  N1193   1.392   .     A
C1190  C1443   1.438   .     S
C1191  N1194   1.378   .     A
C1191  C1241   1.528   .     S
C1192  C1251   1.520   .     S
C1192  N1193   1.386   .     A
C1192  C1441   1.453   .     S
N1193  Zn1203  2.054   .     S
N1194  Zn1204  2.054   .     S
O1195  Zn1203  1.987   .     S
O1196  Zn1204  1.987   .     S
O1197  Zn1203  1.987   .     S
O1198  Zn1204  1.987   .     S
O1199  Zn1203  1.939   .     S
O1200  Zn1204  1.939   .     S
O1201  Zn1203  1.950   .     S
O1202  Zn1204  1.950   .     S
C1205  H1208   1.104   .     S
C1205  H1206   1.111   .     S
C1205  H1207   1.109   .     S
C1209  H1212   1.111   .     S
C1209  H1210   1.109   .     S
C1209  H1211   1.106   .     S
C1213  H1214   1.107   .     S
C1213  H1215   1.111   .     S
C1213  H1216   1.111   .     S
C1217  H1218   1.108   .     S
C1217  H1219   1.107   .     S
C1217  H1220   1.111   .     S
C1221  C1222   1.545   .     S
C1221  H1229   1.068   .     S
C1221  H1230   1.105   .     S
C1222  H1228   1.110   .     S
C1222  H1227   1.109   .     S
C1222  C1223   1.532   .     S
C1223  H1225   1.111   .     S
C1223  H1224   1.108   .     S
C1223  H1226   1.111   .     S
C1231  C1232   1.536   .     S
C1231  H1239   1.073   .     S
C1231  H1240   1.103   .     S
C1232  C1233   1.524   .     S
C1232  H1238   1.109   .     S
C1232  H1237   1.109   .     S
C1233  H1235   1.107   .     S
C1233  H1234   1.111   .     S
H1236  C1989   1.107   .     S
C1241  H1249   1.099   .     S
C1241  H1250   1.091   .     S
C1241  C1242   1.535   .     S
C1242  H1248   1.106   .     S
C1242  H1247   1.110   .     S
C1243  H1244   1.109   .     S
C1243  H1246   1.108   .     S
C1243  C1998   1.530   .     S
C1243  H2001   1.109   .     S
C1251  H1260   1.094   .     S
C1251  C1252   1.540   .     S
C1251  H1259   1.079   .     S
C1252  H1258   1.110   .     S
C1252  H1257   1.100   .     S
C1252  C2009   1.527   .     S
C1253  H1255   1.111   .     S
C1253  H1256   1.110   .     S
H1254  C2009   1.110   .     S
C1261  O1282   1.299   .     A
C1261  C1272   1.455   .     S
C1261  O1279   1.319   .     A
C1262  C1271   1.451   .     S
C1262  O1280   1.316   .     A
C1262  O1281   1.300   .     A
C1263  O1283   1.291   .     A
C1263  O1286   1.297   .     A
C1263  C1265   1.365   .     S
C1264  O1285   1.296   .     A
C1264  O1284   1.292   .     A
C1264  C1266   1.365   .     S
C1266  C2021   1.165   .     S
C1267  C1289   1.518   .     S
C1267  C1272   1.422   .     A
C1267  C1437   1.391   1_455 S
C1268  C1271   1.410   .     A
C1268  C1293   1.515   .     S
C1268  C1354   1.385   .     S
C1269  C1297   1.517   .     S
C1269  C1271   1.402   .     A
C1269  C1351   1.391   .     S
C1270  C1301   1.516   .     S
C1270  C1272   1.405   .     A
C1270  C1436   1.385   1_455 S
C1273  N1278   1.394   .     A
C1273  C1305   1.540   .     S
C1274  C1315   1.525   .     S
C1274  N1277   1.392   .     A
C1274  C771    1.438   1_565 S
C1275  N1278   1.378   .     A
C1275  C1325   1.528   .     S
C1276  C1335   1.520   .     S
C1276  N1277   1.386   .     A
C1276  C769    1.453   1_565 S
N1277  Zn1287  2.054   .     S
N1278  Zn1288  2.054   .     S
O1279  Zn1287  1.987   .     S
O1280  Zn1288  1.987   .     S
O1281  Zn1287  1.987   .     S
O1282  Zn1288  1.987   .     S
O1283  Zn1287  1.939   .     S
O1284  Zn1288  1.939   .     S
O1285  Zn1287  1.950   .     S
O1286  Zn1288  1.950   .     S
C1289  H1292   1.104   .     S
C1289  H1290   1.111   .     S
C1289  H1291   1.109   .     S
C1293  H1296   1.111   .     S
C1293  H1294   1.109   .     S
C1293  H1295   1.106   .     S
C1297  H1298   1.107   .     S
C1297  H1299   1.111   .     S
C1297  H1300   1.111   .     S
C1301  H1302   1.108   .     S
C1301  H1303   1.107   .     S
C1301  H1304   1.111   .     S
C1305  C1306   1.545   .     S
C1305  H1313   1.068   .     S
C1305  H1314   1.105   .     S
C1306  H1312   1.110   .     S
C1306  H1311   1.109   .     S
C1306  C1307   1.532   .     S
C1307  H1309   1.111   .     S
C1307  H1308   1.108   .     S
C1307  H1310   1.111   .     S
C1315  C1316   1.536   .     S
C1315  H1323   1.073   .     S
C1315  H1324   1.103   .     S
C1316  C1317   1.524   .     S
C1316  H1322   1.109   .     S
C1316  H1321   1.109   .     S
C1317  H1319   1.107   .     S
C1317  H1318   1.111   .     S
H1320  C2073   1.107   .     S
C1325  H1333   1.099   .     S
C1325  H1334   1.091   .     S
C1325  C1326   1.535   .     S
C1326  H1332   1.106   .     S
C1326  H1331   1.110   .     S
C1327  H1328   1.109   .     S
C1327  H1330   1.108   .     S
C1327  C2082   1.530   .     S
C1327  H2085   1.109   .     S
C1335  H1344   1.094   .     S
C1335  C1336   1.540   .     S
C1335  H1343   1.079   .     S
C1336  H1342   1.110   .     S
C1336  H1341   1.100   .     S
C1336  C2093   1.527   .     S
C1337  H1339   1.111   .     S
C1337  H1340   1.110   .     S
H1338  C2093   1.110   .     S
C1345  O1366   1.299   .     A
C1345  C1356   1.455   .     S
C1345  O1363   1.319   .     A
C1346  C1355   1.451   .     S
C1346  O1364   1.316   .     A
C1346  O1365   1.300   .     A
C1347  O1367   1.291   .     A
C1347  O1370   1.297   .     A
C1347  C1349   1.365   .     S
C1348  O1369   1.296   .     A
C1348  O1368   1.292   .     A
C1348  C1350   1.365   .     S
C1350  C2105   1.165   .     S
C1351  C1373   1.518   .     S
C1351  C1356   1.422   .     A
C1352  C1355   1.410   .     A
C1352  C1377   1.515   .     S
C1352  C1438   1.385   .     S
C1353  C1381   1.517   .     S
C1353  C1355   1.402   .     A
C1353  C1435   1.391   .     S
C1354  C1385   1.516   .     S
C1354  C1356   1.405   .     A
C1357  N1362   1.394   .     A
C1357  C1389   1.540   .     S
C1358  C1399   1.525   .     S
C1358  N1361   1.392   .     A
C1358  C855    1.438   1_565 S
C1359  N1362   1.378   .     A
C1359  C1409   1.528   .     S
C1360  C1419   1.520   .     S
C1360  N1361   1.386   .     A
C1360  C853    1.453   1_565 S
N1361  Zn1371  2.054   .     S
N1362  Zn1372  2.054   .     S
O1363  Zn1371  1.987   .     S
O1364  Zn1372  1.987   .     S
O1365  Zn1371  1.987   .     S
O1366  Zn1372  1.987   .     S
O1367  Zn1371  1.939   .     S
O1368  Zn1372  1.939   .     S
O1369  Zn1371  1.950   .     S
O1370  Zn1372  1.950   .     S
C1373  H1376   1.104   .     S
C1373  H1374   1.111   .     S
C1373  H1375   1.109   .     S
C1377  H1380   1.111   .     S
C1377  H1378   1.109   .     S
C1377  H1379   1.106   .     S
C1381  H1382   1.107   .     S
C1381  H1383   1.111   .     S
C1381  H1384   1.111   .     S
C1385  H1386   1.108   .     S
C1385  H1387   1.107   .     S
C1385  H1388   1.111   .     S
C1389  C1390   1.545   .     S
C1389  H1397   1.068   .     S
C1389  H1398   1.105   .     S
C1390  H1396   1.110   .     S
C1390  H1395   1.109   .     S
C1390  C1391   1.532   .     S
C1391  H1393   1.111   .     S
C1391  H1392   1.108   .     S
C1391  H1394   1.111   .     S
C1399  C1400   1.536   .     S
C1399  H1407   1.073   .     S
C1399  H1408   1.103   .     S
C1400  C1401   1.524   .     S
C1400  H1406   1.109   .     S
C1400  H1405   1.109   .     S
C1401  H1403   1.107   .     S
C1401  H1402   1.111   .     S
H1404  C2157   1.107   .     S
C1409  H1417   1.099   .     S
C1409  H1418   1.091   .     S
C1409  C1410   1.535   .     S
C1410  H1416   1.106   .     S
C1410  H1415   1.110   .     S
C1411  H1412   1.109   .     S
C1411  H1414   1.108   .     S
C1411  C2166   1.530   .     S
C1411  H2169   1.109   .     S
C1419  H1428   1.094   .     S
C1419  C1420   1.540   .     S
C1419  H1427   1.079   .     S
C1420  H1426   1.110   .     S
C1420  H1425   1.100   .     S
C1420  C2177   1.527   .     S
C1421  H1423   1.111   .     S
C1421  H1424   1.110   .     S
H1422  C2177   1.110   .     S
C1429  O1450   1.299   .     A
C1429  C1440   1.455   .     S
C1429  O1447   1.319   .     A
C1430  C1439   1.451   .     S
C1430  O1448   1.316   .     A
C1430  O1449   1.300   .     A
C1431  O1451   1.291   .     A
C1431  O1454   1.297   .     A
C1431  C1433   1.365   .     S
C1432  O1453   1.296   .     A
C1432  O1452   1.292   .     A
C1432  C1434   1.365   .     S
C1434  C2189   1.165   .     S
C1435  C1457   1.518   .     S
C1435  C1440   1.422   .     A
C1436  C1439   1.410   .     A
C1436  C1461   1.515   .     S
C1436  C1270   1.385   1_655 S
C1437  C1465   1.517   .     S
C1437  C1439   1.402   .     A
C1437  C1267   1.391   1_655 S
C1438  C1469   1.516   .     S
C1438  C1440   1.405   .     A
C1441  N1446   1.394   .     A
C1441  C1473   1.540   .     S
C1442  C1483   1.525   .     S
C1442  N1445   1.392   .     A
C1442  C939    1.438   1_565 S
C1443  N1446   1.378   .     A
C1443  C1493   1.528   .     S
C1444  C1503   1.520   .     S
C1444  N1445   1.386   .     A
C1444  C937    1.453   1_565 S
N1445  Zn1455  2.054   .     S
N1446  Zn1456  2.054   .     S
O1447  Zn1455  1.987   .     S
O1448  Zn1456  1.987   .     S
O1449  Zn1455  1.987   .     S
O1450  Zn1456  1.987   .     S
O1451  Zn1455  1.939   .     S
O1452  Zn1456  1.939   .     S
O1453  Zn1455  1.950   .     S
O1454  Zn1456  1.950   .     S
C1457  H1460   1.104   .     S
C1457  H1458   1.111   .     S
C1457  H1459   1.109   .     S
C1461  H1464   1.111   .     S
C1461  H1462   1.109   .     S
C1461  H1463   1.106   .     S
C1465  H1466   1.107   .     S
C1465  H1467   1.111   .     S
C1465  H1468   1.111   .     S
C1469  H1470   1.108   .     S
C1469  H1471   1.107   .     S
C1469  H1472   1.111   .     S
C1473  C1474   1.545   .     S
C1473  H1481   1.068   .     S
C1473  H1482   1.105   .     S
C1474  H1480   1.110   .     S
C1474  H1479   1.109   .     S
C1474  C1475   1.532   .     S
C1475  H1477   1.111   .     S
C1475  H1476   1.108   .     S
C1475  H1478   1.111   .     S
C1483  C1484   1.536   .     S
C1483  H1491   1.073   .     S
C1483  H1492   1.103   .     S
C1484  C1485   1.524   .     S
C1484  H1490   1.109   .     S
C1484  H1489   1.109   .     S
C1485  H1487   1.107   .     S
C1485  H1486   1.111   .     S
H1488  C2241   1.107   .     S
C1493  H1501   1.099   .     S
C1493  H1502   1.091   .     S
C1493  C1494   1.535   .     S
C1494  H1500   1.106   .     S
C1494  H1499   1.110   .     S
C1495  H1496   1.109   .     S
C1495  H1498   1.108   .     S
C1495  C2250   1.530   .     S
C1495  H2253   1.109   .     S
C1503  H1512   1.094   .     S
C1503  C1504   1.540   .     S
C1503  H1511   1.079   .     S
C1504  H1510   1.110   .     S
C1504  H1509   1.100   .     S
C1504  C2261   1.527   .     S
C1505  H1507   1.111   .     S
C1505  H1508   1.110   .     S
H1506  C2261   1.110   .     S
C1513  O1534   1.299   .     A
C1513  C1524   1.455   .     S
C1513  O1531   1.319   .     A
C1514  C1523   1.451   .     S
C1514  O1532   1.316   .     A
C1514  O1533   1.300   .     A
C1515  O1535   1.291   .     A
C1515  O1538   1.297   .     A
C1515  C1517   1.365   .     S
C1516  O1537   1.296   .     A
C1516  O1536   1.292   .     A
C1516  C1518   1.365   .     S
C1518  C5      1.165   1_556 S
C1519  C1541   1.518   .     S
C1519  C1524   1.422   .     A
C1519  C1689   1.391   1_455 S
C1520  C1523   1.410   .     A
C1520  C1545   1.515   .     S
C1520  C1606   1.385   .     S
C1521  C1549   1.517   .     S
C1521  C1523   1.402   .     A
C1521  C1603   1.391   .     S
C1522  C1553   1.516   .     S
C1522  C1524   1.405   .     A
C1522  C1688   1.385   1_455 S
C1525  N1530   1.394   .     A
C1525  C1557   1.540   .     S
C1525  C2032   1.453   1_545 S
C1526  C1567   1.525   .     S
C1526  N1529   1.392   .     A
C1526  C1779   1.438   .     S
C1527  N1530   1.378   .     A
C1527  C1577   1.528   .     S
C1527  C2030   1.438   1_545 S
C1528  C1587   1.520   .     S
C1528  N1529   1.386   .     A
C1528  C1777   1.453   .     S
N1529  Zn1539  2.054   .     S
N1530  Zn1540  2.054   .     S
O1531  Zn1539  1.987   .     S
O1532  Zn1540  1.987   .     S
O1533  Zn1539  1.987   .     S
O1534  Zn1540  1.987   .     S
O1535  Zn1539  1.939   .     S
O1536  Zn1540  1.939   .     S
O1537  Zn1539  1.950   .     S
O1538  Zn1540  1.950   .     S
C1541  H1544   1.104   .     S
C1541  H1542   1.111   .     S
C1541  H1543   1.109   .     S
C1545  H1548   1.111   .     S
C1545  H1546   1.109   .     S
C1545  H1547   1.106   .     S
C1549  H1550   1.107   .     S
C1549  H1551   1.111   .     S
C1549  H1552   1.111   .     S
C1553  H1554   1.108   .     S
C1553  H1555   1.107   .     S
C1553  H1556   1.111   .     S
C1557  C1558   1.545   .     S
C1557  H1565   1.068   .     S
C1557  H1566   1.105   .     S
C1558  H1564   1.110   .     S
C1558  H1563   1.109   .     S
C1558  C1559   1.532   .     S
C1559  H1561   1.111   .     S
C1559  H1560   1.108   .     S
C1559  H1562   1.111   .     S
C1567  C1568   1.536   .     S
C1567  H1575   1.073   .     S
C1567  H1576   1.103   .     S
C1568  C1569   1.524   .     S
C1568  H1574   1.109   .     S
C1568  H1573   1.109   .     S
C1569  H1571   1.107   .     S
C1569  H1570   1.111   .     S
H1572  C57     1.107   1_556 S
C1577  H1585   1.099   .     S
C1577  H1586   1.091   .     S
C1577  C1578   1.535   .     S
C1578  H1584   1.106   .     S
C1578  H1583   1.110   .     S
C1579  H1580   1.109   .     S
C1579  H1582   1.108   .     S
C1579  C66     1.530   1_556 S
C1579  H69     1.109   1_556 S
C1587  H1596   1.094   .     S
C1587  C1588   1.540   .     S
C1587  H1595   1.079   .     S
C1588  H1594   1.110   .     S
C1588  H1593   1.100   .     S
C1588  C77     1.527   1_556 S
C1589  H1591   1.111   .     S
C1589  H1592   1.110   .     S
H1590  C77     1.110   1_556 S
C1597  O1618   1.299   .     A
C1597  C1608   1.455   .     S
C1597  O1615   1.319   .     A
C1598  C1607   1.451   .     S
C1598  O1616   1.316   .     A
C1598  O1617   1.300   .     A
C1599  O1619   1.291   .     A
C1599  O1622   1.297   .     A
C1599  C1601   1.365   .     S
C1600  O1621   1.296   .     A
C1600  O1620   1.292   .     A
C1600  C1602   1.365   .     S
C1602  C89     1.165   1_556 S
C1603  C1625   1.518   .     S
C1603  C1608   1.422   .     A
C1604  C1607   1.410   .     A
C1604  C1629   1.515   .     S
C1604  C1690   1.385   .     S
C1605  C1633   1.517   .     S
C1605  C1607   1.402   .     A
C1605  C1687   1.391   .     S
C1606  C1637   1.516   .     S
C1606  C1608   1.405   .     A
C1609  N1614   1.394   .     A
C1609  C1641   1.540   .     S
C1609  C2116   1.453   1_545 S
C1610  C1651   1.525   .     S
C1610  N1613   1.392   .     A
C1610  C1863   1.438   .     S
C1611  N1614   1.378   .     A
C1611  C1661   1.528   .     S
C1611  C2114   1.438   1_545 S
C1612  C1671   1.520   .     S
C1612  N1613   1.386   .     A
C1612  C1861   1.453   .     S
N1613  Zn1623  2.054   .     S
N1614  Zn1624  2.054   .     S
O1615  Zn1623  1.987   .     S
O1616  Zn1624  1.987   .     S
O1617  Zn1623  1.987   .     S
O1618  Zn1624  1.987   .     S
O1619  Zn1623  1.939   .     S
O1620  Zn1624  1.939   .     S
O1621  Zn1623  1.950   .     S
O1622  Zn1624  1.950   .     S
C1625  H1628   1.104   .     S
C1625  H1626   1.111   .     S
C1625  H1627   1.109   .     S
C1629  H1632   1.111   .     S
C1629  H1630   1.109   .     S
C1629  H1631   1.106   .     S
C1633  H1634   1.107   .     S
C1633  H1635   1.111   .     S
C1633  H1636   1.111   .     S
C1637  H1638   1.108   .     S
C1637  H1639   1.107   .     S
C1637  H1640   1.111   .     S
C1641  C1642   1.545   .     S
C1641  H1649   1.068   .     S
C1641  H1650   1.105   .     S
C1642  H1648   1.110   .     S
C1642  H1647   1.109   .     S
C1642  C1643   1.532   .     S
C1643  H1645   1.111   .     S
C1643  H1644   1.108   .     S
C1643  H1646   1.111   .     S
C1651  C1652   1.536   .     S
C1651  H1659   1.073   .     S
C1651  H1660   1.103   .     S
C1652  C1653   1.524   .     S
C1652  H1658   1.109   .     S
C1652  H1657   1.109   .     S
C1653  H1655   1.107   .     S
C1653  H1654   1.111   .     S
H1656  C141    1.107   1_556 S
C1661  H1669   1.099   .     S
C1661  H1670   1.091   .     S
C1661  C1662   1.535   .     S
C1662  H1668   1.106   .     S
C1662  H1667   1.110   .     S
C1663  H1664   1.109   .     S
C1663  H1666   1.108   .     S
C1663  C150    1.530   1_556 S
C1663  H153    1.109   1_556 S
C1671  H1680   1.094   .     S
C1671  C1672   1.540   .     S
C1671  H1679   1.079   .     S
C1672  H1678   1.110   .     S
C1672  H1677   1.100   .     S
C1672  C161    1.527   1_556 S
C1673  H1675   1.111   .     S
C1673  H1676   1.110   .     S
H1674  C161    1.110   1_556 S
C1681  O1702   1.299   .     A
C1681  C1692   1.455   .     S
C1681  O1699   1.319   .     A
C1682  C1691   1.451   .     S
C1682  O1700   1.316   .     A
C1682  O1701   1.300   .     A
C1683  O1703   1.291   .     A
C1683  O1706   1.297   .     A
C1683  C1685   1.365   .     S
C1684  O1705   1.296   .     A
C1684  O1704   1.292   .     A
C1684  C1686   1.365   .     S
C1686  C173    1.165   1_556 S
C1687  C1709   1.518   .     S
C1687  C1692   1.422   .     A
C1688  C1691   1.410   .     A
C1688  C1713   1.515   .     S
C1688  C1522   1.385   1_655 S
C1689  C1717   1.517   .     S
C1689  C1691   1.402   .     A
C1689  C1519   1.391   1_655 S
C1690  C1721   1.516   .     S
C1690  C1692   1.405   .     A
C1693  N1698   1.394   .     A
C1693  C1725   1.540   .     S
C1693  C2200   1.453   1_545 S
C1694  C1735   1.525   .     S
C1694  N1697   1.392   .     A
C1694  C1947   1.438   .     S
C1695  N1698   1.378   .     A
C1695  C1745   1.528   .     S
C1695  C2198   1.438   1_545 S
C1696  C1755   1.520   .     S
C1696  N1697   1.386   .     A
C1696  C1945   1.453   .     S
N1697  Zn1707  2.054   .     S
N1698  Zn1708  2.054   .     S
O1699  Zn1707  1.987   .     S
O1700  Zn1708  1.987   .     S
O1701  Zn1707  1.987   .     S
O1702  Zn1708  1.987   .     S
O1703  Zn1707  1.939   .     S
O1704  Zn1708  1.939   .     S
O1705  Zn1707  1.950   .     S
O1706  Zn1708  1.950   .     S
C1709  H1712   1.104   .     S
C1709  H1710   1.111   .     S
C1709  H1711   1.109   .     S
C1713  H1716   1.111   .     S
C1713  H1714   1.109   .     S
C1713  H1715   1.106   .     S
C1717  H1718   1.107   .     S
C1717  H1719   1.111   .     S
C1717  H1720   1.111   .     S
C1721  H1722   1.108   .     S
C1721  H1723   1.107   .     S
C1721  H1724   1.111   .     S
C1725  C1726   1.545   .     S
C1725  H1733   1.068   .     S
C1725  H1734   1.105   .     S
C1726  H1732   1.110   .     S
C1726  H1731   1.109   .     S
C1726  C1727   1.532   .     S
C1727  H1729   1.111   .     S
C1727  H1728   1.108   .     S
C1727  H1730   1.111   .     S
C1735  C1736   1.536   .     S
C1735  H1743   1.073   .     S
C1735  H1744   1.103   .     S
C1736  C1737   1.524   .     S
C1736  H1742   1.109   .     S
C1736  H1741   1.109   .     S
C1737  H1739   1.107   .     S
C1737  H1738   1.111   .     S
H1740  C225    1.107   1_556 S
C1745  H1753   1.099   .     S
C1745  H1754   1.091   .     S
C1745  C1746   1.535   .     S
C1746  H1752   1.106   .     S
C1746  H1751   1.110   .     S
C1747  H1748   1.109   .     S
C1747  H1750   1.108   .     S
C1747  C234    1.530   1_556 S
C1747  H237    1.109   1_556 S
C1755  H1764   1.094   .     S
C1755  C1756   1.540   .     S
C1755  H1763   1.079   .     S
C1756  H1762   1.110   .     S
C1756  H1761   1.100   .     S
C1756  C245    1.527   1_556 S
C1757  H1759   1.111   .     S
C1757  H1760   1.110   .     S
H1758  C245    1.110   1_556 S
C1765  O1786   1.299   .     A
C1765  C1776   1.455   .     S
C1765  O1783   1.319   .     A
C1766  C1775   1.451   .     S
C1766  O1784   1.316   .     A
C1766  O1785   1.300   .     A
C1767  O1787   1.291   .     A
C1767  O1790   1.297   .     A
C1767  C1769   1.365   .     S
C1768  O1789   1.296   .     A
C1768  O1788   1.292   .     A
C1768  C1770   1.365   .     S
C1770  C257    1.165   1_556 S
C1771  C1793   1.518   .     S
C1771  C1776   1.422   .     A
C1771  C1941   1.391   1_455 S
C1772  C1775   1.410   .     A
C1772  C1797   1.515   .     S
C1772  C1858   1.385   .     S
C1773  C1801   1.517   .     S
C1773  C1775   1.402   .     A
C1773  C1855   1.391   .     S
C1774  C1805   1.516   .     S
C1774  C1776   1.405   .     A
C1774  C1940   1.385   1_455 S
C1777  N1782   1.394   .     A
C1777  C1809   1.540   .     S
C1778  C1819   1.525   .     S
C1778  N1781   1.392   .     A
C1778  C2031   1.438   .     S
C1779  N1782   1.378   .     A
C1779  C1829   1.528   .     S
C1780  C1839   1.520   .     S
C1780  N1781   1.386   .     A
C1780  C2029   1.453   .     S
N1781  Zn1791  2.054   .     S
N1782  Zn1792  2.054   .     S
O1783  Zn1791  1.987   .     S
O1784  Zn1792  1.987   .     S
O1785  Zn1791  1.987   .     S
O1786  Zn1792  1.987   .     S
O1787  Zn1791  1.939   .     S
O1788  Zn1792  1.939   .     S
O1789  Zn1791  1.950   .     S
O1790  Zn1792  1.950   .     S
C1793  H1796   1.104   .     S
C1793  H1794   1.111   .     S
C1793  H1795   1.109   .     S
C1797  H1800   1.111   .     S
C1797  H1798   1.109   .     S
C1797  H1799   1.106   .     S
C1801  H1802   1.107   .     S
C1801  H1803   1.111   .     S
C1801  H1804   1.111   .     S
C1805  H1806   1.108   .     S
C1805  H1807   1.107   .     S
C1805  H1808   1.111   .     S
C1809  C1810   1.545   .     S
C1809  H1817   1.068   .     S
C1809  H1818   1.105   .     S
C1810  H1816   1.110   .     S
C1810  H1815   1.109   .     S
C1810  C1811   1.532   .     S
C1811  H1813   1.111   .     S
C1811  H1812   1.108   .     S
C1811  H1814   1.111   .     S
C1819  C1820   1.536   .     S
C1819  H1827   1.073   .     S
C1819  H1828   1.103   .     S
C1820  C1821   1.524   .     S
C1820  H1826   1.109   .     S
C1820  H1825   1.109   .     S
C1821  H1823   1.107   .     S
C1821  H1822   1.111   .     S
H1824  C309    1.107   1_556 S
C1829  H1837   1.099   .     S
C1829  H1838   1.091   .     S
C1829  C1830   1.535   .     S
C1830  H1836   1.106   .     S
C1830  H1835   1.110   .     S
C1831  H1832   1.109   .     S
C1831  H1834   1.108   .     S
C1831  C318    1.530   1_556 S
C1831  H321    1.109   1_556 S
C1839  H1848   1.094   .     S
C1839  C1840   1.540   .     S
C1839  H1847   1.079   .     S
C1840  H1846   1.110   .     S
C1840  H1845   1.100   .     S
C1840  C329    1.527   1_556 S
C1841  H1843   1.111   .     S
C1841  H1844   1.110   .     S
H1842  C329    1.110   1_556 S
C1849  O1870   1.299   .     A
C1849  C1860   1.455   .     S
C1849  O1867   1.319   .     A
C1850  C1859   1.451   .     S
C1850  O1868   1.316   .     A
C1850  O1869   1.300   .     A
C1851  O1871   1.291   .     A
C1851  O1874   1.297   .     A
C1851  C1853   1.365   .     S
C1852  O1873   1.296   .     A
C1852  O1872   1.292   .     A
C1852  C1854   1.365   .     S
C1854  C341    1.165   1_556 S
C1855  C1877   1.518   .     S
C1855  C1860   1.422   .     A
C1856  C1859   1.410   .     A
C1856  C1881   1.515   .     S
C1856  C1942   1.385   .     S
C1857  C1885   1.517   .     S
C1857  C1859   1.402   .     A
C1857  C1939   1.391   .     S
C1858  C1889   1.516   .     S
C1858  C1860   1.405   .     A
C1861  N1866   1.394   .     A
C1861  C1893   1.540   .     S
C1862  C1903   1.525   .     S
C1862  N1865   1.392   .     A
C1862  C2115   1.438   .     S
C1863  N1866   1.378   .     A
C1863  C1913   1.528   .     S
C1864  C1923   1.520   .     S
C1864  N1865   1.386   .     A
C1864  C2113   1.453   .     S
N1865  Zn1875  2.054   .     S
N1866  Zn1876  2.054   .     S
O1867  Zn1875  1.987   .     S
O1868  Zn1876  1.987   .     S
O1869  Zn1875  1.987   .     S
O1870  Zn1876  1.987   .     S
O1871  Zn1875  1.939   .     S
O1872  Zn1876  1.939   .     S
O1873  Zn1875  1.950   .     S
O1874  Zn1876  1.950   .     S
C1877  H1880   1.104   .     S
C1877  H1878   1.111   .     S
C1877  H1879   1.109   .     S
C1881  H1884   1.111   .     S
C1881  H1882   1.109   .     S
C1881  H1883   1.106   .     S
C1885  H1886   1.107   .     S
C1885  H1887   1.111   .     S
C1885  H1888   1.111   .     S
C1889  H1890   1.108   .     S
C1889  H1891   1.107   .     S
C1889  H1892   1.111   .     S
C1893  C1894   1.545   .     S
C1893  H1901   1.068   .     S
C1893  H1902   1.105   .     S
C1894  H1900   1.110   .     S
C1894  H1899   1.109   .     S
C1894  C1895   1.532   .     S
C1895  H1897   1.111   .     S
C1895  H1896   1.108   .     S
C1895  H1898   1.111   .     S
C1903  C1904   1.536   .     S
C1903  H1911   1.073   .     S
C1903  H1912   1.103   .     S
C1904  C1905   1.524   .     S
C1904  H1910   1.109   .     S
C1904  H1909   1.109   .     S
C1905  H1907   1.107   .     S
C1905  H1906   1.111   .     S
H1908  C393    1.107   1_556 S
C1913  H1921   1.099   .     S
C1913  H1922   1.091   .     S
C1913  C1914   1.535   .     S
C1914  H1920   1.106   .     S
C1914  H1919   1.110   .     S
C1915  H1916   1.109   .     S
C1915  H1918   1.108   .     S
C1915  C402    1.530   1_556 S
C1915  H405    1.109   1_556 S
C1923  H1932   1.094   .     S
C1923  C1924   1.540   .     S
C1923  H1931   1.079   .     S
C1924  H1930   1.110   .     S
C1924  H1929   1.100   .     S
C1924  C413    1.527   1_556 S
C1925  H1927   1.111   .     S
C1925  H1928   1.110   .     S
H1926  C413    1.110   1_556 S
C1933  O1954   1.299   .     A
C1933  C1944   1.455   .     S
C1933  O1951   1.319   .     A
C1934  C1943   1.451   .     S
C1934  O1952   1.316   .     A
C1934  O1953   1.300   .     A
C1935  O1955   1.291   .     A
C1935  O1958   1.297   .     A
C1935  C1937   1.365   .     S
C1936  O1957   1.296   .     A
C1936  O1956   1.292   .     A
C1936  C1938   1.365   .     S
C1938  C425    1.165   1_556 S
C1939  C1961   1.518   .     S
C1939  C1944   1.422   .     A
C1940  C1943   1.410   .     A
C1940  C1965   1.515   .     S
C1940  C1774   1.385   1_655 S
C1941  C1969   1.517   .     S
C1941  C1943   1.402   .     A
C1941  C1771   1.391   1_655 S
C1942  C1973   1.516   .     S
C1942  C1944   1.405   .     A
C1945  N1950   1.394   .     A
C1945  C1977   1.540   .     S
C1946  C1987   1.525   .     S
C1946  N1949   1.392   .     A
C1946  C2199   1.438   .     S
C1947  N1950   1.378   .     A
C1947  C1997   1.528   .     S
C1948  C2007   1.520   .     S
C1948  N1949   1.386   .     A
C1948  C2197   1.453   .     S
N1949  Zn1959  2.054   .     S
N1950  Zn1960  2.054   .     S
O1951  Zn1959  1.987   .     S
O1952  Zn1960  1.987   .     S
O1953  Zn1959  1.987   .     S
O1954  Zn1960  1.987   .     S
O1955  Zn1959  1.939   .     S
O1956  Zn1960  1.939   .     S
O1957  Zn1959  1.950   .     S
O1958  Zn1960  1.950   .     S
C1961  H1964   1.104   .     S
C1961  H1962   1.111   .     S
C1961  H1963   1.109   .     S
C1965  H1968   1.111   .     S
C1965  H1966   1.109   .     S
C1965  H1967   1.106   .     S
C1969  H1970   1.107   .     S
C1969  H1971   1.111   .     S
C1969  H1972   1.111   .     S
C1973  H1974   1.108   .     S
C1973  H1975   1.107   .     S
C1973  H1976   1.111   .     S
C1977  C1978   1.545   .     S
C1977  H1985   1.068   .     S
C1977  H1986   1.105   .     S
C1978  H1984   1.110   .     S
C1978  H1983   1.109   .     S
C1978  C1979   1.532   .     S
C1979  H1981   1.111   .     S
C1979  H1980   1.108   .     S
C1979  H1982   1.111   .     S
C1987  C1988   1.536   .     S
C1987  H1995   1.073   .     S
C1987  H1996   1.103   .     S
C1988  C1989   1.524   .     S
C1988  H1994   1.109   .     S
C1988  H1993   1.109   .     S
C1989  H1991   1.107   .     S
C1989  H1990   1.111   .     S
H1992  C477    1.107   1_556 S
C1997  H2005   1.099   .     S
C1997  H2006   1.091   .     S
C1997  C1998   1.535   .     S
C1998  H2004   1.106   .     S
C1998  H2003   1.110   .     S
C1999  H2000   1.109   .     S
C1999  H2002   1.108   .     S
C1999  C486    1.530   1_556 S
C1999  H489    1.109   1_556 S
C2007  H2016   1.094   .     S
C2007  C2008   1.540   .     S
C2007  H2015   1.079   .     S
C2008  H2014   1.110   .     S
C2008  H2013   1.100   .     S
C2008  C497    1.527   1_556 S
C2009  H2011   1.111   .     S
C2009  H2012   1.110   .     S
H2010  C497    1.110   1_556 S
C2017  O2038   1.299   .     A
C2017  C2028   1.455   .     S
C2017  O2035   1.319   .     A
C2018  C2027   1.451   .     S
C2018  O2036   1.316   .     A
C2018  O2037   1.300   .     A
C2019  O2039   1.291   .     A
C2019  O2042   1.297   .     A
C2019  C2021   1.365   .     S
C2020  O2041   1.296   .     A
C2020  O2040   1.292   .     A
C2020  C2022   1.365   .     S
C2022  C509    1.165   1_556 S
C2023  C2045   1.518   .     S
C2023  C2028   1.422   .     A
C2023  C2193   1.391   1_455 S
C2024  C2027   1.410   .     A
C2024  C2049   1.515   .     S
C2024  C2110   1.385   .     S
C2025  C2053   1.517   .     S
C2025  C2027   1.402   .     A
C2025  C2107   1.391   .     S
C2026  C2057   1.516   .     S
C2026  C2028   1.405   .     A
C2026  C2192   1.385   1_455 S
C2029  N2034   1.394   .     A
C2029  C2061   1.540   .     S
C2030  C2071   1.525   .     S
C2030  N2033   1.392   .     A
C2030  C1527   1.438   1_565 S
C2031  N2034   1.378   .     A
C2031  C2081   1.528   .     S
C2032  C2091   1.520   .     S
C2032  N2033   1.386   .     A
C2032  C1525   1.453   1_565 S
N2033  Zn2043  2.054   .     S
N2034  Zn2044  2.054   .     S
O2035  Zn2043  1.987   .     S
O2036  Zn2044  1.987   .     S
O2037  Zn2043  1.987   .     S
O2038  Zn2044  1.987   .     S
O2039  Zn2043  1.939   .     S
O2040  Zn2044  1.939   .     S
O2041  Zn2043  1.950   .     S
O2042  Zn2044  1.950   .     S
C2045  H2048   1.104   .     S
C2045  H2046   1.111   .     S
C2045  H2047   1.109   .     S
C2049  H2052   1.111   .     S
C2049  H2050   1.109   .     S
C2049  H2051   1.106   .     S
C2053  H2054   1.107   .     S
C2053  H2055   1.111   .     S
C2053  H2056   1.111   .     S
C2057  H2058   1.108   .     S
C2057  H2059   1.107   .     S
C2057  H2060   1.111   .     S
C2061  C2062   1.545   .     S
C2061  H2069   1.068   .     S
C2061  H2070   1.105   .     S
C2062  H2068   1.110   .     S
C2062  H2067   1.109   .     S
C2062  C2063   1.532   .     S
C2063  H2065   1.111   .     S
C2063  H2064   1.108   .     S
C2063  H2066   1.111   .     S
C2071  C2072   1.536   .     S
C2071  H2079   1.073   .     S
C2071  H2080   1.103   .     S
C2072  C2073   1.524   .     S
C2072  H2078   1.109   .     S
C2072  H2077   1.109   .     S
C2073  H2075   1.107   .     S
C2073  H2074   1.111   .     S
H2076  C561    1.107   1_556 S
C2081  H2089   1.099   .     S
C2081  H2090   1.091   .     S
C2081  C2082   1.535   .     S
C2082  H2088   1.106   .     S
C2082  H2087   1.110   .     S
C2083  H2084   1.109   .     S
C2083  H2086   1.108   .     S
C2083  C570    1.530   1_556 S
C2083  H573    1.109   1_556 S
C2091  H2100   1.094   .     S
C2091  C2092   1.540   .     S
C2091  H2099   1.079   .     S
C2092  H2098   1.110   .     S
C2092  H2097   1.100   .     S
C2092  C581    1.527   1_556 S
C2093  H2095   1.111   .     S
C2093  H2096   1.110   .     S
H2094  C581    1.110   1_556 S
C2101  O2122   1.299   .     A
C2101  C2112   1.455   .     S
C2101  O2119   1.319   .     A
C2102  C2111   1.451   .     S
C2102  O2120   1.316   .     A
C2102  O2121   1.300   .     A
C2103  O2123   1.291   .     A
C2103  O2126   1.297   .     A
C2103  C2105   1.365   .     S
C2104  O2125   1.296   .     A
C2104  O2124   1.292   .     A
C2104  C2106   1.365   .     S
C2106  C593    1.165   1_556 S
C2107  C2129   1.518   .     S
C2107  C2112   1.422   .     A
C2108  C2111   1.410   .     A
C2108  C2133   1.515   .     S
C2108  C2194   1.385   .     S
C2109  C2137   1.517   .     S
C2109  C2111   1.402   .     A
C2109  C2191   1.391   .     S
C2110  C2141   1.516   .     S
C2110  C2112   1.405   .     A
C2113  N2118   1.394   .     A
C2113  C2145   1.540   .     S
C2114  C2155   1.525   .     S
C2114  N2117   1.392   .     A
C2114  C1611   1.438   1_565 S
C2115  N2118   1.378   .     A
C2115  C2165   1.528   .     S
C2116  C2175   1.520   .     S
C2116  N2117   1.386   .     A
C2116  C1609   1.453   1_565 S
N2117  Zn2127  2.054   .     S
N2118  Zn2128  2.054   .     S
O2119  Zn2127  1.987   .     S
O2120  Zn2128  1.987   .     S
O2121  Zn2127  1.987   .     S
O2122  Zn2128  1.987   .     S
O2123  Zn2127  1.939   .     S
O2124  Zn2128  1.939   .     S
O2125  Zn2127  1.950   .     S
O2126  Zn2128  1.950   .     S
C2129  H2132   1.104   .     S
C2129  H2130   1.111   .     S
C2129  H2131   1.109   .     S
C2133  H2136   1.111   .     S
C2133  H2134   1.109   .     S
C2133  H2135   1.106   .     S
C2137  H2138   1.107   .     S
C2137  H2139   1.111   .     S
C2137  H2140   1.111   .     S
C2141  H2142   1.108   .     S
C2141  H2143   1.107   .     S
C2141  H2144   1.111   .     S
C2145  C2146   1.545   .     S
C2145  H2153   1.068   .     S
C2145  H2154   1.105   .     S
C2146  H2152   1.110   .     S
C2146  H2151   1.109   .     S
C2146  C2147   1.532   .     S
C2147  H2149   1.111   .     S
C2147  H2148   1.108   .     S
C2147  H2150   1.111   .     S
C2155  C2156   1.536   .     S
C2155  H2163   1.073   .     S
C2155  H2164   1.103   .     S
C2156  C2157   1.524   .     S
C2156  H2162   1.109   .     S
C2156  H2161   1.109   .     S
C2157  H2159   1.107   .     S
C2157  H2158   1.111   .     S
H2160  C645    1.107   1_556 S
C2165  H2173   1.099   .     S
C2165  H2174   1.091   .     S
C2165  C2166   1.535   .     S
C2166  H2172   1.106   .     S
C2166  H2171   1.110   .     S
C2167  H2168   1.109   .     S
C2167  H2170   1.108   .     S
C2167  C654    1.530   1_556 S
C2167  H657    1.109   1_556 S
C2175  H2184   1.094   .     S
C2175  C2176   1.540   .     S
C2175  H2183   1.079   .     S
C2176  H2182   1.110   .     S
C2176  H2181   1.100   .     S
C2176  C665    1.527   1_556 S
C2177  H2179   1.111   .     S
C2177  H2180   1.110   .     S
H2178  C665    1.110   1_556 S
C2185  O2206   1.299   .     A
C2185  C2196   1.455   .     S
C2185  O2203   1.319   .     A
C2186  C2195   1.451   .     S
C2186  O2204   1.316   .     A
C2186  O2205   1.300   .     A
C2187  O2207   1.291   .     A
C2187  O2210   1.297   .     A
C2187  C2189   1.365   .     S
C2188  O2209   1.296   .     A
C2188  O2208   1.292   .     A
C2188  C2190   1.365   .     S
C2190  C677    1.165   1_556 S
C2191  C2213   1.518   .     S
C2191  C2196   1.422   .     A
C2192  C2195   1.410   .     A
C2192  C2217   1.515   .     S
C2192  C2026   1.385   1_655 S
C2193  C2221   1.517   .     S
C2193  C2195   1.402   .     A
C2193  C2023   1.391   1_655 S
C2194  C2225   1.516   .     S
C2194  C2196   1.405   .     A
C2197  N2202   1.394   .     A
C2197  C2229   1.540   .     S
C2198  C2239   1.525   .     S
C2198  N2201   1.392   .     A
C2198  C1695   1.438   1_565 S
C2199  N2202   1.378   .     A
C2199  C2249   1.528   .     S
C2200  C2259   1.520   .     S
C2200  N2201   1.386   .     A
C2200  C1693   1.453   1_565 S
N2201  Zn2211  2.054   .     S
N2202  Zn2212  2.054   .     S
O2203  Zn2211  1.987   .     S
O2204  Zn2212  1.987   .     S
O2205  Zn2211  1.987   .     S
O2206  Zn2212  1.987   .     S
O2207  Zn2211  1.939   .     S
O2208  Zn2212  1.939   .     S
O2209  Zn2211  1.950   .     S
O2210  Zn2212  1.950   .     S
C2213  H2216   1.104   .     S
C2213  H2214   1.111   .     S
C2213  H2215   1.109   .     S
C2217  H2220   1.111   .     S
C2217  H2218   1.109   .     S
C2217  H2219   1.106   .     S
C2221  H2222   1.107   .     S
C2221  H2223   1.111   .     S
C2221  H2224   1.111   .     S
C2225  H2226   1.108   .     S
C2225  H2227   1.107   .     S
C2225  H2228   1.111   .     S
C2229  C2230   1.545   .     S
C2229  H2237   1.068   .     S
C2229  H2238   1.105   .     S
C2230  H2236   1.110   .     S
C2230  H2235   1.109   .     S
C2230  C2231   1.532   .     S
C2231  H2233   1.111   .     S
C2231  H2232   1.108   .     S
C2231  H2234   1.111   .     S
C2239  C2240   1.536   .     S
C2239  H2247   1.073   .     S
C2239  H2248   1.103   .     S
C2240  C2241   1.524   .     S
C2240  H2246   1.109   .     S
C2240  H2245   1.109   .     S
C2241  H2243   1.107   .     S
C2241  H2242   1.111   .     S
H2244  C729    1.107   1_556 S
C2249  H2257   1.099   .     S
C2249  H2258   1.091   .     S
C2249  C2250   1.535   .     S
C2250  H2256   1.106   .     S
C2250  H2255   1.110   .     S
C2251  H2252   1.109   .     S
C2251  H2254   1.108   .     S
C2251  C738    1.530   1_556 S
C2251  H741    1.109   1_556 S
C2259  H2268   1.094   .     S
C2259  C2260   1.540   .     S
C2259  H2267   1.079   .     S
C2260  H2266   1.110   .     S
C2260  H2265   1.100   .     S
C2260  C749    1.527   1_556 S
C2261  H2263   1.111   .     S
C2261  H2264   1.110   .     S
H2262  C749    1.110   1_556 S
