data_str_m3_o10_o17_pcu_sym.45
_audit_creation_date              2020-01-03
_audit_creation_method            'Materials Studio'
_symmetry_space_group_name_H-M    'P1'
_symmetry_Int_Tables_number       1
_symmetry_cell_setting            triclinic
loop_
_symmetry_equiv_pos_as_xyz
  x,y,z
_cell_length_a                    23.5613
_cell_length_b                    25.9264
_cell_length_c                    30.0075
_cell_angle_alpha                 92.5905
_cell_angle_beta                  85.3961
_cell_angle_gamma                 93.3442
loop_
_atom_site_label
_atom_site_type_symbol
_atom_site_fract_x
_atom_site_fract_y
_atom_site_fract_z
_atom_site_U_iso_or_equiv
_atom_site_adp_type
_atom_site_occupancy
Br1    Br    0.22014   0.32286   0.04611   0.00000  Uiso   1.00
Br2    Br    0.11320   0.01047   0.45389   0.00000  Uiso   1.00
Br3    Br    0.29178   0.28776   0.45043   0.00000  Uiso   1.00
Br4    Br    0.04155   0.04557   0.04957   0.00000  Uiso   1.00
C5     C     0.18145   0.26462   0.24952   0.00000  Uiso   1.00
C6     C     0.19380   0.20700   0.40564   0.00000  Uiso   1.00
C7     C     0.16697   0.16870   0.11608   0.00000  Uiso   1.00
C8     C     0.16636   0.16463   0.38393   0.00000  Uiso   1.00
C9     C     0.19783   0.20832   0.09253   0.00000  Uiso   1.00
C10    C     0.13550   0.12501   0.40747   0.00000  Uiso   1.00
C11    C     0.19296   0.21015   0.04631   0.00000  Uiso   1.00
C12    C     0.14037   0.12318   0.45369   0.00000  Uiso   1.00
C13    C     0.16592   0.16740   0.02357   0.00000  Uiso   1.00
C14    C     0.16741   0.16594   0.47643   0.00000  Uiso   1.00
C15    C     0.13610   0.12683   0.04780   0.00000  Uiso   1.00
C16    C     0.15189   0.06871   0.25048   0.00000  Uiso   1.00
C17    C     0.19723   0.20650   0.45220   0.00000  Uiso   1.00
C18    C     0.21631   0.25244   0.02168   0.00000  Uiso   1.00
C19    C     0.11702   0.08089   0.47832   0.00000  Uiso   1.00
C20    C     0.12490   0.07732   0.11997   0.00000  Uiso   1.00
C21    C     0.20843   0.25601   0.38003   0.00000  Uiso   1.00
C22    C     0.24199   0.24285   0.11597   0.00000  Uiso   1.00
C23    C     0.09134   0.09048   0.38403   0.00000  Uiso   1.00
C24    C     0.23638   0.00561   0.28422   0.00000  Uiso   1.00
C25    C     0.09696   0.32772   0.21578   0.00000  Uiso   1.00
C26    C     0.00634   0.13239   0.19532   0.00000  Uiso   1.00
C27    C     0.22683   0.24663   0.47581   0.00000  Uiso   1.00
C28    C     0.32699   0.20094   0.30468   0.00000  Uiso   1.00
C29    C     0.10650   0.08670   0.02419   0.00000  Uiso   1.00
C30    C     0.18765   0.31881   0.25638   0.00000  Uiso   1.00
C31    C     0.14568   0.01452   0.24362   0.00000  Uiso   1.00
C32    C     0.16642   0.16407   0.33608   0.00000  Uiso   1.00
C33    C     0.16692   0.16926   0.16392   0.00000  Uiso   1.00
C34    C     0.13953   0.12633   0.09436   0.00000  Uiso   1.00
H35    H     0.15120   0.07434   0.14867   0.00000  Uiso   1.00
H36    H     0.05851   0.07223   0.40758   0.00000  Uiso   1.00
H37    H     0.06465   0.11325   0.36451   0.00000  Uiso   1.00
H38    H     0.11261   0.06086   0.36171   0.00000  Uiso   1.00
H39    H     0.27082   0.02544   0.26280   0.00000  Uiso   1.00
H40    H     0.22049   0.03193   0.31213   0.00000  Uiso   1.00
H41    H     0.25629   0.30738   0.29981   0.00000  Uiso   1.00
H42    H     0.06252   0.30789   0.23720   0.00000  Uiso   1.00
H43    H     0.07704   0.02595   0.20019   0.00000  Uiso   1.00
H44    H     0.11284   0.30141   0.18787   0.00000  Uiso   1.00
H45    H     0.30615   0.10728   0.18003   0.00000  Uiso   1.00
H46    H     0.07944   0.07578   0.13245   0.00000  Uiso   1.00
H47    H     0.01854   0.16434   0.17245   0.00000  Uiso   1.00
H48    H     0.04150   0.10758   0.19975   0.00000  Uiso   1.00
H49    H     0.02718   0.22605   0.31997   0.00000  Uiso   1.00
H50    H     0.29183   0.22575   0.30025   0.00000  Uiso   1.00
H51    H     0.31479   0.16900   0.32755   0.00000  Uiso   1.00
H52    H     0.13425   0.04236   0.09882   0.00000  Uiso   1.00
H53    H     0.18213   0.25899   0.35133   0.00000  Uiso   1.00
H54    H     0.19909   0.29097   0.40118   0.00000  Uiso   1.00
H55    H     0.25389   0.25755   0.36754   0.00000  Uiso   1.00
H56    H     0.27482   0.26110   0.09242   0.00000  Uiso   1.00
H57    H     0.22072   0.27247   0.13828   0.00000  Uiso   1.00
H58    H     0.26868   0.22009   0.13549   0.00000  Uiso   1.00
N59    N     0.31678   0.15265   0.23783   0.00000  Uiso   1.00
N60    N     0.01656   0.18068   0.26217   0.00000  Uiso   1.00
O61    O     0.12975   0.24619   0.25299   0.00000  Uiso   1.00
O62    O     0.20358   0.08714   0.24702   0.00000  Uiso   1.00
O63    O     0.22613   0.23721   0.24519   0.00000  Uiso   1.00
O64    O     0.10720   0.09613   0.25482   0.00000  Uiso   1.00
O65    O     0.11847   0.17117   0.31998   0.00000  Uiso   1.00
O66    O     0.21486   0.16216   0.18003   0.00000  Uiso   1.00
O67    O     0.21485   0.16219   0.31218   0.00000  Uiso   1.00
O68    O     0.11848   0.17115   0.18783   0.00000  Uiso   1.00
Zn69   Zn    0.10231   0.17266   0.25521   0.00000  Uiso   1.00
Zn70   Zn    0.23102   0.16067   0.24479   0.00000  Uiso   1.00
Br71   Br    0.55347   0.32286   0.04611   0.00000  Uiso   1.00
Br72   Br    0.44653   0.01047   0.45389   0.00000  Uiso   1.00
Br73   Br    0.62512   0.28776   0.45043   0.00000  Uiso   1.00
Br74   Br    0.37489   0.04557   0.04957   0.00000  Uiso   1.00
C75    C     0.51478   0.26462   0.24952   0.00000  Uiso   1.00
C76    C     0.52714   0.20700   0.40564   0.00000  Uiso   1.00
C77    C     0.50031   0.16870   0.11608   0.00000  Uiso   1.00
C78    C     0.49969   0.16463   0.38393   0.00000  Uiso   1.00
C79    C     0.53117   0.20832   0.09253   0.00000  Uiso   1.00
C80    C     0.46883   0.12501   0.40747   0.00000  Uiso   1.00
C81    C     0.52629   0.21015   0.04631   0.00000  Uiso   1.00
C82    C     0.47370   0.12318   0.45369   0.00000  Uiso   1.00
C83    C     0.49925   0.16740   0.02357   0.00000  Uiso   1.00
C84    C     0.50075   0.16594   0.47643   0.00000  Uiso   1.00
C85    C     0.46943   0.12683   0.04780   0.00000  Uiso   1.00
C86    C     0.48522   0.06871   0.25048   0.00000  Uiso   1.00
C87    C     0.53057   0.20650   0.45220   0.00000  Uiso   1.00
C88    C     0.54964   0.25244   0.02168   0.00000  Uiso   1.00
C89    C     0.45036   0.08089   0.47832   0.00000  Uiso   1.00
C90    C     0.45823   0.07732   0.11997   0.00000  Uiso   1.00
C91    C     0.54177   0.25601   0.38003   0.00000  Uiso   1.00
C92    C     0.57532   0.24285   0.11597   0.00000  Uiso   1.00
C93    C     0.42467   0.09048   0.38403   0.00000  Uiso   1.00
C94    C     0.56971   0.00561   0.28422   0.00000  Uiso   1.00
C95    C     0.43029   0.32772   0.21578   0.00000  Uiso   1.00
C96    C     0.33968   0.13239   0.19532   0.00000  Uiso   1.00
C97    C     0.56016   0.24663   0.47581   0.00000  Uiso   1.00
C98    C     0.66032   0.20094   0.30468   0.00000  Uiso   1.00
C99    C     0.43984   0.08670   0.02419   0.00000  Uiso   1.00
C100   C     0.52099   0.31881   0.25638   0.00000  Uiso   1.00
C101   C     0.47901   0.01452   0.24362   0.00000  Uiso   1.00
C102   C     0.49975   0.16407   0.33608   0.00000  Uiso   1.00
C103   C     0.50025   0.16926   0.16392   0.00000  Uiso   1.00
C104   C     0.47286   0.12633   0.09436   0.00000  Uiso   1.00
H105   H     0.48453   0.07434   0.14867   0.00000  Uiso   1.00
H106   H     0.39184   0.07223   0.40758   0.00000  Uiso   1.00
H107   H     0.39798   0.11325   0.36451   0.00000  Uiso   1.00
H108   H     0.44594   0.06086   0.36171   0.00000  Uiso   1.00
H109   H     0.60415   0.02544   0.26280   0.00000  Uiso   1.00
H110   H     0.55382   0.03193   0.31213   0.00000  Uiso   1.00
H111   H     0.58963   0.30738   0.29981   0.00000  Uiso   1.00
H112   H     0.39585   0.30789   0.23720   0.00000  Uiso   1.00
H113   H     0.41038   0.02595   0.20019   0.00000  Uiso   1.00
H114   H     0.44618   0.30141   0.18787   0.00000  Uiso   1.00
H115   H     0.63948   0.10728   0.18003   0.00000  Uiso   1.00
H116   H     0.41277   0.07578   0.13245   0.00000  Uiso   1.00
H117   H     0.35188   0.16434   0.17245   0.00000  Uiso   1.00
H118   H     0.37483   0.10758   0.19975   0.00000  Uiso   1.00
H119   H     0.36051   0.22605   0.31997   0.00000  Uiso   1.00
H120   H     0.62517   0.22575   0.30025   0.00000  Uiso   1.00
H121   H     0.64812   0.16900   0.32755   0.00000  Uiso   1.00
H122   H     0.46758   0.04236   0.09882   0.00000  Uiso   1.00
H123   H     0.51546   0.25899   0.35133   0.00000  Uiso   1.00
H124   H     0.53242   0.29097   0.40118   0.00000  Uiso   1.00
H125   H     0.58723   0.25755   0.36754   0.00000  Uiso   1.00
H126   H     0.60816   0.26110   0.09242   0.00000  Uiso   1.00
H127   H     0.55405   0.27247   0.13828   0.00000  Uiso   1.00
H128   H     0.60202   0.22009   0.13549   0.00000  Uiso   1.00
N129   N     0.65011   0.15265   0.23783   0.00000  Uiso   1.00
N130   N     0.34989   0.18068   0.26217   0.00000  Uiso   1.00
O131   O     0.46308   0.24619   0.25299   0.00000  Uiso   1.00
O132   O     0.53692   0.08714   0.24702   0.00000  Uiso   1.00
O133   O     0.55946   0.23721   0.24519   0.00000  Uiso   1.00
O134   O     0.44054   0.09613   0.25482   0.00000  Uiso   1.00
O135   O     0.45181   0.17117   0.31998   0.00000  Uiso   1.00
O136   O     0.54819   0.16216   0.18003   0.00000  Uiso   1.00
O137   O     0.54819   0.16219   0.31218   0.00000  Uiso   1.00
O138   O     0.45181   0.17115   0.18783   0.00000  Uiso   1.00
Zn139  Zn    0.43565   0.17266   0.25521   0.00000  Uiso   1.00
Zn140  Zn    0.56435   0.16067   0.24479   0.00000  Uiso   1.00
Br141  Br    0.88681   0.32286   0.04611   0.00000  Uiso   1.00
Br142  Br    0.77986   0.01047   0.45389   0.00000  Uiso   1.00
Br143  Br    0.95845   0.28776   0.45043   0.00000  Uiso   1.00
Br144  Br    0.70822   0.04557   0.04957   0.00000  Uiso   1.00
C145   C     0.84811   0.26462   0.24952   0.00000  Uiso   1.00
C146   C     0.86047   0.20700   0.40564   0.00000  Uiso   1.00
C147   C     0.83364   0.16870   0.11608   0.00000  Uiso   1.00
C148   C     0.83303   0.16463   0.38393   0.00000  Uiso   1.00
C149   C     0.86450   0.20832   0.09253   0.00000  Uiso   1.00
C150   C     0.80217   0.12501   0.40747   0.00000  Uiso   1.00
C151   C     0.85963   0.21015   0.04631   0.00000  Uiso   1.00
C152   C     0.80704   0.12318   0.45369   0.00000  Uiso   1.00
C153   C     0.83259   0.16740   0.02357   0.00000  Uiso   1.00
C154   C     0.83408   0.16594   0.47643   0.00000  Uiso   1.00
C155   C     0.80277   0.12683   0.04780   0.00000  Uiso   1.00
C156   C     0.81855   0.06871   0.25048   0.00000  Uiso   1.00
C157   C     0.86390   0.20650   0.45220   0.00000  Uiso   1.00
C158   C     0.88298   0.25244   0.02168   0.00000  Uiso   1.00
C159   C     0.78369   0.08089   0.47832   0.00000  Uiso   1.00
C160   C     0.79157   0.07732   0.11997   0.00000  Uiso   1.00
C161   C     0.87510   0.25601   0.38003   0.00000  Uiso   1.00
C162   C     0.90866   0.24285   0.11597   0.00000  Uiso   1.00
C163   C     0.75801   0.09048   0.38403   0.00000  Uiso   1.00
C164   C     0.90304   0.00561   0.28422   0.00000  Uiso   1.00
C165   C     0.76362   0.32772   0.21578   0.00000  Uiso   1.00
C166   C     0.67301   0.13239   0.19532   0.00000  Uiso   1.00
C167   C     0.89350   0.24663   0.47581   0.00000  Uiso   1.00
C168   C     0.99366   0.20094   0.30468   0.00000  Uiso   1.00
C169   C     0.77317   0.08670   0.02419   0.00000  Uiso   1.00
C170   C     0.85432   0.31881   0.25638   0.00000  Uiso   1.00
C171   C     0.81235   0.01452   0.24362   0.00000  Uiso   1.00
C172   C     0.83308   0.16407   0.33608   0.00000  Uiso   1.00
C173   C     0.83358   0.16926   0.16392   0.00000  Uiso   1.00
C174   C     0.80620   0.12633   0.09436   0.00000  Uiso   1.00
H175   H     0.81787   0.07434   0.14867   0.00000  Uiso   1.00
H176   H     0.72518   0.07223   0.40758   0.00000  Uiso   1.00
H177   H     0.73131   0.11325   0.36451   0.00000  Uiso   1.00
H178   H     0.77928   0.06086   0.36171   0.00000  Uiso   1.00
H179   H     0.93748   0.02544   0.26280   0.00000  Uiso   1.00
H180   H     0.88716   0.03193   0.31213   0.00000  Uiso   1.00
H181   H     0.92296   0.30738   0.29981   0.00000  Uiso   1.00
H182   H     0.72918   0.30789   0.23720   0.00000  Uiso   1.00
H183   H     0.74371   0.02595   0.20019   0.00000  Uiso   1.00
H184   H     0.77951   0.30141   0.18787   0.00000  Uiso   1.00
H185   H     0.97282   0.10728   0.18003   0.00000  Uiso   1.00
H186   H     0.74610   0.07578   0.13245   0.00000  Uiso   1.00
H187   H     0.68521   0.16434   0.17245   0.00000  Uiso   1.00
H188   H     0.70816   0.10758   0.19975   0.00000  Uiso   1.00
H189   H     0.69385   0.22605   0.31997   0.00000  Uiso   1.00
H190   H     0.95850   0.22575   0.30025   0.00000  Uiso   1.00
H191   H     0.98146   0.16900   0.32755   0.00000  Uiso   1.00
H192   H     0.80091   0.04236   0.09882   0.00000  Uiso   1.00
H193   H     0.84879   0.25899   0.35133   0.00000  Uiso   1.00
H194   H     0.86576   0.29097   0.40118   0.00000  Uiso   1.00
H195   H     0.92056   0.25755   0.36754   0.00000  Uiso   1.00
H196   H     0.94149   0.26110   0.09242   0.00000  Uiso   1.00
H197   H     0.88739   0.27247   0.13828   0.00000  Uiso   1.00
H198   H     0.93535   0.22009   0.13549   0.00000  Uiso   1.00
N199   N     0.98344   0.15265   0.23783   0.00000  Uiso   1.00
N200   N     0.68322   0.18068   0.26217   0.00000  Uiso   1.00
O201   O     0.79642   0.24619   0.25299   0.00000  Uiso   1.00
O202   O     0.87025   0.08714   0.24702   0.00000  Uiso   1.00
O203   O     0.89280   0.23721   0.24519   0.00000  Uiso   1.00
O204   O     0.77387   0.09613   0.25482   0.00000  Uiso   1.00
O205   O     0.78514   0.17117   0.31998   0.00000  Uiso   1.00
O206   O     0.88153   0.16216   0.18003   0.00000  Uiso   1.00
O207   O     0.88152   0.16219   0.31218   0.00000  Uiso   1.00
O208   O     0.78515   0.17115   0.18783   0.00000  Uiso   1.00
Zn209  Zn    0.76898   0.17266   0.25521   0.00000  Uiso   1.00
Zn210  Zn    0.89769   0.16067   0.24479   0.00000  Uiso   1.00
Br211  Br    0.22014   0.65620   0.04611   0.00000  Uiso   1.00
Br212  Br    0.11320   0.34380   0.45389   0.00000  Uiso   1.00
Br213  Br    0.29178   0.62109   0.45043   0.00000  Uiso   1.00
Br214  Br    0.04155   0.37890   0.04957   0.00000  Uiso   1.00
C215   C     0.18145   0.59795   0.24952   0.00000  Uiso   1.00
C216   C     0.19380   0.54034   0.40564   0.00000  Uiso   1.00
C217   C     0.16697   0.50203   0.11608   0.00000  Uiso   1.00
C218   C     0.16636   0.49797   0.38393   0.00000  Uiso   1.00
C219   C     0.19783   0.54165   0.09253   0.00000  Uiso   1.00
C220   C     0.13550   0.45835   0.40747   0.00000  Uiso   1.00
C221   C     0.19296   0.54348   0.04631   0.00000  Uiso   1.00
C222   C     0.14037   0.45652   0.45369   0.00000  Uiso   1.00
C223   C     0.16592   0.50073   0.02357   0.00000  Uiso   1.00
C224   C     0.16741   0.49927   0.47643   0.00000  Uiso   1.00
C225   C     0.13610   0.46016   0.04780   0.00000  Uiso   1.00
C226   C     0.15189   0.40205   0.25048   0.00000  Uiso   1.00
C227   C     0.19723   0.53984   0.45220   0.00000  Uiso   1.00
C228   C     0.21631   0.58577   0.02168   0.00000  Uiso   1.00
C229   C     0.11702   0.41423   0.47832   0.00000  Uiso   1.00
C230   C     0.12490   0.41065   0.11997   0.00000  Uiso   1.00
C231   C     0.20843   0.58935   0.38003   0.00000  Uiso   1.00
C232   C     0.24199   0.57619   0.11597   0.00000  Uiso   1.00
C233   C     0.09134   0.42381   0.38403   0.00000  Uiso   1.00
C234   C     0.23638   0.33895   0.28422   0.00000  Uiso   1.00
C235   C     0.09696   0.66105   0.21578   0.00000  Uiso   1.00
C236   C     0.00634   0.46572   0.19532   0.00000  Uiso   1.00
C237   C     0.22683   0.57996   0.47581   0.00000  Uiso   1.00
C238   C     0.32699   0.53428   0.30468   0.00000  Uiso   1.00
C239   C     0.10650   0.42003   0.02419   0.00000  Uiso   1.00
C240   C     0.18765   0.65214   0.25638   0.00000  Uiso   1.00
C241   C     0.14568   0.34786   0.24362   0.00000  Uiso   1.00
C242   C     0.16642   0.49741   0.33608   0.00000  Uiso   1.00
C243   C     0.16692   0.50259   0.16392   0.00000  Uiso   1.00
C244   C     0.13953   0.45966   0.09436   0.00000  Uiso   1.00
H245   H     0.15120   0.40768   0.14867   0.00000  Uiso   1.00
H246   H     0.05851   0.40556   0.40758   0.00000  Uiso   1.00
H247   H     0.06465   0.44658   0.36451   0.00000  Uiso   1.00
H248   H     0.11261   0.39420   0.36171   0.00000  Uiso   1.00
H249   H     0.27082   0.35877   0.26280   0.00000  Uiso   1.00
H250   H     0.22049   0.36526   0.31213   0.00000  Uiso   1.00
H251   H     0.25629   0.64071   0.29981   0.00000  Uiso   1.00
H252   H     0.06252   0.64123   0.23720   0.00000  Uiso   1.00
H253   H     0.07704   0.35929   0.20019   0.00000  Uiso   1.00
H254   H     0.11284   0.63474   0.18787   0.00000  Uiso   1.00
H255   H     0.30615   0.44062   0.18003   0.00000  Uiso   1.00
H256   H     0.07944   0.40912   0.13245   0.00000  Uiso   1.00
H257   H     0.01854   0.49767   0.17245   0.00000  Uiso   1.00
H258   H     0.04150   0.44092   0.19975   0.00000  Uiso   1.00
H259   H     0.02718   0.55938   0.31997   0.00000  Uiso   1.00
H260   H     0.29183   0.55908   0.30025   0.00000  Uiso   1.00
H261   H     0.31479   0.50233   0.32755   0.00000  Uiso   1.00
H262   H     0.13425   0.37570   0.09882   0.00000  Uiso   1.00
H263   H     0.18213   0.59232   0.35133   0.00000  Uiso   1.00
H264   H     0.19909   0.62430   0.40118   0.00000  Uiso   1.00
H265   H     0.25389   0.59088   0.36754   0.00000  Uiso   1.00
H266   H     0.27482   0.59444   0.09242   0.00000  Uiso   1.00
H267   H     0.22072   0.60581   0.13828   0.00000  Uiso   1.00
H268   H     0.26868   0.55342   0.13549   0.00000  Uiso   1.00
N269   N     0.31678   0.48598   0.23783   0.00000  Uiso   1.00
N270   N     0.01656   0.51402   0.26217   0.00000  Uiso   1.00
O271   O     0.12975   0.57952   0.25299   0.00000  Uiso   1.00
O272   O     0.20358   0.42048   0.24702   0.00000  Uiso   1.00
O273   O     0.22613   0.57054   0.24519   0.00000  Uiso   1.00
O274   O     0.10720   0.42946   0.25482   0.00000  Uiso   1.00
O275   O     0.11847   0.50450   0.31998   0.00000  Uiso   1.00
O276   O     0.21486   0.49550   0.18003   0.00000  Uiso   1.00
O277   O     0.21485   0.49552   0.31218   0.00000  Uiso   1.00
O278   O     0.11848   0.50448   0.18783   0.00000  Uiso   1.00
Zn279  Zn    0.10231   0.50600   0.25521   0.00000  Uiso   1.00
Zn280  Zn    0.23102   0.49400   0.24479   0.00000  Uiso   1.00
Br281  Br    0.55347   0.65620   0.04611   0.00000  Uiso   1.00
Br282  Br    0.44653   0.34380   0.45389   0.00000  Uiso   1.00
Br283  Br    0.62512   0.62109   0.45043   0.00000  Uiso   1.00
Br284  Br    0.37489   0.37890   0.04957   0.00000  Uiso   1.00
C285   C     0.51478   0.59795   0.24952   0.00000  Uiso   1.00
C286   C     0.52714   0.54034   0.40564   0.00000  Uiso   1.00
C287   C     0.50031   0.50203   0.11608   0.00000  Uiso   1.00
C288   C     0.49969   0.49797   0.38393   0.00000  Uiso   1.00
C289   C     0.53117   0.54165   0.09253   0.00000  Uiso   1.00
C290   C     0.46883   0.45835   0.40747   0.00000  Uiso   1.00
C291   C     0.52629   0.54348   0.04631   0.00000  Uiso   1.00
C292   C     0.47370   0.45652   0.45369   0.00000  Uiso   1.00
C293   C     0.49925   0.50073   0.02357   0.00000  Uiso   1.00
C294   C     0.50075   0.49927   0.47643   0.00000  Uiso   1.00
C295   C     0.46943   0.46016   0.04780   0.00000  Uiso   1.00
C296   C     0.48522   0.40205   0.25048   0.00000  Uiso   1.00
C297   C     0.53057   0.53984   0.45220   0.00000  Uiso   1.00
C298   C     0.54964   0.58577   0.02168   0.00000  Uiso   1.00
C299   C     0.45036   0.41423   0.47832   0.00000  Uiso   1.00
C300   C     0.45823   0.41065   0.11997   0.00000  Uiso   1.00
C301   C     0.54177   0.58935   0.38003   0.00000  Uiso   1.00
C302   C     0.57532   0.57619   0.11597   0.00000  Uiso   1.00
C303   C     0.42467   0.42381   0.38403   0.00000  Uiso   1.00
C304   C     0.56971   0.33895   0.28422   0.00000  Uiso   1.00
C305   C     0.43029   0.66105   0.21578   0.00000  Uiso   1.00
C306   C     0.33968   0.46572   0.19532   0.00000  Uiso   1.00
C307   C     0.56016   0.57996   0.47581   0.00000  Uiso   1.00
C308   C     0.66032   0.53428   0.30468   0.00000  Uiso   1.00
C309   C     0.43984   0.42003   0.02419   0.00000  Uiso   1.00
C310   C     0.52099   0.65214   0.25638   0.00000  Uiso   1.00
C311   C     0.47901   0.34786   0.24362   0.00000  Uiso   1.00
C312   C     0.49975   0.49741   0.33608   0.00000  Uiso   1.00
C313   C     0.50025   0.50259   0.16392   0.00000  Uiso   1.00
C314   C     0.47286   0.45966   0.09436   0.00000  Uiso   1.00
H315   H     0.48453   0.40768   0.14867   0.00000  Uiso   1.00
H316   H     0.39184   0.40556   0.40758   0.00000  Uiso   1.00
H317   H     0.39798   0.44658   0.36451   0.00000  Uiso   1.00
H318   H     0.44594   0.39420   0.36171   0.00000  Uiso   1.00
H319   H     0.60415   0.35877   0.26280   0.00000  Uiso   1.00
H320   H     0.55382   0.36526   0.31213   0.00000  Uiso   1.00
H321   H     0.58963   0.64071   0.29981   0.00000  Uiso   1.00
H322   H     0.39585   0.64123   0.23720   0.00000  Uiso   1.00
H323   H     0.41038   0.35929   0.20019   0.00000  Uiso   1.00
H324   H     0.44618   0.63474   0.18787   0.00000  Uiso   1.00
H325   H     0.63948   0.44062   0.18003   0.00000  Uiso   1.00
H326   H     0.41277   0.40912   0.13245   0.00000  Uiso   1.00
H327   H     0.35188   0.49767   0.17245   0.00000  Uiso   1.00
H328   H     0.37483   0.44092   0.19975   0.00000  Uiso   1.00
H329   H     0.36051   0.55938   0.31997   0.00000  Uiso   1.00
H330   H     0.62517   0.55908   0.30025   0.00000  Uiso   1.00
H331   H     0.64812   0.50233   0.32755   0.00000  Uiso   1.00
H332   H     0.46758   0.37570   0.09882   0.00000  Uiso   1.00
H333   H     0.51546   0.59232   0.35133   0.00000  Uiso   1.00
H334   H     0.53242   0.62430   0.40118   0.00000  Uiso   1.00
H335   H     0.58723   0.59088   0.36754   0.00000  Uiso   1.00
H336   H     0.60816   0.59444   0.09242   0.00000  Uiso   1.00
H337   H     0.55405   0.60581   0.13828   0.00000  Uiso   1.00
H338   H     0.60202   0.55342   0.13549   0.00000  Uiso   1.00
N339   N     0.65011   0.48598   0.23783   0.00000  Uiso   1.00
N340   N     0.34989   0.51402   0.26217   0.00000  Uiso   1.00
O341   O     0.46308   0.57952   0.25299   0.00000  Uiso   1.00
O342   O     0.53692   0.42048   0.24702   0.00000  Uiso   1.00
O343   O     0.55946   0.57054   0.24519   0.00000  Uiso   1.00
O344   O     0.44054   0.42946   0.25482   0.00000  Uiso   1.00
O345   O     0.45181   0.50450   0.31998   0.00000  Uiso   1.00
O346   O     0.54819   0.49550   0.18003   0.00000  Uiso   1.00
O347   O     0.54819   0.49552   0.31218   0.00000  Uiso   1.00
O348   O     0.45181   0.50448   0.18783   0.00000  Uiso   1.00
Zn349  Zn    0.43565   0.50600   0.25521   0.00000  Uiso   1.00
Zn350  Zn    0.56435   0.49400   0.24479   0.00000  Uiso   1.00
Br351  Br    0.88681   0.65620   0.04611   0.00000  Uiso   1.00
Br352  Br    0.77986   0.34380   0.45389   0.00000  Uiso   1.00
Br353  Br    0.95845   0.62109   0.45043   0.00000  Uiso   1.00
Br354  Br    0.70822   0.37890   0.04957   0.00000  Uiso   1.00
C355   C     0.84811   0.59795   0.24952   0.00000  Uiso   1.00
C356   C     0.86047   0.54034   0.40564   0.00000  Uiso   1.00
C357   C     0.83364   0.50203   0.11608   0.00000  Uiso   1.00
C358   C     0.83303   0.49797   0.38393   0.00000  Uiso   1.00
C359   C     0.86450   0.54165   0.09253   0.00000  Uiso   1.00
C360   C     0.80217   0.45835   0.40747   0.00000  Uiso   1.00
C361   C     0.85963   0.54348   0.04631   0.00000  Uiso   1.00
C362   C     0.80704   0.45652   0.45369   0.00000  Uiso   1.00
C363   C     0.83259   0.50073   0.02357   0.00000  Uiso   1.00
C364   C     0.83408   0.49927   0.47643   0.00000  Uiso   1.00
C365   C     0.80277   0.46016   0.04780   0.00000  Uiso   1.00
C366   C     0.81855   0.40205   0.25048   0.00000  Uiso   1.00
C367   C     0.86390   0.53984   0.45220   0.00000  Uiso   1.00
C368   C     0.88298   0.58577   0.02168   0.00000  Uiso   1.00
C369   C     0.78369   0.41423   0.47832   0.00000  Uiso   1.00
C370   C     0.79157   0.41065   0.11997   0.00000  Uiso   1.00
C371   C     0.87510   0.58935   0.38003   0.00000  Uiso   1.00
C372   C     0.90866   0.57619   0.11597   0.00000  Uiso   1.00
C373   C     0.75801   0.42381   0.38403   0.00000  Uiso   1.00
C374   C     0.90304   0.33895   0.28422   0.00000  Uiso   1.00
C375   C     0.76362   0.66105   0.21578   0.00000  Uiso   1.00
C376   C     0.67301   0.46572   0.19532   0.00000  Uiso   1.00
C377   C     0.89350   0.57996   0.47581   0.00000  Uiso   1.00
C378   C     0.99366   0.53428   0.30468   0.00000  Uiso   1.00
C379   C     0.77317   0.42003   0.02419   0.00000  Uiso   1.00
C380   C     0.85432   0.65214   0.25638   0.00000  Uiso   1.00
C381   C     0.81235   0.34786   0.24362   0.00000  Uiso   1.00
C382   C     0.83308   0.49741   0.33608   0.00000  Uiso   1.00
C383   C     0.83358   0.50259   0.16392   0.00000  Uiso   1.00
C384   C     0.80620   0.45966   0.09436   0.00000  Uiso   1.00
H385   H     0.81787   0.40768   0.14867   0.00000  Uiso   1.00
H386   H     0.72518   0.40556   0.40758   0.00000  Uiso   1.00
H387   H     0.73131   0.44658   0.36451   0.00000  Uiso   1.00
H388   H     0.77928   0.39420   0.36171   0.00000  Uiso   1.00
H389   H     0.93748   0.35877   0.26280   0.00000  Uiso   1.00
H390   H     0.88716   0.36526   0.31213   0.00000  Uiso   1.00
H391   H     0.92296   0.64071   0.29981   0.00000  Uiso   1.00
H392   H     0.72918   0.64123   0.23720   0.00000  Uiso   1.00
H393   H     0.74371   0.35929   0.20019   0.00000  Uiso   1.00
H394   H     0.77951   0.63474   0.18787   0.00000  Uiso   1.00
H395   H     0.97282   0.44062   0.18003   0.00000  Uiso   1.00
H396   H     0.74610   0.40912   0.13245   0.00000  Uiso   1.00
H397   H     0.68521   0.49767   0.17245   0.00000  Uiso   1.00
H398   H     0.70816   0.44092   0.19975   0.00000  Uiso   1.00
H399   H     0.69385   0.55938   0.31997   0.00000  Uiso   1.00
H400   H     0.95850   0.55908   0.30025   0.00000  Uiso   1.00
H401   H     0.98146   0.50233   0.32755   0.00000  Uiso   1.00
H402   H     0.80091   0.37570   0.09882   0.00000  Uiso   1.00
H403   H     0.84879   0.59232   0.35133   0.00000  Uiso   1.00
H404   H     0.86576   0.62430   0.40118   0.00000  Uiso   1.00
H405   H     0.92056   0.59088   0.36754   0.00000  Uiso   1.00
H406   H     0.94149   0.59444   0.09242   0.00000  Uiso   1.00
H407   H     0.88739   0.60581   0.13828   0.00000  Uiso   1.00
H408   H     0.93535   0.55342   0.13549   0.00000  Uiso   1.00
N409   N     0.98344   0.48598   0.23783   0.00000  Uiso   1.00
N410   N     0.68322   0.51402   0.26217   0.00000  Uiso   1.00
O411   O     0.79642   0.57952   0.25299   0.00000  Uiso   1.00
O412   O     0.87025   0.42048   0.24702   0.00000  Uiso   1.00
O413   O     0.89280   0.57054   0.24519   0.00000  Uiso   1.00
O414   O     0.77387   0.42946   0.25482   0.00000  Uiso   1.00
O415   O     0.78514   0.50450   0.31998   0.00000  Uiso   1.00
O416   O     0.88153   0.49550   0.18003   0.00000  Uiso   1.00
O417   O     0.88152   0.49552   0.31218   0.00000  Uiso   1.00
O418   O     0.78515   0.50448   0.18783   0.00000  Uiso   1.00
Zn419  Zn    0.76898   0.50600   0.25521   0.00000  Uiso   1.00
Zn420  Zn    0.89769   0.49400   0.24479   0.00000  Uiso   1.00
Br421  Br    0.22014   0.98953   0.04611   0.00000  Uiso   1.00
Br422  Br    0.11320   0.67714   0.45389   0.00000  Uiso   1.00
Br423  Br    0.29178   0.95442   0.45043   0.00000  Uiso   1.00
Br424  Br    0.04155   0.71224   0.04957   0.00000  Uiso   1.00
C425   C     0.18145   0.93129   0.24952   0.00000  Uiso   1.00
C426   C     0.19380   0.87367   0.40564   0.00000  Uiso   1.00
C427   C     0.16697   0.83536   0.11608   0.00000  Uiso   1.00
C428   C     0.16636   0.83130   0.38393   0.00000  Uiso   1.00
C429   C     0.19783   0.87499   0.09253   0.00000  Uiso   1.00
C430   C     0.13550   0.79168   0.40747   0.00000  Uiso   1.00
C431   C     0.19296   0.87682   0.04631   0.00000  Uiso   1.00
C432   C     0.14037   0.78985   0.45369   0.00000  Uiso   1.00
C433   C     0.16592   0.83406   0.02357   0.00000  Uiso   1.00
C434   C     0.16741   0.83260   0.47643   0.00000  Uiso   1.00
C435   C     0.13610   0.79349   0.04780   0.00000  Uiso   1.00
C436   C     0.15189   0.73538   0.25048   0.00000  Uiso   1.00
C437   C     0.19723   0.87317   0.45220   0.00000  Uiso   1.00
C438   C     0.21631   0.91911   0.02168   0.00000  Uiso   1.00
C439   C     0.11702   0.74756   0.47832   0.00000  Uiso   1.00
C440   C     0.12490   0.74399   0.11997   0.00000  Uiso   1.00
C441   C     0.20843   0.92268   0.38003   0.00000  Uiso   1.00
C442   C     0.24199   0.90952   0.11597   0.00000  Uiso   1.00
C443   C     0.09134   0.75715   0.38403   0.00000  Uiso   1.00
C444   C     0.23638   0.67228   0.28422   0.00000  Uiso   1.00
C445   C     0.09696   0.99439   0.21578   0.00000  Uiso   1.00
C446   C     0.00634   0.79906   0.19532   0.00000  Uiso   1.00
C447   C     0.22683   0.91330   0.47581   0.00000  Uiso   1.00
C448   C     0.32699   0.86761   0.30468   0.00000  Uiso   1.00
C449   C     0.10650   0.75337   0.02419   0.00000  Uiso   1.00
C450   C     0.18765   0.98548   0.25638   0.00000  Uiso   1.00
C451   C     0.14568   0.68119   0.24362   0.00000  Uiso   1.00
C452   C     0.16642   0.83074   0.33608   0.00000  Uiso   1.00
C453   C     0.16692   0.83593   0.16392   0.00000  Uiso   1.00
C454   C     0.13953   0.79300   0.09436   0.00000  Uiso   1.00
H455   H     0.15120   0.74101   0.14867   0.00000  Uiso   1.00
H456   H     0.05851   0.73890   0.40758   0.00000  Uiso   1.00
H457   H     0.06465   0.77991   0.36451   0.00000  Uiso   1.00
H458   H     0.11261   0.72753   0.36171   0.00000  Uiso   1.00
H459   H     0.27082   0.69211   0.26280   0.00000  Uiso   1.00
H460   H     0.22049   0.69859   0.31213   0.00000  Uiso   1.00
H461   H     0.25629   0.97405   0.29981   0.00000  Uiso   1.00
H462   H     0.06252   0.97456   0.23720   0.00000  Uiso   1.00
H463   H     0.07704   0.69262   0.20019   0.00000  Uiso   1.00
H464   H     0.11284   0.96807   0.18787   0.00000  Uiso   1.00
H465   H     0.30615   0.77395   0.18003   0.00000  Uiso   1.00
H466   H     0.07944   0.74245   0.13245   0.00000  Uiso   1.00
H467   H     0.01854   0.83100   0.17245   0.00000  Uiso   1.00
H468   H     0.04150   0.77425   0.19975   0.00000  Uiso   1.00
H469   H     0.02718   0.89271   0.31997   0.00000  Uiso   1.00
H470   H     0.29183   0.89242   0.30025   0.00000  Uiso   1.00
H471   H     0.31479   0.83566   0.32755   0.00000  Uiso   1.00
H472   H     0.13425   0.70903   0.09882   0.00000  Uiso   1.00
H473   H     0.18213   0.92566   0.35133   0.00000  Uiso   1.00
H474   H     0.19909   0.95764   0.40118   0.00000  Uiso   1.00
H475   H     0.25389   0.92421   0.36754   0.00000  Uiso   1.00
H476   H     0.27482   0.92777   0.09242   0.00000  Uiso   1.00
H477   H     0.22072   0.93914   0.13828   0.00000  Uiso   1.00
H478   H     0.26868   0.88676   0.13549   0.00000  Uiso   1.00
N479   N     0.31678   0.81932   0.23783   0.00000  Uiso   1.00
N480   N     0.01656   0.84735   0.26217   0.00000  Uiso   1.00
O481   O     0.12975   0.91286   0.25299   0.00000  Uiso   1.00
O482   O     0.20358   0.75381   0.24702   0.00000  Uiso   1.00
O483   O     0.22613   0.90387   0.24519   0.00000  Uiso   1.00
O484   O     0.10720   0.76279   0.25482   0.00000  Uiso   1.00
O485   O     0.11847   0.83784   0.31998   0.00000  Uiso   1.00
O486   O     0.21486   0.82883   0.18003   0.00000  Uiso   1.00
O487   O     0.21485   0.82885   0.31218   0.00000  Uiso   1.00
O488   O     0.11848   0.83781   0.18783   0.00000  Uiso   1.00
Zn489  Zn    0.10231   0.83933   0.25521   0.00000  Uiso   1.00
Zn490  Zn    0.23102   0.82734   0.24479   0.00000  Uiso   1.00
Br491  Br    0.55347   0.98953   0.04611   0.00000  Uiso   1.00
Br492  Br    0.44653   0.67714   0.45389   0.00000  Uiso   1.00
Br493  Br    0.62512   0.95442   0.45043   0.00000  Uiso   1.00
Br494  Br    0.37489   0.71224   0.04957   0.00000  Uiso   1.00
C495   C     0.51478   0.93129   0.24952   0.00000  Uiso   1.00
C496   C     0.52714   0.87367   0.40564   0.00000  Uiso   1.00
C497   C     0.50031   0.83536   0.11608   0.00000  Uiso   1.00
C498   C     0.49969   0.83130   0.38393   0.00000  Uiso   1.00
C499   C     0.53117   0.87499   0.09253   0.00000  Uiso   1.00
C500   C     0.46883   0.79168   0.40747   0.00000  Uiso   1.00
C501   C     0.52629   0.87682   0.04631   0.00000  Uiso   1.00
C502   C     0.47370   0.78985   0.45369   0.00000  Uiso   1.00
C503   C     0.49925   0.83406   0.02357   0.00000  Uiso   1.00
C504   C     0.50075   0.83260   0.47643   0.00000  Uiso   1.00
C505   C     0.46943   0.79349   0.04780   0.00000  Uiso   1.00
C506   C     0.48522   0.73538   0.25048   0.00000  Uiso   1.00
C507   C     0.53057   0.87317   0.45220   0.00000  Uiso   1.00
C508   C     0.54964   0.91911   0.02168   0.00000  Uiso   1.00
C509   C     0.45036   0.74756   0.47832   0.00000  Uiso   1.00
C510   C     0.45823   0.74399   0.11997   0.00000  Uiso   1.00
C511   C     0.54177   0.92268   0.38003   0.00000  Uiso   1.00
C512   C     0.57532   0.90952   0.11597   0.00000  Uiso   1.00
C513   C     0.42467   0.75715   0.38403   0.00000  Uiso   1.00
C514   C     0.56971   0.67228   0.28422   0.00000  Uiso   1.00
C515   C     0.43029   0.99439   0.21578   0.00000  Uiso   1.00
C516   C     0.33968   0.79906   0.19532   0.00000  Uiso   1.00
C517   C     0.56016   0.91330   0.47581   0.00000  Uiso   1.00
C518   C     0.66032   0.86761   0.30468   0.00000  Uiso   1.00
C519   C     0.43984   0.75337   0.02419   0.00000  Uiso   1.00
C520   C     0.52099   0.98548   0.25638   0.00000  Uiso   1.00
C521   C     0.47901   0.68119   0.24362   0.00000  Uiso   1.00
C522   C     0.49975   0.83074   0.33608   0.00000  Uiso   1.00
C523   C     0.50025   0.83593   0.16392   0.00000  Uiso   1.00
C524   C     0.47286   0.79300   0.09436   0.00000  Uiso   1.00
H525   H     0.48453   0.74101   0.14867   0.00000  Uiso   1.00
H526   H     0.39184   0.73890   0.40758   0.00000  Uiso   1.00
H527   H     0.39798   0.77991   0.36451   0.00000  Uiso   1.00
H528   H     0.44594   0.72753   0.36171   0.00000  Uiso   1.00
H529   H     0.60415   0.69211   0.26280   0.00000  Uiso   1.00
H530   H     0.55382   0.69859   0.31213   0.00000  Uiso   1.00
H531   H     0.58963   0.97405   0.29981   0.00000  Uiso   1.00
H532   H     0.39585   0.97456   0.23720   0.00000  Uiso   1.00
H533   H     0.41038   0.69262   0.20019   0.00000  Uiso   1.00
H534   H     0.44618   0.96807   0.18787   0.00000  Uiso   1.00
H535   H     0.63948   0.77395   0.18003   0.00000  Uiso   1.00
H536   H     0.41277   0.74245   0.13245   0.00000  Uiso   1.00
H537   H     0.35188   0.83100   0.17245   0.00000  Uiso   1.00
H538   H     0.37483   0.77425   0.19975   0.00000  Uiso   1.00
H539   H     0.36051   0.89271   0.31997   0.00000  Uiso   1.00
H540   H     0.62517   0.89242   0.30025   0.00000  Uiso   1.00
H541   H     0.64812   0.83566   0.32755   0.00000  Uiso   1.00
H542   H     0.46758   0.70903   0.09882   0.00000  Uiso   1.00
H543   H     0.51546   0.92566   0.35133   0.00000  Uiso   1.00
H544   H     0.53242   0.95764   0.40118   0.00000  Uiso   1.00
H545   H     0.58723   0.92421   0.36754   0.00000  Uiso   1.00
H546   H     0.60816   0.92777   0.09242   0.00000  Uiso   1.00
H547   H     0.55405   0.93914   0.13828   0.00000  Uiso   1.00
H548   H     0.60202   0.88676   0.13549   0.00000  Uiso   1.00
N549   N     0.65011   0.81932   0.23783   0.00000  Uiso   1.00
N550   N     0.34989   0.84735   0.26217   0.00000  Uiso   1.00
O551   O     0.46308   0.91286   0.25299   0.00000  Uiso   1.00
O552   O     0.53692   0.75381   0.24702   0.00000  Uiso   1.00
O553   O     0.55946   0.90387   0.24519   0.00000  Uiso   1.00
O554   O     0.44054   0.76279   0.25482   0.00000  Uiso   1.00
O555   O     0.45181   0.83784   0.31998   0.00000  Uiso   1.00
O556   O     0.54819   0.82883   0.18003   0.00000  Uiso   1.00
O557   O     0.54819   0.82885   0.31218   0.00000  Uiso   1.00
O558   O     0.45181   0.83781   0.18783   0.00000  Uiso   1.00
Zn559  Zn    0.43565   0.83933   0.25521   0.00000  Uiso   1.00
Zn560  Zn    0.56435   0.82734   0.24479   0.00000  Uiso   1.00
Br561  Br    0.88681   0.98953   0.04611   0.00000  Uiso   1.00
Br562  Br    0.77986   0.67714   0.45389   0.00000  Uiso   1.00
Br563  Br    0.95845   0.95442   0.45043   0.00000  Uiso   1.00
Br564  Br    0.70822   0.71224   0.04957   0.00000  Uiso   1.00
C565   C     0.84811   0.93129   0.24952   0.00000  Uiso   1.00
C566   C     0.86047   0.87367   0.40564   0.00000  Uiso   1.00
C567   C     0.83364   0.83536   0.11608   0.00000  Uiso   1.00
C568   C     0.83303   0.83130   0.38393   0.00000  Uiso   1.00
C569   C     0.86450   0.87499   0.09253   0.00000  Uiso   1.00
C570   C     0.80217   0.79168   0.40747   0.00000  Uiso   1.00
C571   C     0.85963   0.87682   0.04631   0.00000  Uiso   1.00
C572   C     0.80704   0.78985   0.45369   0.00000  Uiso   1.00
C573   C     0.83259   0.83406   0.02357   0.00000  Uiso   1.00
C574   C     0.83408   0.83260   0.47643   0.00000  Uiso   1.00
C575   C     0.80277   0.79349   0.04780   0.00000  Uiso   1.00
C576   C     0.81855   0.73538   0.25048   0.00000  Uiso   1.00
C577   C     0.86390   0.87317   0.45220   0.00000  Uiso   1.00
C578   C     0.88298   0.91911   0.02168   0.00000  Uiso   1.00
C579   C     0.78369   0.74756   0.47832   0.00000  Uiso   1.00
C580   C     0.79157   0.74399   0.11997   0.00000  Uiso   1.00
C581   C     0.87510   0.92268   0.38003   0.00000  Uiso   1.00
C582   C     0.90866   0.90952   0.11597   0.00000  Uiso   1.00
C583   C     0.75801   0.75715   0.38403   0.00000  Uiso   1.00
C584   C     0.90304   0.67228   0.28422   0.00000  Uiso   1.00
C585   C     0.76362   0.99439   0.21578   0.00000  Uiso   1.00
C586   C     0.67301   0.79906   0.19532   0.00000  Uiso   1.00
C587   C     0.89350   0.91330   0.47581   0.00000  Uiso   1.00
C588   C     0.99366   0.86761   0.30468   0.00000  Uiso   1.00
C589   C     0.77317   0.75337   0.02419   0.00000  Uiso   1.00
C590   C     0.85432   0.98548   0.25638   0.00000  Uiso   1.00
C591   C     0.81235   0.68119   0.24362   0.00000  Uiso   1.00
C592   C     0.83308   0.83074   0.33608   0.00000  Uiso   1.00
C593   C     0.83358   0.83593   0.16392   0.00000  Uiso   1.00
C594   C     0.80620   0.79300   0.09436   0.00000  Uiso   1.00
H595   H     0.81787   0.74101   0.14867   0.00000  Uiso   1.00
H596   H     0.72518   0.73890   0.40758   0.00000  Uiso   1.00
H597   H     0.73131   0.77991   0.36451   0.00000  Uiso   1.00
H598   H     0.77928   0.72753   0.36171   0.00000  Uiso   1.00
H599   H     0.93748   0.69211   0.26280   0.00000  Uiso   1.00
H600   H     0.88716   0.69859   0.31213   0.00000  Uiso   1.00
H601   H     0.92296   0.97405   0.29981   0.00000  Uiso   1.00
H602   H     0.72918   0.97456   0.23720   0.00000  Uiso   1.00
H603   H     0.74371   0.69262   0.20019   0.00000  Uiso   1.00
H604   H     0.77951   0.96807   0.18787   0.00000  Uiso   1.00
H605   H     0.97282   0.77395   0.18003   0.00000  Uiso   1.00
H606   H     0.74610   0.74245   0.13245   0.00000  Uiso   1.00
H607   H     0.68521   0.83100   0.17245   0.00000  Uiso   1.00
H608   H     0.70816   0.77425   0.19975   0.00000  Uiso   1.00
H609   H     0.69385   0.89271   0.31997   0.00000  Uiso   1.00
H610   H     0.95850   0.89242   0.30025   0.00000  Uiso   1.00
H611   H     0.98146   0.83566   0.32755   0.00000  Uiso   1.00
H612   H     0.80091   0.70903   0.09882   0.00000  Uiso   1.00
H613   H     0.84879   0.92566   0.35133   0.00000  Uiso   1.00
H614   H     0.86576   0.95764   0.40118   0.00000  Uiso   1.00
H615   H     0.92056   0.92421   0.36754   0.00000  Uiso   1.00
H616   H     0.94149   0.92777   0.09242   0.00000  Uiso   1.00
H617   H     0.88739   0.93914   0.13828   0.00000  Uiso   1.00
H618   H     0.93535   0.88676   0.13549   0.00000  Uiso   1.00
N619   N     0.98344   0.81932   0.23783   0.00000  Uiso   1.00
N620   N     0.68322   0.84735   0.26217   0.00000  Uiso   1.00
O621   O     0.79642   0.91286   0.25299   0.00000  Uiso   1.00
O622   O     0.87025   0.75381   0.24702   0.00000  Uiso   1.00
O623   O     0.89280   0.90387   0.24519   0.00000  Uiso   1.00
O624   O     0.77387   0.76279   0.25482   0.00000  Uiso   1.00
O625   O     0.78514   0.83784   0.31998   0.00000  Uiso   1.00
O626   O     0.88153   0.82883   0.18003   0.00000  Uiso   1.00
O627   O     0.88152   0.82885   0.31218   0.00000  Uiso   1.00
O628   O     0.78515   0.83781   0.18783   0.00000  Uiso   1.00
Zn629  Zn    0.76898   0.83933   0.25521   0.00000  Uiso   1.00
Zn630  Zn    0.89769   0.82734   0.24479   0.00000  Uiso   1.00
Br631  Br    0.22014   0.32286   0.54611   0.00000  Uiso   1.00
Br632  Br    0.11320   0.01047   0.95389   0.00000  Uiso   1.00
Br633  Br    0.29178   0.28776   0.95043   0.00000  Uiso   1.00
Br634  Br    0.04155   0.04557   0.54957   0.00000  Uiso   1.00
C635   C     0.18145   0.26462   0.74952   0.00000  Uiso   1.00
C636   C     0.19380   0.20700   0.90564   0.00000  Uiso   1.00
C637   C     0.16697   0.16870   0.61608   0.00000  Uiso   1.00
C638   C     0.16636   0.16463   0.88393   0.00000  Uiso   1.00
C639   C     0.19783   0.20832   0.59253   0.00000  Uiso   1.00
C640   C     0.13550   0.12501   0.90747   0.00000  Uiso   1.00
C641   C     0.19296   0.21015   0.54631   0.00000  Uiso   1.00
C642   C     0.14037   0.12318   0.95369   0.00000  Uiso   1.00
C643   C     0.16592   0.16740   0.52357   0.00000  Uiso   1.00
C644   C     0.16741   0.16594   0.97643   0.00000  Uiso   1.00
C645   C     0.13610   0.12683   0.54780   0.00000  Uiso   1.00
C646   C     0.15189   0.06871   0.75048   0.00000  Uiso   1.00
C647   C     0.19723   0.20650   0.95220   0.00000  Uiso   1.00
C648   C     0.21631   0.25244   0.52168   0.00000  Uiso   1.00
C649   C     0.11702   0.08089   0.97832   0.00000  Uiso   1.00
C650   C     0.12490   0.07732   0.61997   0.00000  Uiso   1.00
C651   C     0.20843   0.25601   0.88003   0.00000  Uiso   1.00
C652   C     0.24199   0.24285   0.61597   0.00000  Uiso   1.00
C653   C     0.09134   0.09048   0.88403   0.00000  Uiso   1.00
C654   C     0.23638   0.00561   0.78422   0.00000  Uiso   1.00
C655   C     0.09696   0.32772   0.71578   0.00000  Uiso   1.00
C656   C     0.00634   0.13239   0.69532   0.00000  Uiso   1.00
C657   C     0.22683   0.24663   0.97581   0.00000  Uiso   1.00
C658   C     0.32699   0.20094   0.80468   0.00000  Uiso   1.00
C659   C     0.10650   0.08670   0.52419   0.00000  Uiso   1.00
C660   C     0.18765   0.31881   0.75638   0.00000  Uiso   1.00
C661   C     0.14568   0.01452   0.74362   0.00000  Uiso   1.00
C662   C     0.16642   0.16407   0.83608   0.00000  Uiso   1.00
C663   C     0.16692   0.16926   0.66392   0.00000  Uiso   1.00
C664   C     0.13953   0.12633   0.59436   0.00000  Uiso   1.00
H665   H     0.15120   0.07434   0.64867   0.00000  Uiso   1.00
H666   H     0.05851   0.07223   0.90758   0.00000  Uiso   1.00
H667   H     0.06465   0.11325   0.86451   0.00000  Uiso   1.00
H668   H     0.11261   0.06086   0.86171   0.00000  Uiso   1.00
H669   H     0.27082   0.02544   0.76280   0.00000  Uiso   1.00
H670   H     0.22049   0.03193   0.81213   0.00000  Uiso   1.00
H671   H     0.25629   0.30738   0.79981   0.00000  Uiso   1.00
H672   H     0.06252   0.30789   0.73720   0.00000  Uiso   1.00
H673   H     0.07704   0.02595   0.70019   0.00000  Uiso   1.00
H674   H     0.11284   0.30141   0.68787   0.00000  Uiso   1.00
H675   H     0.30615   0.10728   0.68003   0.00000  Uiso   1.00
H676   H     0.07944   0.07578   0.63245   0.00000  Uiso   1.00
H677   H     0.01854   0.16434   0.67245   0.00000  Uiso   1.00
H678   H     0.04150   0.10758   0.69975   0.00000  Uiso   1.00
H679   H     0.02718   0.22605   0.81997   0.00000  Uiso   1.00
H680   H     0.29183   0.22575   0.80025   0.00000  Uiso   1.00
H681   H     0.31479   0.16900   0.82755   0.00000  Uiso   1.00
H682   H     0.13425   0.04236   0.59882   0.00000  Uiso   1.00
H683   H     0.18213   0.25899   0.85133   0.00000  Uiso   1.00
H684   H     0.19909   0.29097   0.90118   0.00000  Uiso   1.00
H685   H     0.25389   0.25755   0.86754   0.00000  Uiso   1.00
H686   H     0.27482   0.26110   0.59242   0.00000  Uiso   1.00
H687   H     0.22072   0.27247   0.63828   0.00000  Uiso   1.00
H688   H     0.26868   0.22009   0.63549   0.00000  Uiso   1.00
N689   N     0.31678   0.15265   0.73783   0.00000  Uiso   1.00
N690   N     0.01656   0.18068   0.76217   0.00000  Uiso   1.00
O691   O     0.12975   0.24619   0.75299   0.00000  Uiso   1.00
O692   O     0.20358   0.08714   0.74702   0.00000  Uiso   1.00
O693   O     0.22613   0.23721   0.74519   0.00000  Uiso   1.00
O694   O     0.10720   0.09613   0.75482   0.00000  Uiso   1.00
O695   O     0.11847   0.17117   0.81998   0.00000  Uiso   1.00
O696   O     0.21486   0.16216   0.68003   0.00000  Uiso   1.00
O697   O     0.21485   0.16219   0.81218   0.00000  Uiso   1.00
O698   O     0.11848   0.17115   0.68783   0.00000  Uiso   1.00
Zn699  Zn    0.10231   0.17266   0.75521   0.00000  Uiso   1.00
Zn700  Zn    0.23102   0.16067   0.74479   0.00000  Uiso   1.00
Br701  Br    0.55347   0.32286   0.54611   0.00000  Uiso   1.00
Br702  Br    0.44653   0.01047   0.95389   0.00000  Uiso   1.00
Br703  Br    0.62512   0.28776   0.95043   0.00000  Uiso   1.00
Br704  Br    0.37489   0.04557   0.54957   0.00000  Uiso   1.00
C705   C     0.51478   0.26462   0.74952   0.00000  Uiso   1.00
C706   C     0.52714   0.20700   0.90564   0.00000  Uiso   1.00
C707   C     0.50031   0.16870   0.61608   0.00000  Uiso   1.00
C708   C     0.49969   0.16463   0.88393   0.00000  Uiso   1.00
C709   C     0.53117   0.20832   0.59253   0.00000  Uiso   1.00
C710   C     0.46883   0.12501   0.90747   0.00000  Uiso   1.00
C711   C     0.52629   0.21015   0.54631   0.00000  Uiso   1.00
C712   C     0.47370   0.12318   0.95369   0.00000  Uiso   1.00
C713   C     0.49925   0.16740   0.52357   0.00000  Uiso   1.00
C714   C     0.50075   0.16594   0.97643   0.00000  Uiso   1.00
C715   C     0.46943   0.12683   0.54780   0.00000  Uiso   1.00
C716   C     0.48522   0.06871   0.75048   0.00000  Uiso   1.00
C717   C     0.53057   0.20650   0.95220   0.00000  Uiso   1.00
C718   C     0.54964   0.25244   0.52168   0.00000  Uiso   1.00
C719   C     0.45036   0.08089   0.97832   0.00000  Uiso   1.00
C720   C     0.45823   0.07732   0.61997   0.00000  Uiso   1.00
C721   C     0.54177   0.25601   0.88003   0.00000  Uiso   1.00
C722   C     0.57532   0.24285   0.61597   0.00000  Uiso   1.00
C723   C     0.42467   0.09048   0.88403   0.00000  Uiso   1.00
C724   C     0.56971   0.00561   0.78422   0.00000  Uiso   1.00
C725   C     0.43029   0.32772   0.71578   0.00000  Uiso   1.00
C726   C     0.33968   0.13239   0.69532   0.00000  Uiso   1.00
C727   C     0.56016   0.24663   0.97581   0.00000  Uiso   1.00
C728   C     0.66032   0.20094   0.80468   0.00000  Uiso   1.00
C729   C     0.43984   0.08670   0.52419   0.00000  Uiso   1.00
C730   C     0.52099   0.31881   0.75638   0.00000  Uiso   1.00
C731   C     0.47901   0.01452   0.74362   0.00000  Uiso   1.00
C732   C     0.49975   0.16407   0.83608   0.00000  Uiso   1.00
C733   C     0.50025   0.16926   0.66392   0.00000  Uiso   1.00
C734   C     0.47286   0.12633   0.59436   0.00000  Uiso   1.00
H735   H     0.48453   0.07434   0.64867   0.00000  Uiso   1.00
H736   H     0.39184   0.07223   0.90758   0.00000  Uiso   1.00
H737   H     0.39798   0.11325   0.86451   0.00000  Uiso   1.00
H738   H     0.44594   0.06086   0.86171   0.00000  Uiso   1.00
H739   H     0.60415   0.02544   0.76280   0.00000  Uiso   1.00
H740   H     0.55382   0.03193   0.81213   0.00000  Uiso   1.00
H741   H     0.58963   0.30738   0.79981   0.00000  Uiso   1.00
H742   H     0.39585   0.30789   0.73720   0.00000  Uiso   1.00
H743   H     0.41038   0.02595   0.70019   0.00000  Uiso   1.00
H744   H     0.44618   0.30141   0.68787   0.00000  Uiso   1.00
H745   H     0.63948   0.10728   0.68003   0.00000  Uiso   1.00
H746   H     0.41277   0.07578   0.63245   0.00000  Uiso   1.00
H747   H     0.35188   0.16434   0.67245   0.00000  Uiso   1.00
H748   H     0.37483   0.10758   0.69975   0.00000  Uiso   1.00
H749   H     0.36051   0.22605   0.81997   0.00000  Uiso   1.00
H750   H     0.62517   0.22575   0.80025   0.00000  Uiso   1.00
H751   H     0.64812   0.16900   0.82755   0.00000  Uiso   1.00
H752   H     0.46758   0.04236   0.59882   0.00000  Uiso   1.00
H753   H     0.51546   0.25899   0.85133   0.00000  Uiso   1.00
H754   H     0.53242   0.29097   0.90118   0.00000  Uiso   1.00
H755   H     0.58723   0.25755   0.86754   0.00000  Uiso   1.00
H756   H     0.60816   0.26110   0.59242   0.00000  Uiso   1.00
H757   H     0.55405   0.27247   0.63828   0.00000  Uiso   1.00
H758   H     0.60202   0.22009   0.63549   0.00000  Uiso   1.00
N759   N     0.65011   0.15265   0.73783   0.00000  Uiso   1.00
N760   N     0.34989   0.18068   0.76217   0.00000  Uiso   1.00
O761   O     0.46308   0.24619   0.75299   0.00000  Uiso   1.00
O762   O     0.53692   0.08714   0.74702   0.00000  Uiso   1.00
O763   O     0.55946   0.23721   0.74519   0.00000  Uiso   1.00
O764   O     0.44054   0.09613   0.75482   0.00000  Uiso   1.00
O765   O     0.45181   0.17117   0.81998   0.00000  Uiso   1.00
O766   O     0.54819   0.16216   0.68003   0.00000  Uiso   1.00
O767   O     0.54819   0.16219   0.81218   0.00000  Uiso   1.00
O768   O     0.45181   0.17115   0.68783   0.00000  Uiso   1.00
Zn769  Zn    0.43565   0.17266   0.75521   0.00000  Uiso   1.00
Zn770  Zn    0.56435   0.16067   0.74479   0.00000  Uiso   1.00
Br771  Br    0.88681   0.32286   0.54611   0.00000  Uiso   1.00
Br772  Br    0.77986   0.01047   0.95389   0.00000  Uiso   1.00
Br773  Br    0.95845   0.28776   0.95043   0.00000  Uiso   1.00
Br774  Br    0.70822   0.04557   0.54957   0.00000  Uiso   1.00
C775   C     0.84811   0.26462   0.74952   0.00000  Uiso   1.00
C776   C     0.86047   0.20700   0.90564   0.00000  Uiso   1.00
C777   C     0.83364   0.16870   0.61608   0.00000  Uiso   1.00
C778   C     0.83303   0.16463   0.88393   0.00000  Uiso   1.00
C779   C     0.86450   0.20832   0.59253   0.00000  Uiso   1.00
C780   C     0.80217   0.12501   0.90747   0.00000  Uiso   1.00
C781   C     0.85963   0.21015   0.54631   0.00000  Uiso   1.00
C782   C     0.80704   0.12318   0.95369   0.00000  Uiso   1.00
C783   C     0.83259   0.16740   0.52357   0.00000  Uiso   1.00
C784   C     0.83408   0.16594   0.97643   0.00000  Uiso   1.00
C785   C     0.80277   0.12683   0.54780   0.00000  Uiso   1.00
C786   C     0.81855   0.06871   0.75048   0.00000  Uiso   1.00
C787   C     0.86390   0.20650   0.95220   0.00000  Uiso   1.00
C788   C     0.88298   0.25244   0.52168   0.00000  Uiso   1.00
C789   C     0.78369   0.08089   0.97832   0.00000  Uiso   1.00
C790   C     0.79157   0.07732   0.61997   0.00000  Uiso   1.00
C791   C     0.87510   0.25601   0.88003   0.00000  Uiso   1.00
C792   C     0.90866   0.24285   0.61597   0.00000  Uiso   1.00
C793   C     0.75801   0.09048   0.88403   0.00000  Uiso   1.00
C794   C     0.90304   0.00561   0.78422   0.00000  Uiso   1.00
C795   C     0.76362   0.32772   0.71578   0.00000  Uiso   1.00
C796   C     0.67301   0.13239   0.69532   0.00000  Uiso   1.00
C797   C     0.89350   0.24663   0.97581   0.00000  Uiso   1.00
C798   C     0.99366   0.20094   0.80468   0.00000  Uiso   1.00
C799   C     0.77317   0.08670   0.52419   0.00000  Uiso   1.00
C800   C     0.85432   0.31881   0.75638   0.00000  Uiso   1.00
C801   C     0.81235   0.01452   0.74362   0.00000  Uiso   1.00
C802   C     0.83308   0.16407   0.83608   0.00000  Uiso   1.00
C803   C     0.83358   0.16926   0.66392   0.00000  Uiso   1.00
C804   C     0.80620   0.12633   0.59436   0.00000  Uiso   1.00
H805   H     0.81787   0.07434   0.64867   0.00000  Uiso   1.00
H806   H     0.72518   0.07223   0.90758   0.00000  Uiso   1.00
H807   H     0.73131   0.11325   0.86451   0.00000  Uiso   1.00
H808   H     0.77928   0.06086   0.86171   0.00000  Uiso   1.00
H809   H     0.93748   0.02544   0.76280   0.00000  Uiso   1.00
H810   H     0.88716   0.03193   0.81213   0.00000  Uiso   1.00
H811   H     0.92296   0.30738   0.79981   0.00000  Uiso   1.00
H812   H     0.72918   0.30789   0.73720   0.00000  Uiso   1.00
H813   H     0.74371   0.02595   0.70019   0.00000  Uiso   1.00
H814   H     0.77951   0.30141   0.68787   0.00000  Uiso   1.00
H815   H     0.97282   0.10728   0.68003   0.00000  Uiso   1.00
H816   H     0.74610   0.07578   0.63245   0.00000  Uiso   1.00
H817   H     0.68521   0.16434   0.67245   0.00000  Uiso   1.00
H818   H     0.70816   0.10758   0.69975   0.00000  Uiso   1.00
H819   H     0.69385   0.22605   0.81997   0.00000  Uiso   1.00
H820   H     0.95850   0.22575   0.80025   0.00000  Uiso   1.00
H821   H     0.98146   0.16900   0.82755   0.00000  Uiso   1.00
H822   H     0.80091   0.04236   0.59882   0.00000  Uiso   1.00
H823   H     0.84879   0.25899   0.85133   0.00000  Uiso   1.00
H824   H     0.86576   0.29097   0.90118   0.00000  Uiso   1.00
H825   H     0.92056   0.25755   0.86754   0.00000  Uiso   1.00
H826   H     0.94149   0.26110   0.59242   0.00000  Uiso   1.00
H827   H     0.88739   0.27247   0.63828   0.00000  Uiso   1.00
H828   H     0.93535   0.22009   0.63549   0.00000  Uiso   1.00
N829   N     0.98344   0.15265   0.73783   0.00000  Uiso   1.00
N830   N     0.68322   0.18068   0.76217   0.00000  Uiso   1.00
O831   O     0.79642   0.24619   0.75299   0.00000  Uiso   1.00
O832   O     0.87025   0.08714   0.74702   0.00000  Uiso   1.00
O833   O     0.89280   0.23721   0.74519   0.00000  Uiso   1.00
O834   O     0.77387   0.09613   0.75482   0.00000  Uiso   1.00
O835   O     0.78514   0.17117   0.81998   0.00000  Uiso   1.00
O836   O     0.88153   0.16216   0.68003   0.00000  Uiso   1.00
O837   O     0.88152   0.16219   0.81218   0.00000  Uiso   1.00
O838   O     0.78515   0.17115   0.68783   0.00000  Uiso   1.00
Zn839  Zn    0.76898   0.17266   0.75521   0.00000  Uiso   1.00
Zn840  Zn    0.89769   0.16067   0.74479   0.00000  Uiso   1.00
Br841  Br    0.22014   0.65620   0.54611   0.00000  Uiso   1.00
Br842  Br    0.11320   0.34380   0.95389   0.00000  Uiso   1.00
Br843  Br    0.29178   0.62109   0.95043   0.00000  Uiso   1.00
Br844  Br    0.04155   0.37890   0.54957   0.00000  Uiso   1.00
C845   C     0.18145   0.59795   0.74952   0.00000  Uiso   1.00
C846   C     0.19380   0.54034   0.90564   0.00000  Uiso   1.00
C847   C     0.16697   0.50203   0.61608   0.00000  Uiso   1.00
C848   C     0.16636   0.49797   0.88393   0.00000  Uiso   1.00
C849   C     0.19783   0.54165   0.59253   0.00000  Uiso   1.00
C850   C     0.13550   0.45835   0.90747   0.00000  Uiso   1.00
C851   C     0.19296   0.54348   0.54631   0.00000  Uiso   1.00
C852   C     0.14037   0.45652   0.95369   0.00000  Uiso   1.00
C853   C     0.16592   0.50073   0.52357   0.00000  Uiso   1.00
C854   C     0.16741   0.49927   0.97643   0.00000  Uiso   1.00
C855   C     0.13610   0.46016   0.54780   0.00000  Uiso   1.00
C856   C     0.15189   0.40205   0.75048   0.00000  Uiso   1.00
C857   C     0.19723   0.53984   0.95220   0.00000  Uiso   1.00
C858   C     0.21631   0.58577   0.52168   0.00000  Uiso   1.00
C859   C     0.11702   0.41423   0.97832   0.00000  Uiso   1.00
C860   C     0.12490   0.41065   0.61997   0.00000  Uiso   1.00
C861   C     0.20843   0.58935   0.88003   0.00000  Uiso   1.00
C862   C     0.24199   0.57619   0.61597   0.00000  Uiso   1.00
C863   C     0.09134   0.42381   0.88403   0.00000  Uiso   1.00
C864   C     0.23638   0.33895   0.78422   0.00000  Uiso   1.00
C865   C     0.09696   0.66105   0.71578   0.00000  Uiso   1.00
C866   C     0.00634   0.46572   0.69532   0.00000  Uiso   1.00
C867   C     0.22683   0.57996   0.97581   0.00000  Uiso   1.00
C868   C     0.32699   0.53428   0.80468   0.00000  Uiso   1.00
C869   C     0.10650   0.42003   0.52419   0.00000  Uiso   1.00
C870   C     0.18765   0.65214   0.75638   0.00000  Uiso   1.00
C871   C     0.14568   0.34786   0.74362   0.00000  Uiso   1.00
C872   C     0.16642   0.49741   0.83608   0.00000  Uiso   1.00
C873   C     0.16692   0.50259   0.66392   0.00000  Uiso   1.00
C874   C     0.13953   0.45966   0.59436   0.00000  Uiso   1.00
H875   H     0.15120   0.40768   0.64867   0.00000  Uiso   1.00
H876   H     0.05851   0.40556   0.90758   0.00000  Uiso   1.00
H877   H     0.06465   0.44658   0.86451   0.00000  Uiso   1.00
H878   H     0.11261   0.39420   0.86171   0.00000  Uiso   1.00
H879   H     0.27082   0.35877   0.76280   0.00000  Uiso   1.00
H880   H     0.22049   0.36526   0.81213   0.00000  Uiso   1.00
H881   H     0.25629   0.64071   0.79981   0.00000  Uiso   1.00
H882   H     0.06252   0.64123   0.73720   0.00000  Uiso   1.00
H883   H     0.07704   0.35929   0.70019   0.00000  Uiso   1.00
H884   H     0.11284   0.63474   0.68787   0.00000  Uiso   1.00
H885   H     0.30615   0.44062   0.68003   0.00000  Uiso   1.00
H886   H     0.07944   0.40912   0.63245   0.00000  Uiso   1.00
H887   H     0.01854   0.49767   0.67245   0.00000  Uiso   1.00
H888   H     0.04150   0.44092   0.69975   0.00000  Uiso   1.00
H889   H     0.02718   0.55938   0.81997   0.00000  Uiso   1.00
H890   H     0.29183   0.55908   0.80025   0.00000  Uiso   1.00
H891   H     0.31479   0.50233   0.82755   0.00000  Uiso   1.00
H892   H     0.13425   0.37570   0.59882   0.00000  Uiso   1.00
H893   H     0.18213   0.59232   0.85133   0.00000  Uiso   1.00
H894   H     0.19909   0.62430   0.90118   0.00000  Uiso   1.00
H895   H     0.25389   0.59088   0.86754   0.00000  Uiso   1.00
H896   H     0.27482   0.59444   0.59242   0.00000  Uiso   1.00
H897   H     0.22072   0.60581   0.63828   0.00000  Uiso   1.00
H898   H     0.26868   0.55342   0.63549   0.00000  Uiso   1.00
N899   N     0.31678   0.48598   0.73783   0.00000  Uiso   1.00
N900   N     0.01656   0.51402   0.76217   0.00000  Uiso   1.00
O901   O     0.12975   0.57952   0.75299   0.00000  Uiso   1.00
O902   O     0.20358   0.42048   0.74702   0.00000  Uiso   1.00
O903   O     0.22613   0.57054   0.74519   0.00000  Uiso   1.00
O904   O     0.10720   0.42946   0.75482   0.00000  Uiso   1.00
O905   O     0.11847   0.50450   0.81998   0.00000  Uiso   1.00
O906   O     0.21486   0.49550   0.68003   0.00000  Uiso   1.00
O907   O     0.21485   0.49552   0.81218   0.00000  Uiso   1.00
O908   O     0.11848   0.50448   0.68783   0.00000  Uiso   1.00
Zn909  Zn    0.10231   0.50600   0.75521   0.00000  Uiso   1.00
Zn910  Zn    0.23102   0.49400   0.74479   0.00000  Uiso   1.00
Br911  Br    0.55347   0.65620   0.54611   0.00000  Uiso   1.00
Br912  Br    0.44653   0.34380   0.95389   0.00000  Uiso   1.00
Br913  Br    0.62512   0.62109   0.95043   0.00000  Uiso   1.00
Br914  Br    0.37489   0.37890   0.54957   0.00000  Uiso   1.00
C915   C     0.51478   0.59795   0.74952   0.00000  Uiso   1.00
C916   C     0.52714   0.54034   0.90564   0.00000  Uiso   1.00
C917   C     0.50031   0.50203   0.61608   0.00000  Uiso   1.00
C918   C     0.49969   0.49797   0.88393   0.00000  Uiso   1.00
C919   C     0.53117   0.54165   0.59253   0.00000  Uiso   1.00
C920   C     0.46883   0.45835   0.90747   0.00000  Uiso   1.00
C921   C     0.52629   0.54348   0.54631   0.00000  Uiso   1.00
C922   C     0.47370   0.45652   0.95369   0.00000  Uiso   1.00
C923   C     0.49925   0.50073   0.52357   0.00000  Uiso   1.00
C924   C     0.50075   0.49927   0.97643   0.00000  Uiso   1.00
C925   C     0.46943   0.46016   0.54780   0.00000  Uiso   1.00
C926   C     0.48522   0.40205   0.75048   0.00000  Uiso   1.00
C927   C     0.53057   0.53984   0.95220   0.00000  Uiso   1.00
C928   C     0.54964   0.58577   0.52168   0.00000  Uiso   1.00
C929   C     0.45036   0.41423   0.97832   0.00000  Uiso   1.00
C930   C     0.45823   0.41065   0.61997   0.00000  Uiso   1.00
C931   C     0.54177   0.58935   0.88003   0.00000  Uiso   1.00
C932   C     0.57532   0.57619   0.61597   0.00000  Uiso   1.00
C933   C     0.42467   0.42381   0.88403   0.00000  Uiso   1.00
C934   C     0.56971   0.33895   0.78422   0.00000  Uiso   1.00
C935   C     0.43029   0.66105   0.71578   0.00000  Uiso   1.00
C936   C     0.33968   0.46572   0.69532   0.00000  Uiso   1.00
C937   C     0.56016   0.57996   0.97581   0.00000  Uiso   1.00
C938   C     0.66032   0.53428   0.80468   0.00000  Uiso   1.00
C939   C     0.43984   0.42003   0.52419   0.00000  Uiso   1.00
C940   C     0.52099   0.65214   0.75638   0.00000  Uiso   1.00
C941   C     0.47901   0.34786   0.74362   0.00000  Uiso   1.00
C942   C     0.49975   0.49741   0.83608   0.00000  Uiso   1.00
C943   C     0.50025   0.50259   0.66392   0.00000  Uiso   1.00
C944   C     0.47286   0.45966   0.59436   0.00000  Uiso   1.00
H945   H     0.48453   0.40768   0.64867   0.00000  Uiso   1.00
H946   H     0.39184   0.40556   0.90758   0.00000  Uiso   1.00
H947   H     0.39798   0.44658   0.86451   0.00000  Uiso   1.00
H948   H     0.44594   0.39420   0.86171   0.00000  Uiso   1.00
H949   H     0.60415   0.35877   0.76280   0.00000  Uiso   1.00
H950   H     0.55382   0.36526   0.81213   0.00000  Uiso   1.00
H951   H     0.58963   0.64071   0.79981   0.00000  Uiso   1.00
H952   H     0.39585   0.64123   0.73720   0.00000  Uiso   1.00
H953   H     0.41038   0.35929   0.70019   0.00000  Uiso   1.00
H954   H     0.44618   0.63474   0.68787   0.00000  Uiso   1.00
H955   H     0.63948   0.44062   0.68003   0.00000  Uiso   1.00
H956   H     0.41277   0.40912   0.63245   0.00000  Uiso   1.00
H957   H     0.35188   0.49767   0.67245   0.00000  Uiso   1.00
H958   H     0.37483   0.44092   0.69975   0.00000  Uiso   1.00
H959   H     0.36051   0.55938   0.81997   0.00000  Uiso   1.00
H960   H     0.62517   0.55908   0.80025   0.00000  Uiso   1.00
H961   H     0.64812   0.50233   0.82755   0.00000  Uiso   1.00
H962   H     0.46758   0.37570   0.59882   0.00000  Uiso   1.00
H963   H     0.51546   0.59232   0.85133   0.00000  Uiso   1.00
H964   H     0.53242   0.62430   0.90118   0.00000  Uiso   1.00
H965   H     0.58723   0.59088   0.86754   0.00000  Uiso   1.00
H966   H     0.60816   0.59444   0.59242   0.00000  Uiso   1.00
H967   H     0.55405   0.60581   0.63828   0.00000  Uiso   1.00
H968   H     0.60202   0.55342   0.63549   0.00000  Uiso   1.00
N969   N     0.65011   0.48598   0.73783   0.00000  Uiso   1.00
N970   N     0.34989   0.51402   0.76217   0.00000  Uiso   1.00
O971   O     0.46308   0.57952   0.75299   0.00000  Uiso   1.00
O972   O     0.53692   0.42048   0.74702   0.00000  Uiso   1.00
O973   O     0.55946   0.57054   0.74519   0.00000  Uiso   1.00
O974   O     0.44054   0.42946   0.75482   0.00000  Uiso   1.00
O975   O     0.45181   0.50450   0.81998   0.00000  Uiso   1.00
O976   O     0.54819   0.49550   0.68003   0.00000  Uiso   1.00
O977   O     0.54819   0.49552   0.81218   0.00000  Uiso   1.00
O978   O     0.45181   0.50448   0.68783   0.00000  Uiso   1.00
Zn979  Zn    0.43565   0.50600   0.75521   0.00000  Uiso   1.00
Zn980  Zn    0.56435   0.49400   0.74479   0.00000  Uiso   1.00
Br981  Br    0.88681   0.65620   0.54611   0.00000  Uiso   1.00
Br982  Br    0.77986   0.34380   0.95389   0.00000  Uiso   1.00
Br983  Br    0.95845   0.62109   0.95043   0.00000  Uiso   1.00
Br984  Br    0.70822   0.37890   0.54957   0.00000  Uiso   1.00
C985   C     0.84811   0.59795   0.74952   0.00000  Uiso   1.00
C986   C     0.86047   0.54034   0.90564   0.00000  Uiso   1.00
C987   C     0.83364   0.50203   0.61608   0.00000  Uiso   1.00
C988   C     0.83303   0.49797   0.88393   0.00000  Uiso   1.00
C989   C     0.86450   0.54165   0.59253   0.00000  Uiso   1.00
C990   C     0.80217   0.45835   0.90747   0.00000  Uiso   1.00
C991   C     0.85963   0.54348   0.54631   0.00000  Uiso   1.00
C992   C     0.80704   0.45652   0.95369   0.00000  Uiso   1.00
C993   C     0.83259   0.50073   0.52357   0.00000  Uiso   1.00
C994   C     0.83408   0.49927   0.97643   0.00000  Uiso   1.00
C995   C     0.80277   0.46016   0.54780   0.00000  Uiso   1.00
C996   C     0.81855   0.40205   0.75048   0.00000  Uiso   1.00
C997   C     0.86390   0.53984   0.95220   0.00000  Uiso   1.00
C998   C     0.88298   0.58577   0.52168   0.00000  Uiso   1.00
C999   C     0.78369   0.41423   0.97832   0.00000  Uiso   1.00
C1000  C     0.79157   0.41065   0.61997   0.00000  Uiso   1.00
C1001  C     0.87510   0.58935   0.88003   0.00000  Uiso   1.00
C1002  C     0.90866   0.57619   0.61597   0.00000  Uiso   1.00
C1003  C     0.75801   0.42381   0.88403   0.00000  Uiso   1.00
C1004  C     0.90304   0.33895   0.78422   0.00000  Uiso   1.00
C1005  C     0.76362   0.66105   0.71578   0.00000  Uiso   1.00
C1006  C     0.67301   0.46572   0.69532   0.00000  Uiso   1.00
C1007  C     0.89350   0.57996   0.97581   0.00000  Uiso   1.00
C1008  C     0.99366   0.53428   0.80468   0.00000  Uiso   1.00
C1009  C     0.77317   0.42003   0.52419   0.00000  Uiso   1.00
C1010  C     0.85432   0.65214   0.75638   0.00000  Uiso   1.00
C1011  C     0.81235   0.34786   0.74362   0.00000  Uiso   1.00
C1012  C     0.83308   0.49741   0.83608   0.00000  Uiso   1.00
C1013  C     0.83358   0.50259   0.66392   0.00000  Uiso   1.00
C1014  C     0.80620   0.45966   0.59436   0.00000  Uiso   1.00
H1015  H     0.81787   0.40768   0.64867   0.00000  Uiso   1.00
H1016  H     0.72518   0.40556   0.90758   0.00000  Uiso   1.00
H1017  H     0.73131   0.44658   0.86451   0.00000  Uiso   1.00
H1018  H     0.77928   0.39420   0.86171   0.00000  Uiso   1.00
H1019  H     0.93748   0.35877   0.76280   0.00000  Uiso   1.00
H1020  H     0.88716   0.36526   0.81213   0.00000  Uiso   1.00
H1021  H     0.92296   0.64071   0.79981   0.00000  Uiso   1.00
H1022  H     0.72918   0.64123   0.73720   0.00000  Uiso   1.00
H1023  H     0.74371   0.35929   0.70019   0.00000  Uiso   1.00
H1024  H     0.77951   0.63474   0.68787   0.00000  Uiso   1.00
H1025  H     0.97282   0.44062   0.68003   0.00000  Uiso   1.00
H1026  H     0.74610   0.40912   0.63245   0.00000  Uiso   1.00
H1027  H     0.68521   0.49767   0.67245   0.00000  Uiso   1.00
H1028  H     0.70816   0.44092   0.69975   0.00000  Uiso   1.00
H1029  H     0.69385   0.55938   0.81997   0.00000  Uiso   1.00
H1030  H     0.95850   0.55908   0.80025   0.00000  Uiso   1.00
H1031  H     0.98146   0.50233   0.82755   0.00000  Uiso   1.00
H1032  H     0.80091   0.37570   0.59882   0.00000  Uiso   1.00
H1033  H     0.84879   0.59232   0.85133   0.00000  Uiso   1.00
H1034  H     0.86576   0.62430   0.90118   0.00000  Uiso   1.00
H1035  H     0.92056   0.59088   0.86754   0.00000  Uiso   1.00
H1036  H     0.94149   0.59444   0.59242   0.00000  Uiso   1.00
H1037  H     0.88739   0.60581   0.63828   0.00000  Uiso   1.00
H1038  H     0.93535   0.55342   0.63549   0.00000  Uiso   1.00
N1039  N     0.98344   0.48598   0.73783   0.00000  Uiso   1.00
N1040  N     0.68322   0.51402   0.76217   0.00000  Uiso   1.00
O1041  O     0.79642   0.57952   0.75299   0.00000  Uiso   1.00
O1042  O     0.87025   0.42048   0.74702   0.00000  Uiso   1.00
O1043  O     0.89280   0.57054   0.74519   0.00000  Uiso   1.00
O1044  O     0.77387   0.42946   0.75482   0.00000  Uiso   1.00
O1045  O     0.78514   0.50450   0.81998   0.00000  Uiso   1.00
O1046  O     0.88153   0.49550   0.68003   0.00000  Uiso   1.00
O1047  O     0.88152   0.49552   0.81218   0.00000  Uiso   1.00
O1048  O     0.78515   0.50448   0.68783   0.00000  Uiso   1.00
Zn1049 Zn    0.76898   0.50600   0.75521   0.00000  Uiso   1.00
Zn1050 Zn    0.89769   0.49400   0.74479   0.00000  Uiso   1.00
Br1051 Br    0.22014   0.98953   0.54611   0.00000  Uiso   1.00
Br1052 Br    0.11320   0.67714   0.95389   0.00000  Uiso   1.00
Br1053 Br    0.29178   0.95442   0.95043   0.00000  Uiso   1.00
Br1054 Br    0.04155   0.71224   0.54957   0.00000  Uiso   1.00
C1055  C     0.18145   0.93129   0.74952   0.00000  Uiso   1.00
C1056  C     0.19380   0.87367   0.90564   0.00000  Uiso   1.00
C1057  C     0.16697   0.83536   0.61608   0.00000  Uiso   1.00
C1058  C     0.16636   0.83130   0.88393   0.00000  Uiso   1.00
C1059  C     0.19783   0.87499   0.59253   0.00000  Uiso   1.00
C1060  C     0.13550   0.79168   0.90747   0.00000  Uiso   1.00
C1061  C     0.19296   0.87682   0.54631   0.00000  Uiso   1.00
C1062  C     0.14037   0.78985   0.95369   0.00000  Uiso   1.00
C1063  C     0.16592   0.83406   0.52357   0.00000  Uiso   1.00
C1064  C     0.16741   0.83260   0.97643   0.00000  Uiso   1.00
C1065  C     0.13610   0.79349   0.54780   0.00000  Uiso   1.00
C1066  C     0.15189   0.73538   0.75048   0.00000  Uiso   1.00
C1067  C     0.19723   0.87317   0.95220   0.00000  Uiso   1.00
C1068  C     0.21631   0.91911   0.52168   0.00000  Uiso   1.00
C1069  C     0.11702   0.74756   0.97832   0.00000  Uiso   1.00
C1070  C     0.12490   0.74399   0.61997   0.00000  Uiso   1.00
C1071  C     0.20843   0.92268   0.88003   0.00000  Uiso   1.00
C1072  C     0.24199   0.90952   0.61597   0.00000  Uiso   1.00
C1073  C     0.09134   0.75715   0.88403   0.00000  Uiso   1.00
C1074  C     0.23638   0.67228   0.78422   0.00000  Uiso   1.00
C1075  C     0.09696   0.99439   0.71578   0.00000  Uiso   1.00
C1076  C     0.00634   0.79906   0.69532   0.00000  Uiso   1.00
C1077  C     0.22683   0.91330   0.97581   0.00000  Uiso   1.00
C1078  C     0.32699   0.86761   0.80468   0.00000  Uiso   1.00
C1079  C     0.10650   0.75337   0.52419   0.00000  Uiso   1.00
C1080  C     0.18765   0.98548   0.75638   0.00000  Uiso   1.00
C1081  C     0.14568   0.68119   0.74362   0.00000  Uiso   1.00
C1082  C     0.16642   0.83074   0.83608   0.00000  Uiso   1.00
C1083  C     0.16692   0.83593   0.66392   0.00000  Uiso   1.00
C1084  C     0.13953   0.79300   0.59436   0.00000  Uiso   1.00
H1085  H     0.15120   0.74101   0.64867   0.00000  Uiso   1.00
H1086  H     0.05851   0.73890   0.90758   0.00000  Uiso   1.00
H1087  H     0.06465   0.77991   0.86451   0.00000  Uiso   1.00
H1088  H     0.11261   0.72753   0.86171   0.00000  Uiso   1.00
H1089  H     0.27082   0.69211   0.76280   0.00000  Uiso   1.00
H1090  H     0.22049   0.69859   0.81213   0.00000  Uiso   1.00
H1091  H     0.25629   0.97405   0.79981   0.00000  Uiso   1.00
H1092  H     0.06252   0.97456   0.73720   0.00000  Uiso   1.00
H1093  H     0.07704   0.69262   0.70019   0.00000  Uiso   1.00
H1094  H     0.11284   0.96807   0.68787   0.00000  Uiso   1.00
H1095  H     0.30615   0.77395   0.68003   0.00000  Uiso   1.00
H1096  H     0.07944   0.74245   0.63245   0.00000  Uiso   1.00
H1097  H     0.01854   0.83100   0.67245   0.00000  Uiso   1.00
H1098  H     0.04150   0.77425   0.69975   0.00000  Uiso   1.00
H1099  H     0.02718   0.89271   0.81997   0.00000  Uiso   1.00
H1100  H     0.29183   0.89242   0.80025   0.00000  Uiso   1.00
H1101  H     0.31479   0.83566   0.82755   0.00000  Uiso   1.00
H1102  H     0.13425   0.70903   0.59882   0.00000  Uiso   1.00
H1103  H     0.18213   0.92566   0.85133   0.00000  Uiso   1.00
H1104  H     0.19909   0.95764   0.90118   0.00000  Uiso   1.00
H1105  H     0.25389   0.92421   0.86754   0.00000  Uiso   1.00
H1106  H     0.27482   0.92777   0.59242   0.00000  Uiso   1.00
H1107  H     0.22072   0.93914   0.63828   0.00000  Uiso   1.00
H1108  H     0.26868   0.88676   0.63549   0.00000  Uiso   1.00
N1109  N     0.31678   0.81932   0.73783   0.00000  Uiso   1.00
N1110  N     0.01656   0.84735   0.76217   0.00000  Uiso   1.00
O1111  O     0.12975   0.91286   0.75299   0.00000  Uiso   1.00
O1112  O     0.20358   0.75381   0.74702   0.00000  Uiso   1.00
O1113  O     0.22613   0.90387   0.74519   0.00000  Uiso   1.00
O1114  O     0.10720   0.76279   0.75482   0.00000  Uiso   1.00
O1115  O     0.11847   0.83784   0.81998   0.00000  Uiso   1.00
O1116  O     0.21486   0.82883   0.68003   0.00000  Uiso   1.00
O1117  O     0.21485   0.82885   0.81218   0.00000  Uiso   1.00
O1118  O     0.11848   0.83781   0.68783   0.00000  Uiso   1.00
Zn1119 Zn    0.10231   0.83933   0.75521   0.00000  Uiso   1.00
Zn1120 Zn    0.23102   0.82734   0.74479   0.00000  Uiso   1.00
Br1121 Br    0.55347   0.98953   0.54611   0.00000  Uiso   1.00
Br1122 Br    0.44653   0.67714   0.95389   0.00000  Uiso   1.00
Br1123 Br    0.62512   0.95442   0.95043   0.00000  Uiso   1.00
Br1124 Br    0.37489   0.71224   0.54957   0.00000  Uiso   1.00
C1125  C     0.51478   0.93129   0.74952   0.00000  Uiso   1.00
C1126  C     0.52714   0.87367   0.90564   0.00000  Uiso   1.00
C1127  C     0.50031   0.83536   0.61608   0.00000  Uiso   1.00
C1128  C     0.49969   0.83130   0.88393   0.00000  Uiso   1.00
C1129  C     0.53117   0.87499   0.59253   0.00000  Uiso   1.00
C1130  C     0.46883   0.79168   0.90747   0.00000  Uiso   1.00
C1131  C     0.52629   0.87682   0.54631   0.00000  Uiso   1.00
C1132  C     0.47370   0.78985   0.95369   0.00000  Uiso   1.00
C1133  C     0.49925   0.83406   0.52357   0.00000  Uiso   1.00
C1134  C     0.50075   0.83260   0.97643   0.00000  Uiso   1.00
C1135  C     0.46943   0.79349   0.54780   0.00000  Uiso   1.00
C1136  C     0.48522   0.73538   0.75048   0.00000  Uiso   1.00
C1137  C     0.53057   0.87317   0.95220   0.00000  Uiso   1.00
C1138  C     0.54964   0.91911   0.52168   0.00000  Uiso   1.00
C1139  C     0.45036   0.74756   0.97832   0.00000  Uiso   1.00
C1140  C     0.45823   0.74399   0.61997   0.00000  Uiso   1.00
C1141  C     0.54177   0.92268   0.88003   0.00000  Uiso   1.00
C1142  C     0.57532   0.90952   0.61597   0.00000  Uiso   1.00
C1143  C     0.42467   0.75715   0.88403   0.00000  Uiso   1.00
C1144  C     0.56971   0.67228   0.78422   0.00000  Uiso   1.00
C1145  C     0.43029   0.99439   0.71578   0.00000  Uiso   1.00
C1146  C     0.33968   0.79906   0.69532   0.00000  Uiso   1.00
C1147  C     0.56016   0.91330   0.97581   0.00000  Uiso   1.00
C1148  C     0.66032   0.86761   0.80468   0.00000  Uiso   1.00
C1149  C     0.43984   0.75337   0.52419   0.00000  Uiso   1.00
C1150  C     0.52099   0.98548   0.75638   0.00000  Uiso   1.00
C1151  C     0.47901   0.68119   0.74362   0.00000  Uiso   1.00
C1152  C     0.49975   0.83074   0.83608   0.00000  Uiso   1.00
C1153  C     0.50025   0.83593   0.66392   0.00000  Uiso   1.00
C1154  C     0.47286   0.79300   0.59436   0.00000  Uiso   1.00
H1155  H     0.48453   0.74101   0.64867   0.00000  Uiso   1.00
H1156  H     0.39184   0.73890   0.90758   0.00000  Uiso   1.00
H1157  H     0.39798   0.77991   0.86451   0.00000  Uiso   1.00
H1158  H     0.44594   0.72753   0.86171   0.00000  Uiso   1.00
H1159  H     0.60415   0.69211   0.76280   0.00000  Uiso   1.00
H1160  H     0.55382   0.69859   0.81213   0.00000  Uiso   1.00
H1161  H     0.58963   0.97405   0.79981   0.00000  Uiso   1.00
H1162  H     0.39585   0.97456   0.73720   0.00000  Uiso   1.00
H1163  H     0.41038   0.69262   0.70019   0.00000  Uiso   1.00
H1164  H     0.44618   0.96807   0.68787   0.00000  Uiso   1.00
H1165  H     0.63948   0.77395   0.68003   0.00000  Uiso   1.00
H1166  H     0.41277   0.74245   0.63245   0.00000  Uiso   1.00
H1167  H     0.35188   0.83100   0.67245   0.00000  Uiso   1.00
H1168  H     0.37483   0.77425   0.69975   0.00000  Uiso   1.00
H1169  H     0.36051   0.89271   0.81997   0.00000  Uiso   1.00
H1170  H     0.62517   0.89242   0.80025   0.00000  Uiso   1.00
H1171  H     0.64812   0.83566   0.82755   0.00000  Uiso   1.00
H1172  H     0.46758   0.70903   0.59882   0.00000  Uiso   1.00
H1173  H     0.51546   0.92566   0.85133   0.00000  Uiso   1.00
H1174  H     0.53242   0.95764   0.90118   0.00000  Uiso   1.00
H1175  H     0.58723   0.92421   0.86754   0.00000  Uiso   1.00
H1176  H     0.60816   0.92777   0.59242   0.00000  Uiso   1.00
H1177  H     0.55405   0.93914   0.63828   0.00000  Uiso   1.00
H1178  H     0.60202   0.88676   0.63549   0.00000  Uiso   1.00
N1179  N     0.65011   0.81932   0.73783   0.00000  Uiso   1.00
N1180  N     0.34989   0.84735   0.76217   0.00000  Uiso   1.00
O1181  O     0.46308   0.91286   0.75299   0.00000  Uiso   1.00
O1182  O     0.53692   0.75381   0.74702   0.00000  Uiso   1.00
O1183  O     0.55946   0.90387   0.74519   0.00000  Uiso   1.00
O1184  O     0.44054   0.76279   0.75482   0.00000  Uiso   1.00
O1185  O     0.45181   0.83784   0.81998   0.00000  Uiso   1.00
O1186  O     0.54819   0.82883   0.68003   0.00000  Uiso   1.00
O1187  O     0.54819   0.82885   0.81218   0.00000  Uiso   1.00
O1188  O     0.45181   0.83781   0.68783   0.00000  Uiso   1.00
Zn1189 Zn    0.43565   0.83933   0.75521   0.00000  Uiso   1.00
Zn1190 Zn    0.56435   0.82734   0.74479   0.00000  Uiso   1.00
Br1191 Br    0.88681   0.98953   0.54611   0.00000  Uiso   1.00
Br1192 Br    0.77986   0.67714   0.95389   0.00000  Uiso   1.00
Br1193 Br    0.95845   0.95442   0.95043   0.00000  Uiso   1.00
Br1194 Br    0.70822   0.71224   0.54957   0.00000  Uiso   1.00
C1195  C     0.84811   0.93129   0.74952   0.00000  Uiso   1.00
C1196  C     0.86047   0.87367   0.90564   0.00000  Uiso   1.00
C1197  C     0.83364   0.83536   0.61608   0.00000  Uiso   1.00
C1198  C     0.83303   0.83130   0.88393   0.00000  Uiso   1.00
C1199  C     0.86450   0.87499   0.59253   0.00000  Uiso   1.00
C1200  C     0.80217   0.79168   0.90747   0.00000  Uiso   1.00
C1201  C     0.85963   0.87682   0.54631   0.00000  Uiso   1.00
C1202  C     0.80704   0.78985   0.95369   0.00000  Uiso   1.00
C1203  C     0.83259   0.83406   0.52357   0.00000  Uiso   1.00
C1204  C     0.83408   0.83260   0.97643   0.00000  Uiso   1.00
C1205  C     0.80277   0.79349   0.54780   0.00000  Uiso   1.00
C1206  C     0.81855   0.73538   0.75048   0.00000  Uiso   1.00
C1207  C     0.86390   0.87317   0.95220   0.00000  Uiso   1.00
C1208  C     0.88298   0.91911   0.52168   0.00000  Uiso   1.00
C1209  C     0.78369   0.74756   0.97832   0.00000  Uiso   1.00
C1210  C     0.79157   0.74399   0.61997   0.00000  Uiso   1.00
C1211  C     0.87510   0.92268   0.88003   0.00000  Uiso   1.00
C1212  C     0.90866   0.90952   0.61597   0.00000  Uiso   1.00
C1213  C     0.75801   0.75715   0.88403   0.00000  Uiso   1.00
C1214  C     0.90304   0.67228   0.78422   0.00000  Uiso   1.00
C1215  C     0.76362   0.99439   0.71578   0.00000  Uiso   1.00
C1216  C     0.67301   0.79906   0.69532   0.00000  Uiso   1.00
C1217  C     0.89350   0.91330   0.97581   0.00000  Uiso   1.00
C1218  C     0.99366   0.86761   0.80468   0.00000  Uiso   1.00
C1219  C     0.77317   0.75337   0.52419   0.00000  Uiso   1.00
C1220  C     0.85432   0.98548   0.75638   0.00000  Uiso   1.00
C1221  C     0.81235   0.68119   0.74362   0.00000  Uiso   1.00
C1222  C     0.83308   0.83074   0.83608   0.00000  Uiso   1.00
C1223  C     0.83358   0.83593   0.66392   0.00000  Uiso   1.00
C1224  C     0.80620   0.79300   0.59436   0.00000  Uiso   1.00
H1225  H     0.81787   0.74101   0.64867   0.00000  Uiso   1.00
H1226  H     0.72518   0.73890   0.90758   0.00000  Uiso   1.00
H1227  H     0.73131   0.77991   0.86451   0.00000  Uiso   1.00
H1228  H     0.77928   0.72753   0.86171   0.00000  Uiso   1.00
H1229  H     0.93748   0.69211   0.76280   0.00000  Uiso   1.00
H1230  H     0.88716   0.69859   0.81213   0.00000  Uiso   1.00
H1231  H     0.92296   0.97405   0.79981   0.00000  Uiso   1.00
H1232  H     0.72918   0.97456   0.73720   0.00000  Uiso   1.00
H1233  H     0.74371   0.69262   0.70019   0.00000  Uiso   1.00
H1234  H     0.77951   0.96807   0.68787   0.00000  Uiso   1.00
H1235  H     0.97282   0.77395   0.68003   0.00000  Uiso   1.00
H1236  H     0.74610   0.74245   0.63245   0.00000  Uiso   1.00
H1237  H     0.68521   0.83100   0.67245   0.00000  Uiso   1.00
H1238  H     0.70816   0.77425   0.69975   0.00000  Uiso   1.00
H1239  H     0.69385   0.89271   0.81997   0.00000  Uiso   1.00
H1240  H     0.95850   0.89242   0.80025   0.00000  Uiso   1.00
H1241  H     0.98146   0.83566   0.82755   0.00000  Uiso   1.00
H1242  H     0.80091   0.70903   0.59882   0.00000  Uiso   1.00
H1243  H     0.84879   0.92566   0.85133   0.00000  Uiso   1.00
H1244  H     0.86576   0.95764   0.90118   0.00000  Uiso   1.00
H1245  H     0.92056   0.92421   0.86754   0.00000  Uiso   1.00
H1246  H     0.94149   0.92777   0.59242   0.00000  Uiso   1.00
H1247  H     0.88739   0.93914   0.63828   0.00000  Uiso   1.00
H1248  H     0.93535   0.88676   0.63549   0.00000  Uiso   1.00
N1249  N     0.98344   0.81932   0.73783   0.00000  Uiso   1.00
N1250  N     0.68322   0.84735   0.76217   0.00000  Uiso   1.00
O1251  O     0.79642   0.91286   0.75299   0.00000  Uiso   1.00
O1252  O     0.87025   0.75381   0.74702   0.00000  Uiso   1.00
O1253  O     0.89280   0.90387   0.74519   0.00000  Uiso   1.00
O1254  O     0.77387   0.76279   0.75482   0.00000  Uiso   1.00
O1255  O     0.78514   0.83784   0.81998   0.00000  Uiso   1.00
O1256  O     0.88153   0.82883   0.68003   0.00000  Uiso   1.00
O1257  O     0.88152   0.82885   0.81218   0.00000  Uiso   1.00
O1258  O     0.78515   0.83781   0.68783   0.00000  Uiso   1.00
Zn1259 Zn    0.76898   0.83933   0.75521   0.00000  Uiso   1.00
Zn1260 Zn    0.89769   0.82734   0.74479   0.00000  Uiso   1.00
loop_
_geom_bond_atom_site_label_1
_geom_bond_atom_site_label_2
_geom_bond_distance
_geom_bond_site_symmetry_2
_ccdc_geom_bond_type
Br1    C18     1.936   .     S
Br2    C19     1.936   .     S
Br3    C27     1.938   .     S
Br4    C29     1.938   .     S
C5     O61     1.280   .     A
C5     O63     1.299   .     A
C5     C30     1.412   .     S
C6     C8      1.403   .     A
C6     C21     1.523   .     S
C6     C17     1.406   .     A
C7     C33     1.435   .     S
C7     C34     1.403   .     A
C7     C9      1.407   .     A
C8     C32     1.435   .     S
C8     C10     1.407   .     A
C9     C11     1.404   .     A
C9     C22     1.527   .     S
C10    C23     1.527   .     S
C10    C12     1.404   .     A
C11    C18     1.410   .     A
C11    C13     1.421   .     A
C12    C19     1.410   .     A
C12    C14     1.421   .     A
C13    C15     1.425   .     A
C13    C644    1.411   1_554 S
C14    C17     1.425   .     A
C14    C643    1.411   .     S
C15    C34     1.406   .     A
C15    C29     1.414   .     A
C16    C31     1.412   .     S
C16    O64     1.299   .     A
C16    O62     1.280   .     A
C17    C27     1.414   .     A
C18    C657    1.382   1_554 S
C19    C659    1.382   .     S
C20    C34     1.523   .     S
C20    H52     1.105   .     S
C20    H35     1.109   .     S
C20    H46     1.105   .     S
C21    H53     1.109   .     S
C21    H54     1.105   .     S
C21    H55     1.105   .     S
C22    H58     1.105   .     S
C22    H57     1.111   .     S
C22    H56     1.105   .     S
C23    H36     1.105   .     S
C23    H38     1.111   .     S
C23    H37     1.105   .     S
C24    H40     1.111   .     S
C24    H39     1.110   .     S
C24    C450    1.527   1_545 S
C24    H461    1.106   1_545 S
C25    H42     1.110   .     S
C25    H44     1.111   .     S
C25    C241    1.527   .     S
C25    H253    1.106   .     S
C26    H48     1.098   .     S
C26    H47     1.110   .     S
C26    H185    1.109   1_455 S
C26    N199    1.434   1_455 S
C27    C648    1.382   .     S
C28    H51     1.110   .     S
C28    H50     1.098   .     S
C28    H119    1.109   .     S
C28    N130    1.434   .     S
C29    C649    1.382   1_554 S
C30    C234    1.527   .     S
C30    C241    1.366   .     S
C31    C450    1.366   1_545 S
C31    C445    1.527   1_545 S
C32    O67     1.300   .     A
C32    O65     1.290   .     A
C33    O66     1.290   .     A
C33    O68     1.300   .     A
H41    C234    1.106   .     S
H43    C445    1.106   1_545 S
H45    C96     1.109   .     S
H49    C168    1.109   1_455 S
N59    Zn70    2.036   .     S
N59    C96     1.434   .     S
N59    N130    1.284   .     S
N60    Zn69    2.036   .     S
N60    N199    1.284   1_455 S
N60    C168    1.434   1_455 S
O61    Zn69    1.979   .     S
O62    Zn70    1.979   .     S
O63    Zn70    1.994   .     S
O64    Zn69    1.994   .     S
O65    Zn69    2.013   .     S
O66    Zn70    2.013   .     S
O67    Zn70    2.026   .     S
O68    Zn69    2.026   .     S
Br71   C88     1.936   .     S
Br72   C89     1.936   .     S
Br73   C97     1.938   .     S
Br74   C99     1.938   .     S
C75    O131    1.280   .     A
C75    O133    1.299   .     A
C75    C100    1.412   .     S
C76    C78     1.403   .     A
C76    C91     1.523   .     S
C76    C87     1.406   .     A
C77    C103    1.435   .     S
C77    C104    1.403   .     A
C77    C79     1.407   .     A
C78    C102    1.435   .     S
C78    C80     1.407   .     A
C79    C81     1.404   .     A
C79    C92     1.527   .     S
C80    C93     1.527   .     S
C80    C82     1.404   .     A
C81    C88     1.410   .     A
C81    C83     1.421   .     A
C82    C89     1.410   .     A
C82    C84     1.421   .     A
C83    C85     1.425   .     A
C83    C714    1.411   1_554 S
C84    C87     1.425   .     A
C84    C713    1.411   .     S
C85    C104    1.406   .     A
C85    C99     1.414   .     A
C86    C101    1.412   .     S
C86    O134    1.299   .     A
C86    O132    1.280   .     A
C87    C97     1.414   .     A
C88    C727    1.382   1_554 S
C89    C729    1.382   .     S
C90    C104    1.523   .     S
C90    H122    1.105   .     S
C90    H105    1.109   .     S
C90    H116    1.105   .     S
C91    H123    1.109   .     S
C91    H124    1.105   .     S
C91    H125    1.105   .     S
C92    H128    1.105   .     S
C92    H127    1.111   .     S
C92    H126    1.105   .     S
C93    H106    1.105   .     S
C93    H108    1.111   .     S
C93    H107    1.105   .     S
C94    H110    1.111   .     S
C94    H109    1.110   .     S
C94    C520    1.527   1_545 S
C94    H531    1.106   1_545 S
C95    H112    1.110   .     S
C95    H114    1.111   .     S
C95    C311    1.527   .     S
C95    H323    1.106   .     S
C96    H118    1.098   .     S
C96    H117    1.110   .     S
C97    C718    1.382   .     S
C98    H121    1.110   .     S
C98    H120    1.098   .     S
C98    H189    1.109   .     S
C98    N200    1.434   .     S
C99    C719    1.382   1_554 S
C100   C304    1.527   .     S
C100   C311    1.366   .     S
C101   C520    1.366   1_545 S
C101   C515    1.527   1_545 S
C102   O137    1.300   .     A
C102   O135    1.290   .     A
C103   O136    1.290   .     A
C103   O138    1.300   .     A
H111   C304    1.106   .     S
H113   C515    1.106   1_545 S
H115   C166    1.109   .     S
N129   Zn140   2.036   .     S
N129   C166    1.434   .     S
N129   N200    1.284   .     S
N130   Zn139   2.036   .     S
O131   Zn139   1.979   .     S
O132   Zn140   1.979   .     S
O133   Zn140   1.994   .     S
O134   Zn139   1.994   .     S
O135   Zn139   2.013   .     S
O136   Zn140   2.013   .     S
O137   Zn140   2.026   .     S
O138   Zn139   2.026   .     S
Br141  C158    1.936   .     S
Br142  C159    1.936   .     S
Br143  C167    1.938   .     S
Br144  C169    1.938   .     S
C145   O201    1.280   .     A
C145   O203    1.299   .     A
C145   C170    1.412   .     S
C146   C148    1.403   .     A
C146   C161    1.523   .     S
C146   C157    1.406   .     A
C147   C173    1.435   .     S
C147   C174    1.403   .     A
C147   C149    1.407   .     A
C148   C172    1.435   .     S
C148   C150    1.407   .     A
C149   C151    1.404   .     A
C149   C162    1.527   .     S
C150   C163    1.527   .     S
C150   C152    1.404   .     A
C151   C158    1.410   .     A
C151   C153    1.421   .     A
C152   C159    1.410   .     A
C152   C154    1.421   .     A
C153   C155    1.425   .     A
C153   C784    1.411   1_554 S
C154   C157    1.425   .     A
C154   C783    1.411   .     S
C155   C174    1.406   .     A
C155   C169    1.414   .     A
C156   C171    1.412   .     S
C156   O204    1.299   .     A
C156   O202    1.280   .     A
C157   C167    1.414   .     A
C158   C797    1.382   1_554 S
C159   C799    1.382   .     S
C160   C174    1.523   .     S
C160   H192    1.105   .     S
C160   H175    1.109   .     S
C160   H186    1.105   .     S
C161   H193    1.109   .     S
C161   H194    1.105   .     S
C161   H195    1.105   .     S
C162   H198    1.105   .     S
C162   H197    1.111   .     S
C162   H196    1.105   .     S
C163   H176    1.105   .     S
C163   H178    1.111   .     S
C163   H177    1.105   .     S
C164   H180    1.111   .     S
C164   H179    1.110   .     S
C164   C590    1.527   1_545 S
C164   H601    1.106   1_545 S
C165   H182    1.110   .     S
C165   H184    1.111   .     S
C165   C381    1.527   .     S
C165   H393    1.106   .     S
C166   H188    1.098   .     S
C166   H187    1.110   .     S
C167   C788    1.382   .     S
C168   H191    1.110   .     S
C168   H190    1.098   .     S
C168   H49     1.109   1_655 S
C168   N60     1.434   1_655 S
C169   C789    1.382   1_554 S
C170   C374    1.527   .     S
C170   C381    1.366   .     S
C171   C590    1.366   1_545 S
C171   C585    1.527   1_545 S
C172   O207    1.300   .     A
C172   O205    1.290   .     A
C173   O206    1.290   .     A
C173   O208    1.300   .     A
H181   C374    1.106   .     S
H183   C585    1.106   1_545 S
H185   C26     1.109   1_655 S
N199   Zn210   2.036   .     S
N199   C26     1.434   1_655 S
N199   N60     1.284   1_655 S
N200   Zn209   2.036   .     S
O201   Zn209   1.979   .     S
O202   Zn210   1.979   .     S
O203   Zn210   1.994   .     S
O204   Zn209   1.994   .     S
O205   Zn209   2.013   .     S
O206   Zn210   2.013   .     S
O207   Zn210   2.026   .     S
O208   Zn209   2.026   .     S
Br211  C228    1.936   .     S
Br212  C229    1.936   .     S
Br213  C237    1.938   .     S
Br214  C239    1.938   .     S
C215   O271    1.280   .     A
C215   O273    1.299   .     A
C215   C240    1.412   .     S
C216   C218    1.403   .     A
C216   C231    1.523   .     S
C216   C227    1.406   .     A
C217   C243    1.435   .     S
C217   C244    1.403   .     A
C217   C219    1.407   .     A
C218   C242    1.435   .     S
C218   C220    1.407   .     A
C219   C221    1.404   .     A
C219   C232    1.527   .     S
C220   C233    1.527   .     S
C220   C222    1.404   .     A
C221   C228    1.410   .     A
C221   C223    1.421   .     A
C222   C229    1.410   .     A
C222   C224    1.421   .     A
C223   C225    1.425   .     A
C223   C854    1.411   1_554 S
C224   C227    1.425   .     A
C224   C853    1.411   .     S
C225   C244    1.406   .     A
C225   C239    1.414   .     A
C226   C241    1.412   .     S
C226   O274    1.299   .     A
C226   O272    1.280   .     A
C227   C237    1.414   .     A
C228   C867    1.382   1_554 S
C229   C869    1.382   .     S
C230   C244    1.523   .     S
C230   H262    1.105   .     S
C230   H245    1.109   .     S
C230   H256    1.105   .     S
C231   H263    1.109   .     S
C231   H264    1.105   .     S
C231   H265    1.105   .     S
C232   H268    1.105   .     S
C232   H267    1.111   .     S
C232   H266    1.105   .     S
C233   H246    1.105   .     S
C233   H248    1.111   .     S
C233   H247    1.105   .     S
C234   H250    1.111   .     S
C234   H249    1.110   .     S
C235   H252    1.110   .     S
C235   H254    1.111   .     S
C235   C451    1.527   .     S
C235   H463    1.106   .     S
C236   H258    1.098   .     S
C236   H257    1.110   .     S
C236   H395    1.109   1_455 S
C236   N409    1.434   1_455 S
C237   C858    1.382   .     S
C238   H261    1.110   .     S
C238   H260    1.098   .     S
C238   H329    1.109   .     S
C238   N340    1.434   .     S
C239   C859    1.382   1_554 S
C240   C444    1.527   .     S
C240   C451    1.366   .     S
C242   O277    1.300   .     A
C242   O275    1.290   .     A
C243   O276    1.290   .     A
C243   O278    1.300   .     A
H251   C444    1.106   .     S
H255   C306    1.109   .     S
H259   C378    1.109   1_455 S
N269   Zn280   2.036   .     S
N269   C306    1.434   .     S
N269   N340    1.284   .     S
N270   Zn279   2.036   .     S
N270   N409    1.284   1_455 S
N270   C378    1.434   1_455 S
O271   Zn279   1.979   .     S
O272   Zn280   1.979   .     S
O273   Zn280   1.994   .     S
O274   Zn279   1.994   .     S
O275   Zn279   2.013   .     S
O276   Zn280   2.013   .     S
O277   Zn280   2.026   .     S
O278   Zn279   2.026   .     S
Br281  C298    1.936   .     S
Br282  C299    1.936   .     S
Br283  C307    1.938   .     S
Br284  C309    1.938   .     S
C285   O341    1.280   .     A
C285   O343    1.299   .     A
C285   C310    1.412   .     S
C286   C288    1.403   .     A
C286   C301    1.523   .     S
C286   C297    1.406   .     A
C287   C313    1.435   .     S
C287   C314    1.403   .     A
C287   C289    1.407   .     A
C288   C312    1.435   .     S
C288   C290    1.407   .     A
C289   C291    1.404   .     A
C289   C302    1.527   .     S
C290   C303    1.527   .     S
C290   C292    1.404   .     A
C291   C298    1.410   .     A
C291   C293    1.421   .     A
C292   C299    1.410   .     A
C292   C294    1.421   .     A
C293   C295    1.425   .     A
C293   C924    1.411   1_554 S
C294   C297    1.425   .     A
C294   C923    1.411   .     S
C295   C314    1.406   .     A
C295   C309    1.414   .     A
C296   C311    1.412   .     S
C296   O344    1.299   .     A
C296   O342    1.280   .     A
C297   C307    1.414   .     A
C298   C937    1.382   1_554 S
C299   C939    1.382   .     S
C300   C314    1.523   .     S
C300   H332    1.105   .     S
C300   H315    1.109   .     S
C300   H326    1.105   .     S
C301   H333    1.109   .     S
C301   H334    1.105   .     S
C301   H335    1.105   .     S
C302   H338    1.105   .     S
C302   H337    1.111   .     S
C302   H336    1.105   .     S
C303   H316    1.105   .     S
C303   H318    1.111   .     S
C303   H317    1.105   .     S
C304   H320    1.111   .     S
C304   H319    1.110   .     S
C305   H322    1.110   .     S
C305   H324    1.111   .     S
C305   C521    1.527   .     S
C305   H533    1.106   .     S
C306   H328    1.098   .     S
C306   H327    1.110   .     S
C307   C928    1.382   .     S
C308   H331    1.110   .     S
C308   H330    1.098   .     S
C308   H399    1.109   .     S
C308   N410    1.434   .     S
C309   C929    1.382   1_554 S
C310   C514    1.527   .     S
C310   C521    1.366   .     S
C312   O347    1.300   .     A
C312   O345    1.290   .     A
C313   O346    1.290   .     A
C313   O348    1.300   .     A
H321   C514    1.106   .     S
H325   C376    1.109   .     S
N339   Zn350   2.036   .     S
N339   C376    1.434   .     S
N339   N410    1.284   .     S
N340   Zn349   2.036   .     S
O341   Zn349   1.979   .     S
O342   Zn350   1.979   .     S
O343   Zn350   1.994   .     S
O344   Zn349   1.994   .     S
O345   Zn349   2.013   .     S
O346   Zn350   2.013   .     S
O347   Zn350   2.026   .     S
O348   Zn349   2.026   .     S
Br351  C368    1.936   .     S
Br352  C369    1.936   .     S
Br353  C377    1.938   .     S
Br354  C379    1.938   .     S
C355   O411    1.280   .     A
C355   O413    1.299   .     A
C355   C380    1.412   .     S
C356   C358    1.403   .     A
C356   C371    1.523   .     S
C356   C367    1.406   .     A
C357   C383    1.435   .     S
C357   C384    1.403   .     A
C357   C359    1.407   .     A
C358   C382    1.435   .     S
C358   C360    1.407   .     A
C359   C361    1.404   .     A
C359   C372    1.527   .     S
C360   C373    1.527   .     S
C360   C362    1.404   .     A
C361   C368    1.410   .     A
C361   C363    1.421   .     A
C362   C369    1.410   .     A
C362   C364    1.421   .     A
C363   C365    1.425   .     A
C363   C994    1.411   1_554 S
C364   C367    1.425   .     A
C364   C993    1.411   .     S
C365   C384    1.406   .     A
C365   C379    1.414   .     A
C366   C381    1.412   .     S
C366   O414    1.299   .     A
C366   O412    1.280   .     A
C367   C377    1.414   .     A
C368   C1007   1.382   1_554 S
C369   C1009   1.382   .     S
C370   C384    1.523   .     S
C370   H402    1.105   .     S
C370   H385    1.109   .     S
C370   H396    1.105   .     S
C371   H403    1.109   .     S
C371   H404    1.105   .     S
C371   H405    1.105   .     S
C372   H408    1.105   .     S
C372   H407    1.111   .     S
C372   H406    1.105   .     S
C373   H386    1.105   .     S
C373   H388    1.111   .     S
C373   H387    1.105   .     S
C374   H390    1.111   .     S
C374   H389    1.110   .     S
C375   H392    1.110   .     S
C375   H394    1.111   .     S
C375   C591    1.527   .     S
C375   H603    1.106   .     S
C376   H398    1.098   .     S
C376   H397    1.110   .     S
C377   C998    1.382   .     S
C378   H401    1.110   .     S
C378   H400    1.098   .     S
C378   H259    1.109   1_655 S
C378   N270    1.434   1_655 S
C379   C999    1.382   1_554 S
C380   C584    1.527   .     S
C380   C591    1.366   .     S
C382   O417    1.300   .     A
C382   O415    1.290   .     A
C383   O416    1.290   .     A
C383   O418    1.300   .     A
H391   C584    1.106   .     S
H395   C236    1.109   1_655 S
N409   Zn420   2.036   .     S
N409   C236    1.434   1_655 S
N409   N270    1.284   1_655 S
N410   Zn419   2.036   .     S
O411   Zn419   1.979   .     S
O412   Zn420   1.979   .     S
O413   Zn420   1.994   .     S
O414   Zn419   1.994   .     S
O415   Zn419   2.013   .     S
O416   Zn420   2.013   .     S
O417   Zn420   2.026   .     S
O418   Zn419   2.026   .     S
Br421  C438    1.936   .     S
Br422  C439    1.936   .     S
Br423  C447    1.938   .     S
Br424  C449    1.938   .     S
C425   O481    1.280   .     A
C425   O483    1.299   .     A
C425   C450    1.412   .     S
C426   C428    1.403   .     A
C426   C441    1.523   .     S
C426   C437    1.406   .     A
C427   C453    1.435   .     S
C427   C454    1.403   .     A
C427   C429    1.407   .     A
C428   C452    1.435   .     S
C428   C430    1.407   .     A
C429   C431    1.404   .     A
C429   C442    1.527   .     S
C430   C443    1.527   .     S
C430   C432    1.404   .     A
C431   C438    1.410   .     A
C431   C433    1.421   .     A
C432   C439    1.410   .     A
C432   C434    1.421   .     A
C433   C435    1.425   .     A
C433   C1064   1.411   1_554 S
C434   C437    1.425   .     A
C434   C1063   1.411   .     S
C435   C454    1.406   .     A
C435   C449    1.414   .     A
C436   C451    1.412   .     S
C436   O484    1.299   .     A
C436   O482    1.280   .     A
C437   C447    1.414   .     A
C438   C1077   1.382   1_554 S
C439   C1079   1.382   .     S
C440   C454    1.523   .     S
C440   H472    1.105   .     S
C440   H455    1.109   .     S
C440   H466    1.105   .     S
C441   H473    1.109   .     S
C441   H474    1.105   .     S
C441   H475    1.105   .     S
C442   H478    1.105   .     S
C442   H477    1.111   .     S
C442   H476    1.105   .     S
C443   H456    1.105   .     S
C443   H458    1.111   .     S
C443   H457    1.105   .     S
C444   H460    1.111   .     S
C444   H459    1.110   .     S
C445   H462    1.110   .     S
C445   H464    1.111   .     S
C445   C31     1.527   1_565 S
C445   H43     1.106   1_565 S
C446   H468    1.098   .     S
C446   H467    1.110   .     S
C446   H605    1.109   1_455 S
C446   N619    1.434   1_455 S
C447   C1068   1.382   .     S
C448   H471    1.110   .     S
C448   H470    1.098   .     S
C448   H539    1.109   .     S
C448   N550    1.434   .     S
C449   C1069   1.382   1_554 S
C450   C24     1.527   1_565 S
C450   C31     1.366   1_565 S
C452   O487    1.300   .     A
C452   O485    1.290   .     A
C453   O486    1.290   .     A
C453   O488    1.300   .     A
H461   C24     1.106   1_565 S
H465   C516    1.109   .     S
H469   C588    1.109   1_455 S
N479   Zn490   2.036   .     S
N479   C516    1.434   .     S
N479   N550    1.284   .     S
N480   Zn489   2.036   .     S
N480   N619    1.284   1_455 S
N480   C588    1.434   1_455 S
O481   Zn489   1.979   .     S
O482   Zn490   1.979   .     S
O483   Zn490   1.994   .     S
O484   Zn489   1.994   .     S
O485   Zn489   2.013   .     S
O486   Zn490   2.013   .     S
O487   Zn490   2.026   .     S
O488   Zn489   2.026   .     S
Br491  C508    1.936   .     S
Br492  C509    1.936   .     S
Br493  C517    1.938   .     S
Br494  C519    1.938   .     S
C495   O551    1.280   .     A
C495   O553    1.299   .     A
C495   C520    1.412   .     S
C496   C498    1.403   .     A
C496   C511    1.523   .     S
C496   C507    1.406   .     A
C497   C523    1.435   .     S
C497   C524    1.403   .     A
C497   C499    1.407   .     A
C498   C522    1.435   .     S
C498   C500    1.407   .     A
C499   C501    1.404   .     A
C499   C512    1.527   .     S
C500   C513    1.527   .     S
C500   C502    1.404   .     A
C501   C508    1.410   .     A
C501   C503    1.421   .     A
C502   C509    1.410   .     A
C502   C504    1.421   .     A
C503   C505    1.425   .     A
C503   C1134   1.411   1_554 S
C504   C507    1.425   .     A
C504   C1133   1.411   .     S
C505   C524    1.406   .     A
C505   C519    1.414   .     A
C506   C521    1.412   .     S
C506   O554    1.299   .     A
C506   O552    1.280   .     A
C507   C517    1.414   .     A
C508   C1147   1.382   1_554 S
C509   C1149   1.382   .     S
C510   C524    1.523   .     S
C510   H542    1.105   .     S
C510   H525    1.109   .     S
C510   H536    1.105   .     S
C511   H543    1.109   .     S
C511   H544    1.105   .     S
C511   H545    1.105   .     S
C512   H548    1.105   .     S
C512   H547    1.111   .     S
C512   H546    1.105   .     S
C513   H526    1.105   .     S
C513   H528    1.111   .     S
C513   H527    1.105   .     S
C514   H530    1.111   .     S
C514   H529    1.110   .     S
C515   H532    1.110   .     S
C515   H534    1.111   .     S
C515   C101    1.527   1_565 S
C515   H113    1.106   1_565 S
C516   H538    1.098   .     S
C516   H537    1.110   .     S
C517   C1138   1.382   .     S
C518   H541    1.110   .     S
C518   H540    1.098   .     S
C518   H609    1.109   .     S
C518   N620    1.434   .     S
C519   C1139   1.382   1_554 S
C520   C94     1.527   1_565 S
C520   C101    1.366   1_565 S
C522   O557    1.300   .     A
C522   O555    1.290   .     A
C523   O556    1.290   .     A
C523   O558    1.300   .     A
H531   C94     1.106   1_565 S
H535   C586    1.109   .     S
N549   Zn560   2.036   .     S
N549   C586    1.434   .     S
N549   N620    1.284   .     S
N550   Zn559   2.036   .     S
O551   Zn559   1.979   .     S
O552   Zn560   1.979   .     S
O553   Zn560   1.994   .     S
O554   Zn559   1.994   .     S
O555   Zn559   2.013   .     S
O556   Zn560   2.013   .     S
O557   Zn560   2.026   .     S
O558   Zn559   2.026   .     S
Br561  C578    1.936   .     S
Br562  C579    1.936   .     S
Br563  C587    1.938   .     S
Br564  C589    1.938   .     S
C565   O621    1.280   .     A
C565   O623    1.299   .     A
C565   C590    1.412   .     S
C566   C568    1.403   .     A
C566   C581    1.523   .     S
C566   C577    1.406   .     A
C567   C593    1.435   .     S
C567   C594    1.403   .     A
C567   C569    1.407   .     A
C568   C592    1.435   .     S
C568   C570    1.407   .     A
C569   C571    1.404   .     A
C569   C582    1.527   .     S
C570   C583    1.527   .     S
C570   C572    1.404   .     A
C571   C578    1.410   .     A
C571   C573    1.421   .     A
C572   C579    1.410   .     A
C572   C574    1.421   .     A
C573   C575    1.425   .     A
C573   C1204   1.411   1_554 S
C574   C577    1.425   .     A
C574   C1203   1.411   .     S
C575   C594    1.406   .     A
C575   C589    1.414   .     A
C576   C591    1.412   .     S
C576   O624    1.299   .     A
C576   O622    1.280   .     A
C577   C587    1.414   .     A
C578   C1217   1.382   1_554 S
C579   C1219   1.382   .     S
C580   C594    1.523   .     S
C580   H612    1.105   .     S
C580   H595    1.109   .     S
C580   H606    1.105   .     S
C581   H613    1.109   .     S
C581   H614    1.105   .     S
C581   H615    1.105   .     S
C582   H618    1.105   .     S
C582   H617    1.111   .     S
C582   H616    1.105   .     S
C583   H596    1.105   .     S
C583   H598    1.111   .     S
C583   H597    1.105   .     S
C584   H600    1.111   .     S
C584   H599    1.110   .     S
C585   H602    1.110   .     S
C585   H604    1.111   .     S
C585   C171    1.527   1_565 S
C585   H183    1.106   1_565 S
C586   H608    1.098   .     S
C586   H607    1.110   .     S
C587   C1208   1.382   .     S
C588   H611    1.110   .     S
C588   H610    1.098   .     S
C588   H469    1.109   1_655 S
C588   N480    1.434   1_655 S
C589   C1209   1.382   1_554 S
C590   C164    1.527   1_565 S
C590   C171    1.366   1_565 S
C592   O627    1.300   .     A
C592   O625    1.290   .     A
C593   O626    1.290   .     A
C593   O628    1.300   .     A
H601   C164    1.106   1_565 S
H605   C446    1.109   1_655 S
N619   Zn630   2.036   .     S
N619   C446    1.434   1_655 S
N619   N480    1.284   1_655 S
N620   Zn629   2.036   .     S
O621   Zn629   1.979   .     S
O622   Zn630   1.979   .     S
O623   Zn630   1.994   .     S
O624   Zn629   1.994   .     S
O625   Zn629   2.013   .     S
O626   Zn630   2.013   .     S
O627   Zn630   2.026   .     S
O628   Zn629   2.026   .     S
Br631  C648    1.936   .     S
Br632  C649    1.936   .     S
Br633  C657    1.938   .     S
Br634  C659    1.938   .     S
C635   O691    1.280   .     A
C635   O693    1.299   .     A
C635   C660    1.412   .     S
C636   C638    1.403   .     A
C636   C651    1.523   .     S
C636   C647    1.406   .     A
C637   C663    1.435   .     S
C637   C664    1.403   .     A
C637   C639    1.407   .     A
C638   C662    1.435   .     S
C638   C640    1.407   .     A
C639   C641    1.404   .     A
C639   C652    1.527   .     S
C640   C653    1.527   .     S
C640   C642    1.404   .     A
C641   C648    1.410   .     A
C641   C643    1.421   .     A
C642   C649    1.410   .     A
C642   C644    1.421   .     A
C643   C645    1.425   .     A
C644   C647    1.425   .     A
C644   C13     1.411   1_556 S
C645   C664    1.406   .     A
C645   C659    1.414   .     A
C646   C661    1.412   .     S
C646   O694    1.299   .     A
C646   O692    1.280   .     A
C647   C657    1.414   .     A
C649   C29     1.382   1_556 S
C650   C664    1.523   .     S
C650   H682    1.105   .     S
C650   H665    1.109   .     S
C650   H676    1.105   .     S
C651   H683    1.109   .     S
C651   H684    1.105   .     S
C651   H685    1.105   .     S
C652   H688    1.105   .     S
C652   H687    1.111   .     S
C652   H686    1.105   .     S
C653   H666    1.105   .     S
C653   H668    1.111   .     S
C653   H667    1.105   .     S
C654   H670    1.111   .     S
C654   H669    1.110   .     S
C654   C1080   1.527   1_545 S
C654   H1091   1.106   1_545 S
C655   H672    1.110   .     S
C655   H674    1.111   .     S
C655   C871    1.527   .     S
C655   H883    1.106   .     S
C656   H678    1.098   .     S
C656   H677    1.110   .     S
C656   H815    1.109   1_455 S
C656   N829    1.434   1_455 S
C657   C18     1.382   1_556 S
C658   H681    1.110   .     S
C658   H680    1.098   .     S
C658   H749    1.109   .     S
C658   N760    1.434   .     S
C660   C864    1.527   .     S
C660   C871    1.366   .     S
C661   C1080   1.366   1_545 S
C661   C1075   1.527   1_545 S
C662   O697    1.300   .     A
C662   O695    1.290   .     A
C663   O696    1.290   .     A
C663   O698    1.300   .     A
H671   C864    1.106   .     S
H673   C1075   1.106   1_545 S
H675   C726    1.109   .     S
H679   C798    1.109   1_455 S
N689   Zn700   2.036   .     S
N689   C726    1.434   .     S
N689   N760    1.284   .     S
N690   Zn699   2.036   .     S
N690   N829    1.284   1_455 S
N690   C798    1.434   1_455 S
O691   Zn699   1.979   .     S
O692   Zn700   1.979   .     S
O693   Zn700   1.994   .     S
O694   Zn699   1.994   .     S
O695   Zn699   2.013   .     S
O696   Zn700   2.013   .     S
O697   Zn700   2.026   .     S
O698   Zn699   2.026   .     S
Br701  C718    1.936   .     S
Br702  C719    1.936   .     S
Br703  C727    1.938   .     S
Br704  C729    1.938   .     S
C705   O761    1.280   .     A
C705   O763    1.299   .     A
C705   C730    1.412   .     S
C706   C708    1.403   .     A
C706   C721    1.523   .     S
C706   C717    1.406   .     A
C707   C733    1.435   .     S
C707   C734    1.403   .     A
C707   C709    1.407   .     A
C708   C732    1.435   .     S
C708   C710    1.407   .     A
C709   C711    1.404   .     A
C709   C722    1.527   .     S
C710   C723    1.527   .     S
C710   C712    1.404   .     A
C711   C718    1.410   .     A
C711   C713    1.421   .     A
C712   C719    1.410   .     A
C712   C714    1.421   .     A
C713   C715    1.425   .     A
C714   C717    1.425   .     A
C714   C83     1.411   1_556 S
C715   C734    1.406   .     A
C715   C729    1.414   .     A
C716   C731    1.412   .     S
C716   O764    1.299   .     A
C716   O762    1.280   .     A
C717   C727    1.414   .     A
C719   C99     1.382   1_556 S
C720   C734    1.523   .     S
C720   H752    1.105   .     S
C720   H735    1.109   .     S
C720   H746    1.105   .     S
C721   H753    1.109   .     S
C721   H754    1.105   .     S
C721   H755    1.105   .     S
C722   H758    1.105   .     S
C722   H757    1.111   .     S
C722   H756    1.105   .     S
C723   H736    1.105   .     S
C723   H738    1.111   .     S
C723   H737    1.105   .     S
C724   H740    1.111   .     S
C724   H739    1.110   .     S
C724   C1150   1.527   1_545 S
C724   H1161   1.106   1_545 S
C725   H742    1.110   .     S
C725   H744    1.111   .     S
C725   C941    1.527   .     S
C725   H953    1.106   .     S
C726   H748    1.098   .     S
C726   H747    1.110   .     S
C727   C88     1.382   1_556 S
C728   H751    1.110   .     S
C728   H750    1.098   .     S
C728   H819    1.109   .     S
C728   N830    1.434   .     S
C730   C934    1.527   .     S
C730   C941    1.366   .     S
C731   C1150   1.366   1_545 S
C731   C1145   1.527   1_545 S
C732   O767    1.300   .     A
C732   O765    1.290   .     A
C733   O766    1.290   .     A
C733   O768    1.300   .     A
H741   C934    1.106   .     S
H743   C1145   1.106   1_545 S
H745   C796    1.109   .     S
N759   Zn770   2.036   .     S
N759   C796    1.434   .     S
N759   N830    1.284   .     S
N760   Zn769   2.036   .     S
O761   Zn769   1.979   .     S
O762   Zn770   1.979   .     S
O763   Zn770   1.994   .     S
O764   Zn769   1.994   .     S
O765   Zn769   2.013   .     S
O766   Zn770   2.013   .     S
O767   Zn770   2.026   .     S
O768   Zn769   2.026   .     S
Br771  C788    1.936   .     S
Br772  C789    1.936   .     S
Br773  C797    1.938   .     S
Br774  C799    1.938   .     S
C775   O831    1.280   .     A
C775   O833    1.299   .     A
C775   C800    1.412   .     S
C776   C778    1.403   .     A
C776   C791    1.523   .     S
C776   C787    1.406   .     A
C777   C803    1.435   .     S
C777   C804    1.403   .     A
C777   C779    1.407   .     A
C778   C802    1.435   .     S
C778   C780    1.407   .     A
C779   C781    1.404   .     A
C779   C792    1.527   .     S
C780   C793    1.527   .     S
C780   C782    1.404   .     A
C781   C788    1.410   .     A
C781   C783    1.421   .     A
C782   C789    1.410   .     A
C782   C784    1.421   .     A
C783   C785    1.425   .     A
C784   C787    1.425   .     A
C784   C153    1.411   1_556 S
C785   C804    1.406   .     A
C785   C799    1.414   .     A
C786   C801    1.412   .     S
C786   O834    1.299   .     A
C786   O832    1.280   .     A
C787   C797    1.414   .     A
C789   C169    1.382   1_556 S
C790   C804    1.523   .     S
C790   H822    1.105   .     S
C790   H805    1.109   .     S
C790   H816    1.105   .     S
C791   H823    1.109   .     S
C791   H824    1.105   .     S
C791   H825    1.105   .     S
C792   H828    1.105   .     S
C792   H827    1.111   .     S
C792   H826    1.105   .     S
C793   H806    1.105   .     S
C793   H808    1.111   .     S
C793   H807    1.105   .     S
C794   H810    1.111   .     S
C794   H809    1.110   .     S
C794   C1220   1.527   1_545 S
C794   H1231   1.106   1_545 S
C795   H812    1.110   .     S
C795   H814    1.111   .     S
C795   C1011   1.527   .     S
C795   H1023   1.106   .     S
C796   H818    1.098   .     S
C796   H817    1.110   .     S
C797   C158    1.382   1_556 S
C798   H821    1.110   .     S
C798   H820    1.098   .     S
C798   H679    1.109   1_655 S
C798   N690    1.434   1_655 S
C800   C1004   1.527   .     S
C800   C1011   1.366   .     S
C801   C1220   1.366   1_545 S
C801   C1215   1.527   1_545 S
C802   O837    1.300   .     A
C802   O835    1.290   .     A
C803   O836    1.290   .     A
C803   O838    1.300   .     A
H811   C1004   1.106   .     S
H813   C1215   1.106   1_545 S
H815   C656    1.109   1_655 S
N829   Zn840   2.036   .     S
N829   C656    1.434   1_655 S
N829   N690    1.284   1_655 S
N830   Zn839   2.036   .     S
O831   Zn839   1.979   .     S
O832   Zn840   1.979   .     S
O833   Zn840   1.994   .     S
O834   Zn839   1.994   .     S
O835   Zn839   2.013   .     S
O836   Zn840   2.013   .     S
O837   Zn840   2.026   .     S
O838   Zn839   2.026   .     S
Br841  C858    1.936   .     S
Br842  C859    1.936   .     S
Br843  C867    1.938   .     S
Br844  C869    1.938   .     S
C845   O901    1.280   .     A
C845   O903    1.299   .     A
C845   C870    1.412   .     S
C846   C848    1.403   .     A
C846   C861    1.523   .     S
C846   C857    1.406   .     A
C847   C873    1.435   .     S
C847   C874    1.403   .     A
C847   C849    1.407   .     A
C848   C872    1.435   .     S
C848   C850    1.407   .     A
C849   C851    1.404   .     A
C849   C862    1.527   .     S
C850   C863    1.527   .     S
C850   C852    1.404   .     A
C851   C858    1.410   .     A
C851   C853    1.421   .     A
C852   C859    1.410   .     A
C852   C854    1.421   .     A
C853   C855    1.425   .     A
C854   C857    1.425   .     A
C854   C223    1.411   1_556 S
C855   C874    1.406   .     A
C855   C869    1.414   .     A
C856   C871    1.412   .     S
C856   O904    1.299   .     A
C856   O902    1.280   .     A
C857   C867    1.414   .     A
C859   C239    1.382   1_556 S
C860   C874    1.523   .     S
C860   H892    1.105   .     S
C860   H875    1.109   .     S
C860   H886    1.105   .     S
C861   H893    1.109   .     S
C861   H894    1.105   .     S
C861   H895    1.105   .     S
C862   H898    1.105   .     S
C862   H897    1.111   .     S
C862   H896    1.105   .     S
C863   H876    1.105   .     S
C863   H878    1.111   .     S
C863   H877    1.105   .     S
C864   H880    1.111   .     S
C864   H879    1.110   .     S
C865   H882    1.110   .     S
C865   H884    1.111   .     S
C865   C1081   1.527   .     S
C865   H1093   1.106   .     S
C866   H888    1.098   .     S
C866   H887    1.110   .     S
C866   H1025   1.109   1_455 S
C866   N1039   1.434   1_455 S
C867   C228    1.382   1_556 S
C868   H891    1.110   .     S
C868   H890    1.098   .     S
C868   H959    1.109   .     S
C868   N970    1.434   .     S
C870   C1074   1.527   .     S
C870   C1081   1.366   .     S
C872   O907    1.300   .     A
C872   O905    1.290   .     A
C873   O906    1.290   .     A
C873   O908    1.300   .     A
H881   C1074   1.106   .     S
H885   C936    1.109   .     S
H889   C1008   1.109   1_455 S
N899   Zn910   2.036   .     S
N899   C936    1.434   .     S
N899   N970    1.284   .     S
N900   Zn909   2.036   .     S
N900   N1039   1.284   1_455 S
N900   C1008   1.434   1_455 S
O901   Zn909   1.979   .     S
O902   Zn910   1.979   .     S
O903   Zn910   1.994   .     S
O904   Zn909   1.994   .     S
O905   Zn909   2.013   .     S
O906   Zn910   2.013   .     S
O907   Zn910   2.026   .     S
O908   Zn909   2.026   .     S
Br911  C928    1.936   .     S
Br912  C929    1.936   .     S
Br913  C937    1.938   .     S
Br914  C939    1.938   .     S
C915   O971    1.280   .     A
C915   O973    1.299   .     A
C915   C940    1.412   .     S
C916   C918    1.403   .     A
C916   C931    1.523   .     S
C916   C927    1.406   .     A
C917   C943    1.435   .     S
C917   C944    1.403   .     A
C917   C919    1.407   .     A
C918   C942    1.435   .     S
C918   C920    1.407   .     A
C919   C921    1.404   .     A
C919   C932    1.527   .     S
C920   C933    1.527   .     S
C920   C922    1.404   .     A
C921   C928    1.410   .     A
C921   C923    1.421   .     A
C922   C929    1.410   .     A
C922   C924    1.421   .     A
C923   C925    1.425   .     A
C924   C927    1.425   .     A
C924   C293    1.411   1_556 S
C925   C944    1.406   .     A
C925   C939    1.414   .     A
C926   C941    1.412   .     S
C926   O974    1.299   .     A
C926   O972    1.280   .     A
C927   C937    1.414   .     A
C929   C309    1.382   1_556 S
C930   C944    1.523   .     S
C930   H962    1.105   .     S
C930   H945    1.109   .     S
C930   H956    1.105   .     S
C931   H963    1.109   .     S
C931   H964    1.105   .     S
C931   H965    1.105   .     S
C932   H968    1.105   .     S
C932   H967    1.111   .     S
C932   H966    1.105   .     S
C933   H946    1.105   .     S
C933   H948    1.111   .     S
C933   H947    1.105   .     S
C934   H950    1.111   .     S
C934   H949    1.110   .     S
C935   H952    1.110   .     S
C935   H954    1.111   .     S
C935   C1151   1.527   .     S
C935   H1163   1.106   .     S
C936   H958    1.098   .     S
C936   H957    1.110   .     S
C937   C298    1.382   1_556 S
C938   H961    1.110   .     S
C938   H960    1.098   .     S
C938   H1029   1.109   .     S
C938   N1040   1.434   .     S
C940   C1144   1.527   .     S
C940   C1151   1.366   .     S
C942   O977    1.300   .     A
C942   O975    1.290   .     A
C943   O976    1.290   .     A
C943   O978    1.300   .     A
H951   C1144   1.106   .     S
H955   C1006   1.109   .     S
N969   Zn980   2.036   .     S
N969   C1006   1.434   .     S
N969   N1040   1.284   .     S
N970   Zn979   2.036   .     S
O971   Zn979   1.979   .     S
O972   Zn980   1.979   .     S
O973   Zn980   1.994   .     S
O974   Zn979   1.994   .     S
O975   Zn979   2.013   .     S
O976   Zn980   2.013   .     S
O977   Zn980   2.026   .     S
O978   Zn979   2.026   .     S
Br981  C998    1.936   .     S
Br982  C999    1.936   .     S
Br983  C1007   1.938   .     S
Br984  C1009   1.938   .     S
C985   O1041   1.280   .     A
C985   O1043   1.299   .     A
C985   C1010   1.412   .     S
C986   C988    1.403   .     A
C986   C1001   1.523   .     S
C986   C997    1.406   .     A
C987   C1013   1.435   .     S
C987   C1014   1.403   .     A
C987   C989    1.407   .     A
C988   C1012   1.435   .     S
C988   C990    1.407   .     A
C989   C991    1.404   .     A
C989   C1002   1.527   .     S
C990   C1003   1.527   .     S
C990   C992    1.404   .     A
C991   C998    1.410   .     A
C991   C993    1.421   .     A
C992   C999    1.410   .     A
C992   C994    1.421   .     A
C993   C995    1.425   .     A
C994   C997    1.425   .     A
C994   C363    1.411   1_556 S
C995   C1014   1.406   .     A
C995   C1009   1.414   .     A
C996   C1011   1.412   .     S
C996   O1044   1.299   .     A
C996   O1042   1.280   .     A
C997   C1007   1.414   .     A
C999   C379    1.382   1_556 S
C1000  C1014   1.523   .     S
C1000  H1032   1.105   .     S
C1000  H1015   1.109   .     S
C1000  H1026   1.105   .     S
C1001  H1033   1.109   .     S
C1001  H1034   1.105   .     S
C1001  H1035   1.105   .     S
C1002  H1038   1.105   .     S
C1002  H1037   1.111   .     S
C1002  H1036   1.105   .     S
C1003  H1016   1.105   .     S
C1003  H1018   1.111   .     S
C1003  H1017   1.105   .     S
C1004  H1020   1.111   .     S
C1004  H1019   1.110   .     S
C1005  H1022   1.110   .     S
C1005  H1024   1.111   .     S
C1005  C1221   1.527   .     S
C1005  H1233   1.106   .     S
C1006  H1028   1.098   .     S
C1006  H1027   1.110   .     S
C1007  C368    1.382   1_556 S
C1008  H1031   1.110   .     S
C1008  H1030   1.098   .     S
C1008  H889    1.109   1_655 S
C1008  N900    1.434   1_655 S
C1010  C1214   1.527   .     S
C1010  C1221   1.366   .     S
C1012  O1047   1.300   .     A
C1012  O1045   1.290   .     A
C1013  O1046   1.290   .     A
C1013  O1048   1.300   .     A
H1021  C1214   1.106   .     S
H1025  C866    1.109   1_655 S
N1039  Zn1050  2.036   .     S
N1039  C866    1.434   1_655 S
N1039  N900    1.284   1_655 S
N1040  Zn1049  2.036   .     S
O1041  Zn1049  1.979   .     S
O1042  Zn1050  1.979   .     S
O1043  Zn1050  1.994   .     S
O1044  Zn1049  1.994   .     S
O1045  Zn1049  2.013   .     S
O1046  Zn1050  2.013   .     S
O1047  Zn1050  2.026   .     S
O1048  Zn1049  2.026   .     S
Br1051 C1068   1.936   .     S
Br1052 C1069   1.936   .     S
Br1053 C1077   1.938   .     S
Br1054 C1079   1.938   .     S
C1055  O1111   1.280   .     A
C1055  O1113   1.299   .     A
C1055  C1080   1.412   .     S
C1056  C1058   1.403   .     A
C1056  C1071   1.523   .     S
C1056  C1067   1.406   .     A
C1057  C1083   1.435   .     S
C1057  C1084   1.403   .     A
C1057  C1059   1.407   .     A
C1058  C1082   1.435   .     S
C1058  C1060   1.407   .     A
C1059  C1061   1.404   .     A
C1059  C1072   1.527   .     S
C1060  C1073   1.527   .     S
C1060  C1062   1.404   .     A
C1061  C1068   1.410   .     A
C1061  C1063   1.421   .     A
C1062  C1069   1.410   .     A
C1062  C1064   1.421   .     A
C1063  C1065   1.425   .     A
C1064  C1067   1.425   .     A
C1064  C433    1.411   1_556 S
C1065  C1084   1.406   .     A
C1065  C1079   1.414   .     A
C1066  C1081   1.412   .     S
C1066  O1114   1.299   .     A
C1066  O1112   1.280   .     A
C1067  C1077   1.414   .     A
C1069  C449    1.382   1_556 S
C1070  C1084   1.523   .     S
C1070  H1102   1.105   .     S
C1070  H1085   1.109   .     S
C1070  H1096   1.105   .     S
C1071  H1103   1.109   .     S
C1071  H1104   1.105   .     S
C1071  H1105   1.105   .     S
C1072  H1108   1.105   .     S
C1072  H1107   1.111   .     S
C1072  H1106   1.105   .     S
C1073  H1086   1.105   .     S
C1073  H1088   1.111   .     S
C1073  H1087   1.105   .     S
C1074  H1090   1.111   .     S
C1074  H1089   1.110   .     S
C1075  H1092   1.110   .     S
C1075  H1094   1.111   .     S
C1075  C661    1.527   1_565 S
C1075  H673    1.106   1_565 S
C1076  H1098   1.098   .     S
C1076  H1097   1.110   .     S
C1076  H1235   1.109   1_455 S
C1076  N1249   1.434   1_455 S
C1077  C438    1.382   1_556 S
C1078  H1101   1.110   .     S
C1078  H1100   1.098   .     S
C1078  H1169   1.109   .     S
C1078  N1180   1.434   .     S
C1080  C654    1.527   1_565 S
C1080  C661    1.366   1_565 S
C1082  O1117   1.300   .     A
C1082  O1115   1.290   .     A
C1083  O1116   1.290   .     A
C1083  O1118   1.300   .     A
H1091  C654    1.106   1_565 S
H1095  C1146   1.109   .     S
H1099  C1218   1.109   1_455 S
N1109  Zn1120  2.036   .     S
N1109  C1146   1.434   .     S
N1109  N1180   1.284   .     S
N1110  Zn1119  2.036   .     S
N1110  N1249   1.284   1_455 S
N1110  C1218   1.434   1_455 S
O1111  Zn1119  1.979   .     S
O1112  Zn1120  1.979   .     S
O1113  Zn1120  1.994   .     S
O1114  Zn1119  1.994   .     S
O1115  Zn1119  2.013   .     S
O1116  Zn1120  2.013   .     S
O1117  Zn1120  2.026   .     S
O1118  Zn1119  2.026   .     S
Br1121 C1138   1.936   .     S
Br1122 C1139   1.936   .     S
Br1123 C1147   1.938   .     S
Br1124 C1149   1.938   .     S
C1125  O1181   1.280   .     A
C1125  O1183   1.299   .     A
C1125  C1150   1.412   .     S
C1126  C1128   1.403   .     A
C1126  C1141   1.523   .     S
C1126  C1137   1.406   .     A
C1127  C1153   1.435   .     S
C1127  C1154   1.403   .     A
C1127  C1129   1.407   .     A
C1128  C1152   1.435   .     S
C1128  C1130   1.407   .     A
C1129  C1131   1.404   .     A
C1129  C1142   1.527   .     S
C1130  C1143   1.527   .     S
C1130  C1132   1.404   .     A
C1131  C1138   1.410   .     A
C1131  C1133   1.421   .     A
C1132  C1139   1.410   .     A
C1132  C1134   1.421   .     A
C1133  C1135   1.425   .     A
C1134  C1137   1.425   .     A
C1134  C503    1.411   1_556 S
C1135  C1154   1.406   .     A
C1135  C1149   1.414   .     A
C1136  C1151   1.412   .     S
C1136  O1184   1.299   .     A
C1136  O1182   1.280   .     A
C1137  C1147   1.414   .     A
C1139  C519    1.382   1_556 S
C1140  C1154   1.523   .     S
C1140  H1172   1.105   .     S
C1140  H1155   1.109   .     S
C1140  H1166   1.105   .     S
C1141  H1173   1.109   .     S
C1141  H1174   1.105   .     S
C1141  H1175   1.105   .     S
C1142  H1178   1.105   .     S
C1142  H1177   1.111   .     S
C1142  H1176   1.105   .     S
C1143  H1156   1.105   .     S
C1143  H1158   1.111   .     S
C1143  H1157   1.105   .     S
C1144  H1160   1.111   .     S
C1144  H1159   1.110   .     S
C1145  H1162   1.110   .     S
C1145  H1164   1.111   .     S
C1145  C731    1.527   1_565 S
C1145  H743    1.106   1_565 S
C1146  H1168   1.098   .     S
C1146  H1167   1.110   .     S
C1147  C508    1.382   1_556 S
C1148  H1171   1.110   .     S
C1148  H1170   1.098   .     S
C1148  H1239   1.109   .     S
C1148  N1250   1.434   .     S
C1150  C724    1.527   1_565 S
C1150  C731    1.366   1_565 S
C1152  O1187   1.300   .     A
C1152  O1185   1.290   .     A
C1153  O1186   1.290   .     A
C1153  O1188   1.300   .     A
H1161  C724    1.106   1_565 S
H1165  C1216   1.109   .     S
N1179  Zn1190  2.036   .     S
N1179  C1216   1.434   .     S
N1179  N1250   1.284   .     S
N1180  Zn1189  2.036   .     S
O1181  Zn1189  1.979   .     S
O1182  Zn1190  1.979   .     S
O1183  Zn1190  1.994   .     S
O1184  Zn1189  1.994   .     S
O1185  Zn1189  2.013   .     S
O1186  Zn1190  2.013   .     S
O1187  Zn1190  2.026   .     S
O1188  Zn1189  2.026   .     S
Br1191 C1208   1.936   .     S
Br1192 C1209   1.936   .     S
Br1193 C1217   1.938   .     S
Br1194 C1219   1.938   .     S
C1195  O1251   1.280   .     A
C1195  O1253   1.299   .     A
C1195  C1220   1.412   .     S
C1196  C1198   1.403   .     A
C1196  C1211   1.523   .     S
C1196  C1207   1.406   .     A
C1197  C1223   1.435   .     S
C1197  C1224   1.403   .     A
C1197  C1199   1.407   .     A
C1198  C1222   1.435   .     S
C1198  C1200   1.407   .     A
C1199  C1201   1.404   .     A
C1199  C1212   1.527   .     S
C1200  C1213   1.527   .     S
C1200  C1202   1.404   .     A
C1201  C1208   1.410   .     A
C1201  C1203   1.421   .     A
C1202  C1209   1.410   .     A
C1202  C1204   1.421   .     A
C1203  C1205   1.425   .     A
C1204  C1207   1.425   .     A
C1204  C573    1.411   1_556 S
C1205  C1224   1.406   .     A
C1205  C1219   1.414   .     A
C1206  C1221   1.412   .     S
C1206  O1254   1.299   .     A
C1206  O1252   1.280   .     A
C1207  C1217   1.414   .     A
C1209  C589    1.382   1_556 S
C1210  C1224   1.523   .     S
C1210  H1242   1.105   .     S
C1210  H1225   1.109   .     S
C1210  H1236   1.105   .     S
C1211  H1243   1.109   .     S
C1211  H1244   1.105   .     S
C1211  H1245   1.105   .     S
C1212  H1248   1.105   .     S
C1212  H1247   1.111   .     S
C1212  H1246   1.105   .     S
C1213  H1226   1.105   .     S
C1213  H1228   1.111   .     S
C1213  H1227   1.105   .     S
C1214  H1230   1.111   .     S
C1214  H1229   1.110   .     S
C1215  H1232   1.110   .     S
C1215  H1234   1.111   .     S
C1215  C801    1.527   1_565 S
C1215  H813    1.106   1_565 S
C1216  H1238   1.098   .     S
C1216  H1237   1.110   .     S
C1217  C578    1.382   1_556 S
C1218  H1241   1.110   .     S
C1218  H1240   1.098   .     S
C1218  H1099   1.109   1_655 S
C1218  N1110   1.434   1_655 S
C1220  C794    1.527   1_565 S
C1220  C801    1.366   1_565 S
C1222  O1257   1.300   .     A
C1222  O1255   1.290   .     A
C1223  O1256   1.290   .     A
C1223  O1258   1.300   .     A
H1231  C794    1.106   1_565 S
H1235  C1076   1.109   1_655 S
N1249  Zn1260  2.036   .     S
N1249  C1076   1.434   1_655 S
N1249  N1110   1.284   1_655 S
N1250  Zn1259  2.036   .     S
O1251  Zn1259  1.979   .     S
O1252  Zn1260  1.979   .     S
O1253  Zn1260  1.994   .     S
O1254  Zn1259  1.994   .     S
O1255  Zn1259  2.013   .     S
O1256  Zn1260  2.013   .     S
O1257  Zn1260  2.026   .     S
O1258  Zn1259  2.026   .     S
