data_str_m2_o2_o5_pcu_sym.82
_audit_creation_date              2020-01-03
_audit_creation_method            'Materials Studio'
_symmetry_space_group_name_H-M    'P1'
_symmetry_Int_Tables_number       1
_symmetry_cell_setting            triclinic
loop_
_symmetry_equiv_pos_as_xyz
  x,y,z
_cell_length_a                    30.2208
_cell_length_b                    27.9989
_cell_length_c                    27.2912
_cell_angle_alpha                 89.8543
_cell_angle_beta                  93.0370
_cell_angle_gamma                 90.0234
loop_
_atom_site_label
_atom_site_type_symbol
_atom_site_fract_x
_atom_site_fract_y
_atom_site_fract_z
_atom_site_U_iso_or_equiv
_atom_site_adp_type
_atom_site_occupancy
C1     C     0.16517   0.24990   0.16632   0.00000  Uiso   1.00
C2     C     0.28929   0.44568   0.17718   0.00000  Uiso   1.00
C3     C     0.24985   0.25004   0.07359   0.00000  Uiso   1.00
C4     C     0.25012   0.24996   0.25974   0.00000  Uiso   1.00
C5     C     0.25015   0.02747   0.16693   0.00000  Uiso   1.00
C6     C     0.25020   0.47278   0.16702   0.00000  Uiso   1.00
C7     C     0.24993   0.25004   0.02184   0.00000  Uiso   1.00
C8     C     0.25002   0.24994   0.31149   0.00000  Uiso   1.00
C9     C     0.04607   0.27560   0.13206   0.00000  Uiso   1.00
C10    C     0.45200   0.20459   0.15851   0.00000  Uiso   1.00
C11    C     0.45394   0.29057   0.17390   0.00000  Uiso   1.00
C12    C     0.33506   0.24991   0.16654   0.00000  Uiso   1.00
C13    C     0.05000   0.21848   0.20024   0.00000  Uiso   1.00
C14    C     0.09208   0.27761   0.13338   0.00000  Uiso   1.00
C15    C     0.40577   0.20580   0.16025   0.00000  Uiso   1.00
C16    C     0.40787   0.29155   0.17163   0.00000  Uiso   1.00
C17    C     0.09635   0.21876   0.19870   0.00000  Uiso   1.00
C18    C     0.11715   0.24921   0.16643   0.00000  Uiso   1.00
C19    C     0.38354   0.24922   0.16609   0.00000  Uiso   1.00
C20    C     0.02484   0.24662   0.16609   0.00000  Uiso   1.00
C21    C     0.47620   0.24708   0.16679   0.00000  Uiso   1.00
C22    C     0.01096   0.27736   0.05657   0.00000  Uiso   1.00
C23    C     0.27716   0.10458   0.19956   0.00000  Uiso   1.00
C24    C     0.47815   0.30546   0.02373   0.00000  Uiso   1.00
C25    C     0.45959   0.13937   0.10821   0.00000  Uiso   1.00
C26    C     0.49298   0.10128   0.09559   0.00000  Uiso   1.00
C27    C     0.48750   0.34029   0.22993   0.00000  Uiso   1.00
C28    C     0.01636   0.38461   0.23607   0.00000  Uiso   1.00
C29    C     0.04552   0.19387   0.28085   0.00000  Uiso   1.00
C30    C     0.01266   0.17298   0.31535   0.00000  Uiso   1.00
C31    C     0.28101   0.01668   0.27624   0.00000  Uiso   1.00
C32    C     0.31299   0.49155   0.31274   0.00000  Uiso   1.00
C33    C     0.15453   0.47260   0.20103   0.00000  Uiso   1.00
C34    C     0.21393   0.39639   0.14869   0.00000  Uiso   1.00
C35    C     0.10829   0.49413   0.19748   0.00000  Uiso   1.00
C36    C     0.21912   0.01675   0.05763   0.00000  Uiso   1.00
C37    C     0.18716   0.49148   0.02133   0.00000  Uiso   1.00
C38    C     0.34605   0.47467   0.13478   0.00000  Uiso   1.00
C39    C     0.39072   0.49975   0.13959   0.00000  Uiso   1.00
C40    C     0.22289   0.10452   0.13391   0.00000  Uiso   1.00
C41    C     0.28602   0.39602   0.18527   0.00000  Uiso   1.00
C42    C     0.27641   0.05424   0.20188   0.00000  Uiso   1.00
C43    C     0.21100   0.44595   0.15703   0.00000  Uiso   1.00
C44    C     0.22378   0.05417   0.13186   0.00000  Uiso   1.00
Cl45   Cl    0.31446   0.13459   0.24059   0.00000  Uiso   1.00
Cl46   Cl    0.17171   0.37086   0.11074   0.00000  Uiso   1.00
Cl47   Cl    0.18547   0.13449   0.09284   0.00000  Uiso   1.00
Cl48   Cl    0.32680   0.36994   0.22501   0.00000  Uiso   1.00
Cu49   Cu    0.25000   0.29821   0.16667   0.00000  Uiso   1.00
Cu50   Cu    0.25000   0.20178   0.16667   0.00000  Uiso   1.00
H51    H     0.10804   0.29999   0.10727   0.00000  Uiso   1.00
H52    H     0.45644   0.16518   0.07703   0.00000  Uiso   1.00
H53    H     0.42724   0.12141   0.11261   0.00000  Uiso   1.00
H54    H     0.02611   0.11769   0.09189   0.00000  Uiso   1.00
H55    H     0.48228   0.08388   0.06041   0.00000  Uiso   1.00
H56    H     0.49541   0.07376   0.12500   0.00000  Uiso   1.00
H57    H     0.00638   0.30950   0.24642   0.00000  Uiso   1.00
H58    H     0.45676   0.34590   0.24996   0.00000  Uiso   1.00
H59    H     0.02489   0.39085   0.27561   0.00000  Uiso   1.00
H60    H     0.49836   0.41628   0.22065   0.00000  Uiso   1.00
H61    H     0.04746   0.37977   0.21669   0.00000  Uiso   1.00
H62    H     0.38722   0.17281   0.15686   0.00000  Uiso   1.00
H63    H     0.05110   0.23211   0.29066   0.00000  Uiso   1.00
H64    H     0.07700   0.17363   0.28649   0.00000  Uiso   1.00
H65    H     0.02651   0.17541   0.02040   0.00000  Uiso   1.00
H66    H     0.48093   0.19299   0.31190   0.00000  Uiso   1.00
H67    H     0.00627   0.13484   0.30639   0.00000  Uiso   1.00
H68    H     0.25478   0.49078   0.26430   0.00000  Uiso   1.00
H69    H     0.26581   0.04756   0.29465   0.00000  Uiso   1.00
H70    H     0.33092   0.46282   0.29402   0.00000  Uiso   1.00
H71    H     0.29470   0.47513   0.00925   0.00000  Uiso   1.00
H72    H     0.33742   0.01752   0.32884   0.00000  Uiso   1.00
H73    H     0.39146   0.32555   0.17484   0.00000  Uiso   1.00
H74    H     0.17652   0.49700   0.22342   0.00000  Uiso   1.00
H75    H     0.15271   0.43735   0.21994   0.00000  Uiso   1.00
H76    H     0.09600   0.49859   0.23482   0.00000  Uiso   1.00
H77    H     0.10907   0.02960   0.17921   0.00000  Uiso   1.00
H78    H     0.08528   0.47024   0.17596   0.00000  Uiso   1.00
H79    H     0.24552   0.49101   0.06956   0.00000  Uiso   1.00
H80    H     0.23409   0.04777   0.03904   0.00000  Uiso   1.00
H81    H     0.20542   0.47532   0.32474   0.00000  Uiso   1.00
H82    H     0.16951   0.46254   0.04021   0.00000  Uiso   1.00
H83    H     0.16250   0.01730   0.00531   0.00000  Uiso   1.00
H84    H     0.11640   0.19573   0.22278   0.00000  Uiso   1.00
H85    H     0.32295   0.49787   0.11222   0.00000  Uiso   1.00
H86    H     0.35037   0.44008   0.11550   0.00000  Uiso   1.00
H87    H     0.40329   0.00611   0.10263   0.00000  Uiso   1.00
H88    H     0.41496   0.47728   0.16125   0.00000  Uiso   1.00
H89    H     0.38726   0.03464   0.15830   0.00000  Uiso   1.00
H90    H     0.49500   0.24279   0.06553   0.00000  Uiso   1.00
H91    H     0.04119   0.27045   0.03613   0.00000  Uiso   1.00
H92    H     0.49322   0.33974   0.01267   0.00000  Uiso   1.00
H93    H     0.46880   0.28436   0.32372   0.00000  Uiso   1.00
H94    H     0.44780   0.31300   0.04362   0.00000  Uiso   1.00
N95    N     0.25000   0.12934   0.16667   0.00000  Uiso   1.00
N96    N     0.25000   0.37065   0.16667   0.00000  Uiso   1.00
O97    O     0.18573   0.29071   0.16667   0.00000  Uiso   1.00
O98    O     0.47443   0.16192   0.15234   0.00000  Uiso   1.00
O99    O     0.47701   0.33301   0.17955   0.00000  Uiso   1.00
O100   O     0.02823   0.18881   0.23204   0.00000  Uiso   1.00
O101   O     0.30484   0.03226   0.23626   0.00000  Uiso   1.00
O102   O     0.16975   0.46730   0.15334   0.00000  Uiso   1.00
O103   O     0.19535   0.03209   0.09766   0.00000  Uiso   1.00
O104   O     0.33058   0.46686   0.18204   0.00000  Uiso   1.00
O105   O     0.31427   0.20928   0.16666   0.00000  Uiso   1.00
O106   O     0.31427   0.29071   0.16666   0.00000  Uiso   1.00
O107   O     0.18573   0.20928   0.16667   0.00000  Uiso   1.00
O108   O     0.25000   0.29071   0.09613   0.00000  Uiso   1.00
O109   O     0.25000   0.20929   0.23720   0.00000  Uiso   1.00
O110   O     0.25000   0.29071   0.23720   0.00000  Uiso   1.00
O111   O     0.25000   0.20929   0.09613   0.00000  Uiso   1.00
O112   O     0.02195   0.30422   0.09910   0.00000  Uiso   1.00
C113   C     0.66517   0.24990   0.16632   0.00000  Uiso   1.00
C114   C     0.78929   0.44568   0.17718   0.00000  Uiso   1.00
C115   C     0.74985   0.25004   0.07359   0.00000  Uiso   1.00
C116   C     0.75012   0.24996   0.25974   0.00000  Uiso   1.00
C117   C     0.75015   0.02747   0.16693   0.00000  Uiso   1.00
C118   C     0.75020   0.47278   0.16702   0.00000  Uiso   1.00
C119   C     0.74993   0.25004   0.02184   0.00000  Uiso   1.00
C120   C     0.75002   0.24994   0.31149   0.00000  Uiso   1.00
C121   C     0.54607   0.27560   0.13206   0.00000  Uiso   1.00
C122   C     0.95200   0.20459   0.15851   0.00000  Uiso   1.00
C123   C     0.95394   0.29057   0.17390   0.00000  Uiso   1.00
C124   C     0.83506   0.24991   0.16654   0.00000  Uiso   1.00
C125   C     0.55000   0.21848   0.20024   0.00000  Uiso   1.00
C126   C     0.59208   0.27761   0.13338   0.00000  Uiso   1.00
C127   C     0.90577   0.20580   0.16025   0.00000  Uiso   1.00
C128   C     0.90787   0.29155   0.17163   0.00000  Uiso   1.00
C129   C     0.59635   0.21876   0.19870   0.00000  Uiso   1.00
C130   C     0.61715   0.24921   0.16643   0.00000  Uiso   1.00
C131   C     0.88354   0.24922   0.16609   0.00000  Uiso   1.00
C132   C     0.52484   0.24662   0.16609   0.00000  Uiso   1.00
C133   C     0.97620   0.24708   0.16679   0.00000  Uiso   1.00
C134   C     0.51096   0.27736   0.05657   0.00000  Uiso   1.00
C135   C     0.77716   0.10458   0.19956   0.00000  Uiso   1.00
C136   C     0.97815   0.30546   0.02373   0.00000  Uiso   1.00
C137   C     0.95959   0.13937   0.10821   0.00000  Uiso   1.00
C138   C     0.99298   0.10128   0.09559   0.00000  Uiso   1.00
C139   C     0.98750   0.34029   0.22993   0.00000  Uiso   1.00
C140   C     0.51636   0.38461   0.23607   0.00000  Uiso   1.00
C141   C     0.54552   0.19387   0.28085   0.00000  Uiso   1.00
C142   C     0.51266   0.17298   0.31535   0.00000  Uiso   1.00
C143   C     0.78101   0.01668   0.27624   0.00000  Uiso   1.00
C144   C     0.81299   0.49155   0.31274   0.00000  Uiso   1.00
C145   C     0.65453   0.47260   0.20103   0.00000  Uiso   1.00
C146   C     0.71393   0.39639   0.14869   0.00000  Uiso   1.00
C147   C     0.60829   0.49413   0.19748   0.00000  Uiso   1.00
C148   C     0.71912   0.01675   0.05763   0.00000  Uiso   1.00
C149   C     0.68716   0.49148   0.02133   0.00000  Uiso   1.00
C150   C     0.84605   0.47467   0.13478   0.00000  Uiso   1.00
C151   C     0.89072   0.49975   0.13959   0.00000  Uiso   1.00
C152   C     0.72289   0.10452   0.13391   0.00000  Uiso   1.00
C153   C     0.78602   0.39602   0.18527   0.00000  Uiso   1.00
C154   C     0.77641   0.05424   0.20188   0.00000  Uiso   1.00
C155   C     0.71100   0.44595   0.15703   0.00000  Uiso   1.00
C156   C     0.72378   0.05417   0.13186   0.00000  Uiso   1.00
Cl157  Cl    0.81446   0.13459   0.24059   0.00000  Uiso   1.00
Cl158  Cl    0.67171   0.37086   0.11074   0.00000  Uiso   1.00
Cl159  Cl    0.68547   0.13449   0.09284   0.00000  Uiso   1.00
Cl160  Cl    0.82680   0.36994   0.22501   0.00000  Uiso   1.00
Cu161  Cu    0.75000   0.29821   0.16667   0.00000  Uiso   1.00
Cu162  Cu    0.75000   0.20178   0.16667   0.00000  Uiso   1.00
H163   H     0.60804   0.29999   0.10727   0.00000  Uiso   1.00
H164   H     0.95644   0.16518   0.07703   0.00000  Uiso   1.00
H165   H     0.92724   0.12141   0.11261   0.00000  Uiso   1.00
H166   H     0.52611   0.11769   0.09189   0.00000  Uiso   1.00
H167   H     0.98228   0.08388   0.06041   0.00000  Uiso   1.00
H168   H     0.99541   0.07376   0.12500   0.00000  Uiso   1.00
H169   H     0.50638   0.30950   0.24642   0.00000  Uiso   1.00
H170   H     0.95676   0.34590   0.24996   0.00000  Uiso   1.00
H171   H     0.52489   0.39085   0.27561   0.00000  Uiso   1.00
H172   H     0.99836   0.41628   0.22065   0.00000  Uiso   1.00
H173   H     0.54746   0.37977   0.21669   0.00000  Uiso   1.00
H174   H     0.88722   0.17281   0.15686   0.00000  Uiso   1.00
H175   H     0.55110   0.23211   0.29066   0.00000  Uiso   1.00
H176   H     0.57700   0.17363   0.28649   0.00000  Uiso   1.00
H177   H     0.52651   0.17541   0.02040   0.00000  Uiso   1.00
H178   H     0.98093   0.19299   0.31190   0.00000  Uiso   1.00
H179   H     0.50627   0.13484   0.30639   0.00000  Uiso   1.00
H180   H     0.75478   0.49078   0.26430   0.00000  Uiso   1.00
H181   H     0.76581   0.04756   0.29465   0.00000  Uiso   1.00
H182   H     0.83092   0.46282   0.29402   0.00000  Uiso   1.00
H183   H     0.79470   0.47513   0.00925   0.00000  Uiso   1.00
H184   H     0.83742   0.01752   0.32884   0.00000  Uiso   1.00
H185   H     0.89146   0.32555   0.17484   0.00000  Uiso   1.00
H186   H     0.67652   0.49700   0.22342   0.00000  Uiso   1.00
H187   H     0.65271   0.43735   0.21994   0.00000  Uiso   1.00
H188   H     0.59600   0.49859   0.23482   0.00000  Uiso   1.00
H189   H     0.60907   0.02960   0.17921   0.00000  Uiso   1.00
H190   H     0.58528   0.47024   0.17596   0.00000  Uiso   1.00
H191   H     0.74552   0.49101   0.06956   0.00000  Uiso   1.00
H192   H     0.73409   0.04777   0.03904   0.00000  Uiso   1.00
H193   H     0.70542   0.47532   0.32474   0.00000  Uiso   1.00
H194   H     0.66951   0.46254   0.04021   0.00000  Uiso   1.00
H195   H     0.66250   0.01730   0.00531   0.00000  Uiso   1.00
H196   H     0.61640   0.19573   0.22278   0.00000  Uiso   1.00
H197   H     0.82295   0.49787   0.11222   0.00000  Uiso   1.00
H198   H     0.85037   0.44008   0.11550   0.00000  Uiso   1.00
H199   H     0.90329   0.00611   0.10263   0.00000  Uiso   1.00
H200   H     0.91496   0.47728   0.16125   0.00000  Uiso   1.00
H201   H     0.88726   0.03464   0.15830   0.00000  Uiso   1.00
H202   H     0.99500   0.24279   0.06553   0.00000  Uiso   1.00
H203   H     0.54119   0.27045   0.03613   0.00000  Uiso   1.00
H204   H     0.99322   0.33974   0.01267   0.00000  Uiso   1.00
H205   H     0.96880   0.28436   0.32372   0.00000  Uiso   1.00
H206   H     0.94780   0.31300   0.04362   0.00000  Uiso   1.00
N207   N     0.75000   0.12934   0.16667   0.00000  Uiso   1.00
N208   N     0.75000   0.37065   0.16667   0.00000  Uiso   1.00
O209   O     0.68573   0.29071   0.16667   0.00000  Uiso   1.00
O210   O     0.97443   0.16192   0.15234   0.00000  Uiso   1.00
O211   O     0.97701   0.33301   0.17955   0.00000  Uiso   1.00
O212   O     0.52823   0.18881   0.23204   0.00000  Uiso   1.00
O213   O     0.80484   0.03226   0.23626   0.00000  Uiso   1.00
O214   O     0.66975   0.46730   0.15334   0.00000  Uiso   1.00
O215   O     0.69535   0.03209   0.09766   0.00000  Uiso   1.00
O216   O     0.83058   0.46686   0.18204   0.00000  Uiso   1.00
O217   O     0.81427   0.20928   0.16666   0.00000  Uiso   1.00
O218   O     0.81427   0.29071   0.16666   0.00000  Uiso   1.00
O219   O     0.68573   0.20928   0.16667   0.00000  Uiso   1.00
O220   O     0.75000   0.29071   0.09613   0.00000  Uiso   1.00
O221   O     0.75000   0.20929   0.23720   0.00000  Uiso   1.00
O222   O     0.75000   0.29071   0.23720   0.00000  Uiso   1.00
O223   O     0.75000   0.20929   0.09613   0.00000  Uiso   1.00
O224   O     0.52195   0.30422   0.09910   0.00000  Uiso   1.00
C225   C     0.16517   0.74990   0.16632   0.00000  Uiso   1.00
C226   C     0.28929   0.94568   0.17718   0.00000  Uiso   1.00
C227   C     0.24985   0.75004   0.07359   0.00000  Uiso   1.00
C228   C     0.25012   0.74996   0.25974   0.00000  Uiso   1.00
C229   C     0.25015   0.52747   0.16693   0.00000  Uiso   1.00
C230   C     0.25020   0.97278   0.16702   0.00000  Uiso   1.00
C231   C     0.24993   0.75004   0.02184   0.00000  Uiso   1.00
C232   C     0.25002   0.74994   0.31149   0.00000  Uiso   1.00
C233   C     0.04607   0.77560   0.13206   0.00000  Uiso   1.00
C234   C     0.45200   0.70459   0.15851   0.00000  Uiso   1.00
C235   C     0.45394   0.79057   0.17390   0.00000  Uiso   1.00
C236   C     0.33506   0.74991   0.16654   0.00000  Uiso   1.00
C237   C     0.05000   0.71848   0.20024   0.00000  Uiso   1.00
C238   C     0.09208   0.77761   0.13338   0.00000  Uiso   1.00
C239   C     0.40577   0.70580   0.16025   0.00000  Uiso   1.00
C240   C     0.40787   0.79155   0.17163   0.00000  Uiso   1.00
C241   C     0.09635   0.71876   0.19870   0.00000  Uiso   1.00
C242   C     0.11715   0.74921   0.16643   0.00000  Uiso   1.00
C243   C     0.38354   0.74922   0.16609   0.00000  Uiso   1.00
C244   C     0.02484   0.74662   0.16609   0.00000  Uiso   1.00
C245   C     0.47620   0.74708   0.16679   0.00000  Uiso   1.00
C246   C     0.01096   0.77736   0.05657   0.00000  Uiso   1.00
C247   C     0.27716   0.60458   0.19956   0.00000  Uiso   1.00
C248   C     0.47815   0.80546   0.02373   0.00000  Uiso   1.00
C249   C     0.45959   0.63937   0.10821   0.00000  Uiso   1.00
C250   C     0.49298   0.60128   0.09559   0.00000  Uiso   1.00
C251   C     0.48750   0.84029   0.22993   0.00000  Uiso   1.00
C252   C     0.01636   0.88461   0.23607   0.00000  Uiso   1.00
C253   C     0.04552   0.69387   0.28085   0.00000  Uiso   1.00
C254   C     0.01266   0.67298   0.31535   0.00000  Uiso   1.00
C255   C     0.28101   0.51668   0.27624   0.00000  Uiso   1.00
C256   C     0.31299   0.99155   0.31274   0.00000  Uiso   1.00
C257   C     0.15453   0.97260   0.20103   0.00000  Uiso   1.00
C258   C     0.21393   0.89639   0.14869   0.00000  Uiso   1.00
C259   C     0.10829   0.99413   0.19748   0.00000  Uiso   1.00
C260   C     0.21912   0.51675   0.05763   0.00000  Uiso   1.00
C261   C     0.18716   0.99148   0.02133   0.00000  Uiso   1.00
C262   C     0.34605   0.97467   0.13478   0.00000  Uiso   1.00
C263   C     0.39072   0.99975   0.13959   0.00000  Uiso   1.00
C264   C     0.22289   0.60452   0.13391   0.00000  Uiso   1.00
C265   C     0.28602   0.89602   0.18527   0.00000  Uiso   1.00
C266   C     0.27641   0.55424   0.20188   0.00000  Uiso   1.00
C267   C     0.21100   0.94595   0.15703   0.00000  Uiso   1.00
C268   C     0.22378   0.55417   0.13186   0.00000  Uiso   1.00
Cl269  Cl    0.31446   0.63459   0.24059   0.00000  Uiso   1.00
Cl270  Cl    0.17171   0.87086   0.11074   0.00000  Uiso   1.00
Cl271  Cl    0.18547   0.63449   0.09284   0.00000  Uiso   1.00
Cl272  Cl    0.32680   0.86994   0.22501   0.00000  Uiso   1.00
Cu273  Cu    0.25000   0.79821   0.16667   0.00000  Uiso   1.00
Cu274  Cu    0.25000   0.70178   0.16667   0.00000  Uiso   1.00
H275   H     0.10804   0.79999   0.10727   0.00000  Uiso   1.00
H276   H     0.45644   0.66518   0.07703   0.00000  Uiso   1.00
H277   H     0.42724   0.62141   0.11261   0.00000  Uiso   1.00
H278   H     0.02611   0.61769   0.09189   0.00000  Uiso   1.00
H279   H     0.48228   0.58388   0.06041   0.00000  Uiso   1.00
H280   H     0.49541   0.57376   0.12500   0.00000  Uiso   1.00
H281   H     0.00638   0.80950   0.24642   0.00000  Uiso   1.00
H282   H     0.45676   0.84590   0.24996   0.00000  Uiso   1.00
H283   H     0.02489   0.89085   0.27561   0.00000  Uiso   1.00
H284   H     0.49836   0.91628   0.22065   0.00000  Uiso   1.00
H285   H     0.04746   0.87977   0.21669   0.00000  Uiso   1.00
H286   H     0.38722   0.67281   0.15686   0.00000  Uiso   1.00
H287   H     0.05110   0.73211   0.29066   0.00000  Uiso   1.00
H288   H     0.07700   0.67363   0.28649   0.00000  Uiso   1.00
H289   H     0.02651   0.67541   0.02040   0.00000  Uiso   1.00
H290   H     0.48093   0.69299   0.31190   0.00000  Uiso   1.00
H291   H     0.00627   0.63484   0.30639   0.00000  Uiso   1.00
H292   H     0.25478   0.99078   0.26430   0.00000  Uiso   1.00
H293   H     0.26581   0.54756   0.29465   0.00000  Uiso   1.00
H294   H     0.33092   0.96282   0.29402   0.00000  Uiso   1.00
H295   H     0.29470   0.97513   0.00925   0.00000  Uiso   1.00
H296   H     0.33742   0.51752   0.32884   0.00000  Uiso   1.00
H297   H     0.39146   0.82555   0.17484   0.00000  Uiso   1.00
H298   H     0.17652   0.99700   0.22342   0.00000  Uiso   1.00
H299   H     0.15271   0.93735   0.21994   0.00000  Uiso   1.00
H300   H     0.09600   0.99859   0.23482   0.00000  Uiso   1.00
H301   H     0.10907   0.52960   0.17921   0.00000  Uiso   1.00
H302   H     0.08528   0.97024   0.17596   0.00000  Uiso   1.00
H303   H     0.24552   0.99101   0.06956   0.00000  Uiso   1.00
H304   H     0.23409   0.54777   0.03904   0.00000  Uiso   1.00
H305   H     0.20542   0.97532   0.32474   0.00000  Uiso   1.00
H306   H     0.16951   0.96254   0.04021   0.00000  Uiso   1.00
H307   H     0.16250   0.51730   0.00531   0.00000  Uiso   1.00
H308   H     0.11640   0.69573   0.22278   0.00000  Uiso   1.00
H309   H     0.32295   0.99787   0.11222   0.00000  Uiso   1.00
H310   H     0.35037   0.94008   0.11550   0.00000  Uiso   1.00
H311   H     0.40329   0.50611   0.10263   0.00000  Uiso   1.00
H312   H     0.41496   0.97728   0.16125   0.00000  Uiso   1.00
H313   H     0.38726   0.53464   0.15830   0.00000  Uiso   1.00
H314   H     0.49500   0.74279   0.06553   0.00000  Uiso   1.00
H315   H     0.04119   0.77045   0.03613   0.00000  Uiso   1.00
H316   H     0.49322   0.83974   0.01267   0.00000  Uiso   1.00
H317   H     0.46880   0.78436   0.32372   0.00000  Uiso   1.00
H318   H     0.44780   0.81300   0.04362   0.00000  Uiso   1.00
N319   N     0.25000   0.62934   0.16667   0.00000  Uiso   1.00
N320   N     0.25000   0.87065   0.16667   0.00000  Uiso   1.00
O321   O     0.18573   0.79071   0.16667   0.00000  Uiso   1.00
O322   O     0.47443   0.66192   0.15234   0.00000  Uiso   1.00
O323   O     0.47701   0.83301   0.17955   0.00000  Uiso   1.00
O324   O     0.02823   0.68881   0.23204   0.00000  Uiso   1.00
O325   O     0.30484   0.53226   0.23626   0.00000  Uiso   1.00
O326   O     0.16975   0.96730   0.15334   0.00000  Uiso   1.00
O327   O     0.19535   0.53209   0.09766   0.00000  Uiso   1.00
O328   O     0.33058   0.96686   0.18204   0.00000  Uiso   1.00
O329   O     0.31427   0.70928   0.16666   0.00000  Uiso   1.00
O330   O     0.31427   0.79071   0.16666   0.00000  Uiso   1.00
O331   O     0.18573   0.70928   0.16667   0.00000  Uiso   1.00
O332   O     0.25000   0.79071   0.09613   0.00000  Uiso   1.00
O333   O     0.25000   0.70929   0.23720   0.00000  Uiso   1.00
O334   O     0.25000   0.79071   0.23720   0.00000  Uiso   1.00
O335   O     0.25000   0.70929   0.09613   0.00000  Uiso   1.00
O336   O     0.02195   0.80422   0.09910   0.00000  Uiso   1.00
C337   C     0.66517   0.74990   0.16632   0.00000  Uiso   1.00
C338   C     0.78929   0.94568   0.17718   0.00000  Uiso   1.00
C339   C     0.74985   0.75004   0.07359   0.00000  Uiso   1.00
C340   C     0.75012   0.74996   0.25974   0.00000  Uiso   1.00
C341   C     0.75015   0.52747   0.16693   0.00000  Uiso   1.00
C342   C     0.75020   0.97278   0.16702   0.00000  Uiso   1.00
C343   C     0.74993   0.75004   0.02184   0.00000  Uiso   1.00
C344   C     0.75002   0.74994   0.31149   0.00000  Uiso   1.00
C345   C     0.54607   0.77560   0.13206   0.00000  Uiso   1.00
C346   C     0.95200   0.70459   0.15851   0.00000  Uiso   1.00
C347   C     0.95394   0.79057   0.17390   0.00000  Uiso   1.00
C348   C     0.83506   0.74991   0.16654   0.00000  Uiso   1.00
C349   C     0.55000   0.71848   0.20024   0.00000  Uiso   1.00
C350   C     0.59208   0.77761   0.13338   0.00000  Uiso   1.00
C351   C     0.90577   0.70580   0.16025   0.00000  Uiso   1.00
C352   C     0.90787   0.79155   0.17163   0.00000  Uiso   1.00
C353   C     0.59635   0.71876   0.19870   0.00000  Uiso   1.00
C354   C     0.61715   0.74921   0.16643   0.00000  Uiso   1.00
C355   C     0.88354   0.74922   0.16609   0.00000  Uiso   1.00
C356   C     0.52484   0.74662   0.16609   0.00000  Uiso   1.00
C357   C     0.97620   0.74708   0.16679   0.00000  Uiso   1.00
C358   C     0.51096   0.77736   0.05657   0.00000  Uiso   1.00
C359   C     0.77716   0.60458   0.19956   0.00000  Uiso   1.00
C360   C     0.97815   0.80546   0.02373   0.00000  Uiso   1.00
C361   C     0.95959   0.63937   0.10821   0.00000  Uiso   1.00
C362   C     0.99298   0.60128   0.09559   0.00000  Uiso   1.00
C363   C     0.98750   0.84029   0.22993   0.00000  Uiso   1.00
C364   C     0.51636   0.88461   0.23607   0.00000  Uiso   1.00
C365   C     0.54552   0.69387   0.28085   0.00000  Uiso   1.00
C366   C     0.51266   0.67298   0.31535   0.00000  Uiso   1.00
C367   C     0.78101   0.51668   0.27624   0.00000  Uiso   1.00
C368   C     0.81299   0.99155   0.31274   0.00000  Uiso   1.00
C369   C     0.65453   0.97260   0.20103   0.00000  Uiso   1.00
C370   C     0.71393   0.89639   0.14869   0.00000  Uiso   1.00
C371   C     0.60829   0.99413   0.19748   0.00000  Uiso   1.00
C372   C     0.71912   0.51675   0.05763   0.00000  Uiso   1.00
C373   C     0.68716   0.99148   0.02133   0.00000  Uiso   1.00
C374   C     0.84605   0.97467   0.13478   0.00000  Uiso   1.00
C375   C     0.89072   0.99975   0.13959   0.00000  Uiso   1.00
C376   C     0.72289   0.60452   0.13391   0.00000  Uiso   1.00
C377   C     0.78602   0.89602   0.18527   0.00000  Uiso   1.00
C378   C     0.77641   0.55424   0.20188   0.00000  Uiso   1.00
C379   C     0.71100   0.94595   0.15703   0.00000  Uiso   1.00
C380   C     0.72378   0.55417   0.13186   0.00000  Uiso   1.00
Cl381  Cl    0.81446   0.63459   0.24059   0.00000  Uiso   1.00
Cl382  Cl    0.67171   0.87086   0.11074   0.00000  Uiso   1.00
Cl383  Cl    0.68547   0.63449   0.09284   0.00000  Uiso   1.00
Cl384  Cl    0.82680   0.86994   0.22501   0.00000  Uiso   1.00
Cu385  Cu    0.75000   0.79821   0.16667   0.00000  Uiso   1.00
Cu386  Cu    0.75000   0.70178   0.16667   0.00000  Uiso   1.00
H387   H     0.60804   0.79999   0.10727   0.00000  Uiso   1.00
H388   H     0.95644   0.66518   0.07703   0.00000  Uiso   1.00
H389   H     0.92724   0.62141   0.11261   0.00000  Uiso   1.00
H390   H     0.52611   0.61769   0.09189   0.00000  Uiso   1.00
H391   H     0.98228   0.58388   0.06041   0.00000  Uiso   1.00
H392   H     0.99541   0.57376   0.12500   0.00000  Uiso   1.00
H393   H     0.50638   0.80950   0.24642   0.00000  Uiso   1.00
H394   H     0.95676   0.84590   0.24996   0.00000  Uiso   1.00
H395   H     0.52489   0.89085   0.27561   0.00000  Uiso   1.00
H396   H     0.99836   0.91628   0.22065   0.00000  Uiso   1.00
H397   H     0.54746   0.87977   0.21669   0.00000  Uiso   1.00
H398   H     0.88722   0.67281   0.15686   0.00000  Uiso   1.00
H399   H     0.55110   0.73211   0.29066   0.00000  Uiso   1.00
H400   H     0.57700   0.67363   0.28649   0.00000  Uiso   1.00
H401   H     0.52651   0.67541   0.02040   0.00000  Uiso   1.00
H402   H     0.98093   0.69299   0.31190   0.00000  Uiso   1.00
H403   H     0.50627   0.63484   0.30639   0.00000  Uiso   1.00
H404   H     0.75478   0.99078   0.26430   0.00000  Uiso   1.00
H405   H     0.76581   0.54756   0.29465   0.00000  Uiso   1.00
H406   H     0.83092   0.96282   0.29402   0.00000  Uiso   1.00
H407   H     0.79470   0.97513   0.00925   0.00000  Uiso   1.00
H408   H     0.83742   0.51752   0.32884   0.00000  Uiso   1.00
H409   H     0.89146   0.82555   0.17484   0.00000  Uiso   1.00
H410   H     0.67652   0.99700   0.22342   0.00000  Uiso   1.00
H411   H     0.65271   0.93735   0.21994   0.00000  Uiso   1.00
H412   H     0.59600   0.99859   0.23482   0.00000  Uiso   1.00
H413   H     0.60907   0.52960   0.17921   0.00000  Uiso   1.00
H414   H     0.58528   0.97024   0.17596   0.00000  Uiso   1.00
H415   H     0.74552   0.99101   0.06956   0.00000  Uiso   1.00
H416   H     0.73409   0.54777   0.03904   0.00000  Uiso   1.00
H417   H     0.70542   0.97532   0.32474   0.00000  Uiso   1.00
H418   H     0.66951   0.96254   0.04021   0.00000  Uiso   1.00
H419   H     0.66250   0.51730   0.00531   0.00000  Uiso   1.00
H420   H     0.61640   0.69573   0.22278   0.00000  Uiso   1.00
H421   H     0.82295   0.99787   0.11222   0.00000  Uiso   1.00
H422   H     0.85037   0.94008   0.11550   0.00000  Uiso   1.00
H423   H     0.90329   0.50611   0.10263   0.00000  Uiso   1.00
H424   H     0.91496   0.97728   0.16125   0.00000  Uiso   1.00
H425   H     0.88726   0.53464   0.15830   0.00000  Uiso   1.00
H426   H     0.99500   0.74279   0.06553   0.00000  Uiso   1.00
H427   H     0.54119   0.77045   0.03613   0.00000  Uiso   1.00
H428   H     0.99322   0.83974   0.01267   0.00000  Uiso   1.00
H429   H     0.96880   0.78436   0.32372   0.00000  Uiso   1.00
H430   H     0.94780   0.81300   0.04362   0.00000  Uiso   1.00
N431   N     0.75000   0.62934   0.16667   0.00000  Uiso   1.00
N432   N     0.75000   0.87065   0.16667   0.00000  Uiso   1.00
O433   O     0.68573   0.79071   0.16667   0.00000  Uiso   1.00
O434   O     0.97443   0.66192   0.15234   0.00000  Uiso   1.00
O435   O     0.97701   0.83301   0.17955   0.00000  Uiso   1.00
O436   O     0.52823   0.68881   0.23204   0.00000  Uiso   1.00
O437   O     0.80484   0.53226   0.23626   0.00000  Uiso   1.00
O438   O     0.66975   0.96730   0.15334   0.00000  Uiso   1.00
O439   O     0.69535   0.53209   0.09766   0.00000  Uiso   1.00
O440   O     0.83058   0.96686   0.18204   0.00000  Uiso   1.00
O441   O     0.81427   0.70928   0.16666   0.00000  Uiso   1.00
O442   O     0.81427   0.79071   0.16666   0.00000  Uiso   1.00
O443   O     0.68573   0.70928   0.16667   0.00000  Uiso   1.00
O444   O     0.75000   0.79071   0.09613   0.00000  Uiso   1.00
O445   O     0.75000   0.70929   0.23720   0.00000  Uiso   1.00
O446   O     0.75000   0.79071   0.23720   0.00000  Uiso   1.00
O447   O     0.75000   0.70929   0.09613   0.00000  Uiso   1.00
O448   O     0.52195   0.80422   0.09910   0.00000  Uiso   1.00
C449   C     0.16517   0.24990   0.49965   0.00000  Uiso   1.00
C450   C     0.28929   0.44568   0.51052   0.00000  Uiso   1.00
C451   C     0.24985   0.25004   0.40692   0.00000  Uiso   1.00
C452   C     0.25012   0.24996   0.59307   0.00000  Uiso   1.00
C453   C     0.25015   0.02747   0.50026   0.00000  Uiso   1.00
C454   C     0.25020   0.47278   0.50035   0.00000  Uiso   1.00
C455   C     0.24993   0.25004   0.35518   0.00000  Uiso   1.00
C456   C     0.25002   0.24994   0.64482   0.00000  Uiso   1.00
C457   C     0.04607   0.27560   0.46540   0.00000  Uiso   1.00
C458   C     0.45200   0.20459   0.49185   0.00000  Uiso   1.00
C459   C     0.45394   0.29057   0.50723   0.00000  Uiso   1.00
C460   C     0.33506   0.24991   0.49987   0.00000  Uiso   1.00
C461   C     0.05000   0.21848   0.53357   0.00000  Uiso   1.00
C462   C     0.09208   0.27761   0.46672   0.00000  Uiso   1.00
C463   C     0.40577   0.20580   0.49359   0.00000  Uiso   1.00
C464   C     0.40787   0.29155   0.50496   0.00000  Uiso   1.00
C465   C     0.09635   0.21876   0.53203   0.00000  Uiso   1.00
C466   C     0.11715   0.24921   0.49977   0.00000  Uiso   1.00
C467   C     0.38354   0.24922   0.49942   0.00000  Uiso   1.00
C468   C     0.02484   0.24662   0.49943   0.00000  Uiso   1.00
C469   C     0.47620   0.24708   0.50012   0.00000  Uiso   1.00
C470   C     0.01096   0.27736   0.38990   0.00000  Uiso   1.00
C471   C     0.27716   0.10458   0.53289   0.00000  Uiso   1.00
C472   C     0.47815   0.30546   0.35706   0.00000  Uiso   1.00
C473   C     0.45959   0.13937   0.44154   0.00000  Uiso   1.00
C474   C     0.49298   0.10128   0.42893   0.00000  Uiso   1.00
C475   C     0.48750   0.34029   0.56326   0.00000  Uiso   1.00
C476   C     0.01636   0.38461   0.56941   0.00000  Uiso   1.00
C477   C     0.04552   0.19387   0.61418   0.00000  Uiso   1.00
C478   C     0.01266   0.17298   0.64868   0.00000  Uiso   1.00
C479   C     0.28101   0.01668   0.60957   0.00000  Uiso   1.00
C480   C     0.31299   0.49155   0.64608   0.00000  Uiso   1.00
C481   C     0.15453   0.47260   0.53436   0.00000  Uiso   1.00
C482   C     0.21393   0.39639   0.48203   0.00000  Uiso   1.00
C483   C     0.10829   0.49413   0.53081   0.00000  Uiso   1.00
C484   C     0.21912   0.01675   0.39096   0.00000  Uiso   1.00
C485   C     0.18716   0.49148   0.35466   0.00000  Uiso   1.00
C486   C     0.34605   0.47467   0.46811   0.00000  Uiso   1.00
C487   C     0.39072   0.49975   0.47293   0.00000  Uiso   1.00
C488   C     0.22289   0.10452   0.46725   0.00000  Uiso   1.00
C489   C     0.28602   0.39602   0.51860   0.00000  Uiso   1.00
C490   C     0.27641   0.05424   0.53521   0.00000  Uiso   1.00
C491   C     0.21100   0.44595   0.49036   0.00000  Uiso   1.00
C492   C     0.22378   0.05417   0.46519   0.00000  Uiso   1.00
Cl493  Cl    0.31446   0.13459   0.57392   0.00000  Uiso   1.00
Cl494  Cl    0.17171   0.37086   0.44407   0.00000  Uiso   1.00
Cl495  Cl    0.18547   0.13449   0.42617   0.00000  Uiso   1.00
Cl496  Cl    0.32680   0.36994   0.55835   0.00000  Uiso   1.00
Cu497  Cu    0.25000   0.29821   0.50000   0.00000  Uiso   1.00
Cu498  Cu    0.25000   0.20178   0.50000   0.00000  Uiso   1.00
H499   H     0.10804   0.29999   0.44060   0.00000  Uiso   1.00
H500   H     0.45644   0.16518   0.41037   0.00000  Uiso   1.00
H501   H     0.42724   0.12141   0.44595   0.00000  Uiso   1.00
H502   H     0.02611   0.11769   0.42522   0.00000  Uiso   1.00
H503   H     0.48228   0.08388   0.39375   0.00000  Uiso   1.00
H504   H     0.49541   0.07376   0.45833   0.00000  Uiso   1.00
H505   H     0.00638   0.30950   0.57975   0.00000  Uiso   1.00
H506   H     0.45676   0.34590   0.58329   0.00000  Uiso   1.00
H507   H     0.02489   0.39085   0.60894   0.00000  Uiso   1.00
H508   H     0.49836   0.41628   0.55398   0.00000  Uiso   1.00
H509   H     0.04746   0.37977   0.55003   0.00000  Uiso   1.00
H510   H     0.38722   0.17281   0.49020   0.00000  Uiso   1.00
H511   H     0.05110   0.23211   0.62399   0.00000  Uiso   1.00
H512   H     0.07700   0.17363   0.61982   0.00000  Uiso   1.00
H513   H     0.02651   0.17541   0.35373   0.00000  Uiso   1.00
H514   H     0.48093   0.19299   0.64524   0.00000  Uiso   1.00
H515   H     0.00627   0.13484   0.63973   0.00000  Uiso   1.00
H516   H     0.25478   0.49078   0.59763   0.00000  Uiso   1.00
H517   H     0.26581   0.04756   0.62799   0.00000  Uiso   1.00
H518   H     0.33092   0.46282   0.62735   0.00000  Uiso   1.00
H519   H     0.29470   0.47513   0.34259   0.00000  Uiso   1.00
H520   H     0.33742   0.01752   0.66217   0.00000  Uiso   1.00
H521   H     0.39146   0.32555   0.50817   0.00000  Uiso   1.00
H522   H     0.17652   0.49700   0.55675   0.00000  Uiso   1.00
H523   H     0.15271   0.43735   0.55327   0.00000  Uiso   1.00
H524   H     0.09600   0.49859   0.56816   0.00000  Uiso   1.00
H525   H     0.10907   0.02960   0.51255   0.00000  Uiso   1.00
H526   H     0.08528   0.47024   0.50929   0.00000  Uiso   1.00
H527   H     0.24552   0.49101   0.40290   0.00000  Uiso   1.00
H528   H     0.23409   0.04777   0.37238   0.00000  Uiso   1.00
H529   H     0.20542   0.47532   0.65808   0.00000  Uiso   1.00
H530   H     0.16951   0.46254   0.37355   0.00000  Uiso   1.00
H531   H     0.16250   0.01730   0.33864   0.00000  Uiso   1.00
H532   H     0.11640   0.19573   0.55611   0.00000  Uiso   1.00
H533   H     0.32295   0.49787   0.44555   0.00000  Uiso   1.00
H534   H     0.35037   0.44008   0.44883   0.00000  Uiso   1.00
H535   H     0.40329   0.00611   0.43596   0.00000  Uiso   1.00
H536   H     0.41496   0.47728   0.49458   0.00000  Uiso   1.00
H537   H     0.38726   0.03464   0.49163   0.00000  Uiso   1.00
H538   H     0.49500   0.24279   0.39886   0.00000  Uiso   1.00
H539   H     0.04119   0.27045   0.36946   0.00000  Uiso   1.00
H540   H     0.49322   0.33974   0.34600   0.00000  Uiso   1.00
H541   H     0.46880   0.28436   0.65705   0.00000  Uiso   1.00
H542   H     0.44780   0.31300   0.37695   0.00000  Uiso   1.00
N543   N     0.25000   0.12934   0.50000   0.00000  Uiso   1.00
N544   N     0.25000   0.37065   0.50000   0.00000  Uiso   1.00
O545   O     0.18573   0.29071   0.50000   0.00000  Uiso   1.00
O546   O     0.47443   0.16192   0.48568   0.00000  Uiso   1.00
O547   O     0.47701   0.33301   0.51288   0.00000  Uiso   1.00
O548   O     0.02823   0.18881   0.56538   0.00000  Uiso   1.00
O549   O     0.30484   0.03226   0.56960   0.00000  Uiso   1.00
O550   O     0.16975   0.46730   0.48667   0.00000  Uiso   1.00
O551   O     0.19535   0.03209   0.43099   0.00000  Uiso   1.00
O552   O     0.33058   0.46686   0.51538   0.00000  Uiso   1.00
O553   O     0.31427   0.20928   0.50000   0.00000  Uiso   1.00
O554   O     0.31427   0.29071   0.50000   0.00000  Uiso   1.00
O555   O     0.18573   0.20928   0.50000   0.00000  Uiso   1.00
O556   O     0.25000   0.29071   0.42946   0.00000  Uiso   1.00
O557   O     0.25000   0.20929   0.57054   0.00000  Uiso   1.00
O558   O     0.25000   0.29071   0.57054   0.00000  Uiso   1.00
O559   O     0.25000   0.20929   0.42946   0.00000  Uiso   1.00
O560   O     0.02195   0.30422   0.43244   0.00000  Uiso   1.00
C561   C     0.66517   0.24990   0.49965   0.00000  Uiso   1.00
C562   C     0.78929   0.44568   0.51052   0.00000  Uiso   1.00
C563   C     0.74985   0.25004   0.40692   0.00000  Uiso   1.00
C564   C     0.75012   0.24996   0.59307   0.00000  Uiso   1.00
C565   C     0.75015   0.02747   0.50026   0.00000  Uiso   1.00
C566   C     0.75020   0.47278   0.50035   0.00000  Uiso   1.00
C567   C     0.74993   0.25004   0.35518   0.00000  Uiso   1.00
C568   C     0.75002   0.24994   0.64482   0.00000  Uiso   1.00
C569   C     0.54607   0.27560   0.46540   0.00000  Uiso   1.00
C570   C     0.95200   0.20459   0.49185   0.00000  Uiso   1.00
C571   C     0.95394   0.29057   0.50723   0.00000  Uiso   1.00
C572   C     0.83506   0.24991   0.49987   0.00000  Uiso   1.00
C573   C     0.55000   0.21848   0.53357   0.00000  Uiso   1.00
C574   C     0.59208   0.27761   0.46672   0.00000  Uiso   1.00
C575   C     0.90577   0.20580   0.49359   0.00000  Uiso   1.00
C576   C     0.90787   0.29155   0.50496   0.00000  Uiso   1.00
C577   C     0.59635   0.21876   0.53203   0.00000  Uiso   1.00
C578   C     0.61715   0.24921   0.49977   0.00000  Uiso   1.00
C579   C     0.88354   0.24922   0.49942   0.00000  Uiso   1.00
C580   C     0.52484   0.24662   0.49943   0.00000  Uiso   1.00
C581   C     0.97620   0.24708   0.50012   0.00000  Uiso   1.00
C582   C     0.51096   0.27736   0.38990   0.00000  Uiso   1.00
C583   C     0.77716   0.10458   0.53289   0.00000  Uiso   1.00
C584   C     0.97815   0.30546   0.35706   0.00000  Uiso   1.00
C585   C     0.95959   0.13937   0.44154   0.00000  Uiso   1.00
C586   C     0.99298   0.10128   0.42893   0.00000  Uiso   1.00
C587   C     0.98750   0.34029   0.56326   0.00000  Uiso   1.00
C588   C     0.51636   0.38461   0.56941   0.00000  Uiso   1.00
C589   C     0.54552   0.19387   0.61418   0.00000  Uiso   1.00
C590   C     0.51266   0.17298   0.64868   0.00000  Uiso   1.00
C591   C     0.78101   0.01668   0.60957   0.00000  Uiso   1.00
C592   C     0.81299   0.49155   0.64608   0.00000  Uiso   1.00
C593   C     0.65453   0.47260   0.53436   0.00000  Uiso   1.00
C594   C     0.71393   0.39639   0.48203   0.00000  Uiso   1.00
C595   C     0.60829   0.49413   0.53081   0.00000  Uiso   1.00
C596   C     0.71912   0.01675   0.39096   0.00000  Uiso   1.00
C597   C     0.68716   0.49148   0.35466   0.00000  Uiso   1.00
C598   C     0.84605   0.47467   0.46811   0.00000  Uiso   1.00
C599   C     0.89072   0.49975   0.47293   0.00000  Uiso   1.00
C600   C     0.72289   0.10452   0.46725   0.00000  Uiso   1.00
C601   C     0.78602   0.39602   0.51860   0.00000  Uiso   1.00
C602   C     0.77641   0.05424   0.53521   0.00000  Uiso   1.00
C603   C     0.71100   0.44595   0.49036   0.00000  Uiso   1.00
C604   C     0.72378   0.05417   0.46519   0.00000  Uiso   1.00
Cl605  Cl    0.81446   0.13459   0.57392   0.00000  Uiso   1.00
Cl606  Cl    0.67171   0.37086   0.44407   0.00000  Uiso   1.00
Cl607  Cl    0.68547   0.13449   0.42617   0.00000  Uiso   1.00
Cl608  Cl    0.82680   0.36994   0.55835   0.00000  Uiso   1.00
Cu609  Cu    0.75000   0.29821   0.50000   0.00000  Uiso   1.00
Cu610  Cu    0.75000   0.20178   0.50000   0.00000  Uiso   1.00
H611   H     0.60804   0.29999   0.44060   0.00000  Uiso   1.00
H612   H     0.95644   0.16518   0.41037   0.00000  Uiso   1.00
H613   H     0.92724   0.12141   0.44595   0.00000  Uiso   1.00
H614   H     0.52611   0.11769   0.42522   0.00000  Uiso   1.00
H615   H     0.98228   0.08388   0.39375   0.00000  Uiso   1.00
H616   H     0.99541   0.07376   0.45833   0.00000  Uiso   1.00
H617   H     0.50638   0.30950   0.57975   0.00000  Uiso   1.00
H618   H     0.95676   0.34590   0.58329   0.00000  Uiso   1.00
H619   H     0.52489   0.39085   0.60894   0.00000  Uiso   1.00
H620   H     0.99836   0.41628   0.55398   0.00000  Uiso   1.00
H621   H     0.54746   0.37977   0.55003   0.00000  Uiso   1.00
H622   H     0.88722   0.17281   0.49020   0.00000  Uiso   1.00
H623   H     0.55110   0.23211   0.62399   0.00000  Uiso   1.00
H624   H     0.57700   0.17363   0.61982   0.00000  Uiso   1.00
H625   H     0.52651   0.17541   0.35373   0.00000  Uiso   1.00
H626   H     0.98093   0.19299   0.64524   0.00000  Uiso   1.00
H627   H     0.50627   0.13484   0.63973   0.00000  Uiso   1.00
H628   H     0.75478   0.49078   0.59763   0.00000  Uiso   1.00
H629   H     0.76581   0.04756   0.62799   0.00000  Uiso   1.00
H630   H     0.83092   0.46282   0.62735   0.00000  Uiso   1.00
H631   H     0.79470   0.47513   0.34259   0.00000  Uiso   1.00
H632   H     0.83742   0.01752   0.66217   0.00000  Uiso   1.00
H633   H     0.89146   0.32555   0.50817   0.00000  Uiso   1.00
H634   H     0.67652   0.49700   0.55675   0.00000  Uiso   1.00
H635   H     0.65271   0.43735   0.55327   0.00000  Uiso   1.00
H636   H     0.59600   0.49859   0.56816   0.00000  Uiso   1.00
H637   H     0.60907   0.02960   0.51255   0.00000  Uiso   1.00
H638   H     0.58528   0.47024   0.50929   0.00000  Uiso   1.00
H639   H     0.74552   0.49101   0.40290   0.00000  Uiso   1.00
H640   H     0.73409   0.04777   0.37238   0.00000  Uiso   1.00
H641   H     0.70542   0.47532   0.65808   0.00000  Uiso   1.00
H642   H     0.66951   0.46254   0.37355   0.00000  Uiso   1.00
H643   H     0.66250   0.01730   0.33864   0.00000  Uiso   1.00
H644   H     0.61640   0.19573   0.55611   0.00000  Uiso   1.00
H645   H     0.82295   0.49787   0.44555   0.00000  Uiso   1.00
H646   H     0.85037   0.44008   0.44883   0.00000  Uiso   1.00
H647   H     0.90329   0.00611   0.43596   0.00000  Uiso   1.00
H648   H     0.91496   0.47728   0.49458   0.00000  Uiso   1.00
H649   H     0.88726   0.03464   0.49163   0.00000  Uiso   1.00
H650   H     0.99500   0.24279   0.39886   0.00000  Uiso   1.00
H651   H     0.54119   0.27045   0.36946   0.00000  Uiso   1.00
H652   H     0.99322   0.33974   0.34600   0.00000  Uiso   1.00
H653   H     0.96880   0.28436   0.65705   0.00000  Uiso   1.00
H654   H     0.94780   0.31300   0.37695   0.00000  Uiso   1.00
N655   N     0.75000   0.12934   0.50000   0.00000  Uiso   1.00
N656   N     0.75000   0.37065   0.50000   0.00000  Uiso   1.00
O657   O     0.68573   0.29071   0.50000   0.00000  Uiso   1.00
O658   O     0.97443   0.16192   0.48568   0.00000  Uiso   1.00
O659   O     0.97701   0.33301   0.51288   0.00000  Uiso   1.00
O660   O     0.52823   0.18881   0.56538   0.00000  Uiso   1.00
O661   O     0.80484   0.03226   0.56960   0.00000  Uiso   1.00
O662   O     0.66975   0.46730   0.48667   0.00000  Uiso   1.00
O663   O     0.69535   0.03209   0.43099   0.00000  Uiso   1.00
O664   O     0.83058   0.46686   0.51538   0.00000  Uiso   1.00
O665   O     0.81427   0.20928   0.50000   0.00000  Uiso   1.00
O666   O     0.81427   0.29071   0.50000   0.00000  Uiso   1.00
O667   O     0.68573   0.20928   0.50000   0.00000  Uiso   1.00
O668   O     0.75000   0.29071   0.42946   0.00000  Uiso   1.00
O669   O     0.75000   0.20929   0.57054   0.00000  Uiso   1.00
O670   O     0.75000   0.29071   0.57054   0.00000  Uiso   1.00
O671   O     0.75000   0.20929   0.42946   0.00000  Uiso   1.00
O672   O     0.52195   0.30422   0.43244   0.00000  Uiso   1.00
C673   C     0.16517   0.74990   0.49965   0.00000  Uiso   1.00
C674   C     0.28929   0.94568   0.51052   0.00000  Uiso   1.00
C675   C     0.24985   0.75004   0.40692   0.00000  Uiso   1.00
C676   C     0.25012   0.74996   0.59307   0.00000  Uiso   1.00
C677   C     0.25015   0.52747   0.50026   0.00000  Uiso   1.00
C678   C     0.25020   0.97278   0.50035   0.00000  Uiso   1.00
C679   C     0.24993   0.75004   0.35518   0.00000  Uiso   1.00
C680   C     0.25002   0.74994   0.64482   0.00000  Uiso   1.00
C681   C     0.04607   0.77560   0.46540   0.00000  Uiso   1.00
C682   C     0.45200   0.70459   0.49185   0.00000  Uiso   1.00
C683   C     0.45394   0.79057   0.50723   0.00000  Uiso   1.00
C684   C     0.33506   0.74991   0.49987   0.00000  Uiso   1.00
C685   C     0.05000   0.71848   0.53357   0.00000  Uiso   1.00
C686   C     0.09208   0.77761   0.46672   0.00000  Uiso   1.00
C687   C     0.40577   0.70580   0.49359   0.00000  Uiso   1.00
C688   C     0.40787   0.79155   0.50496   0.00000  Uiso   1.00
C689   C     0.09635   0.71876   0.53203   0.00000  Uiso   1.00
C690   C     0.11715   0.74921   0.49977   0.00000  Uiso   1.00
C691   C     0.38354   0.74922   0.49942   0.00000  Uiso   1.00
C692   C     0.02484   0.74662   0.49943   0.00000  Uiso   1.00
C693   C     0.47620   0.74708   0.50012   0.00000  Uiso   1.00
C694   C     0.01096   0.77736   0.38990   0.00000  Uiso   1.00
C695   C     0.27716   0.60458   0.53289   0.00000  Uiso   1.00
C696   C     0.47815   0.80546   0.35706   0.00000  Uiso   1.00
C697   C     0.45959   0.63937   0.44154   0.00000  Uiso   1.00
C698   C     0.49298   0.60128   0.42893   0.00000  Uiso   1.00
C699   C     0.48750   0.84029   0.56326   0.00000  Uiso   1.00
C700   C     0.01636   0.88461   0.56941   0.00000  Uiso   1.00
C701   C     0.04552   0.69387   0.61418   0.00000  Uiso   1.00
C702   C     0.01266   0.67298   0.64868   0.00000  Uiso   1.00
C703   C     0.28101   0.51668   0.60957   0.00000  Uiso   1.00
C704   C     0.31299   0.99155   0.64608   0.00000  Uiso   1.00
C705   C     0.15453   0.97260   0.53436   0.00000  Uiso   1.00
C706   C     0.21393   0.89639   0.48203   0.00000  Uiso   1.00
C707   C     0.10829   0.99413   0.53081   0.00000  Uiso   1.00
C708   C     0.21912   0.51675   0.39096   0.00000  Uiso   1.00
C709   C     0.18716   0.99148   0.35466   0.00000  Uiso   1.00
C710   C     0.34605   0.97467   0.46811   0.00000  Uiso   1.00
C711   C     0.39072   0.99975   0.47293   0.00000  Uiso   1.00
C712   C     0.22289   0.60452   0.46725   0.00000  Uiso   1.00
C713   C     0.28602   0.89602   0.51860   0.00000  Uiso   1.00
C714   C     0.27641   0.55424   0.53521   0.00000  Uiso   1.00
C715   C     0.21100   0.94595   0.49036   0.00000  Uiso   1.00
C716   C     0.22378   0.55417   0.46519   0.00000  Uiso   1.00
Cl717  Cl    0.31446   0.63459   0.57392   0.00000  Uiso   1.00
Cl718  Cl    0.17171   0.87086   0.44407   0.00000  Uiso   1.00
Cl719  Cl    0.18547   0.63449   0.42617   0.00000  Uiso   1.00
Cl720  Cl    0.32680   0.86994   0.55835   0.00000  Uiso   1.00
Cu721  Cu    0.25000   0.79821   0.50000   0.00000  Uiso   1.00
Cu722  Cu    0.25000   0.70178   0.50000   0.00000  Uiso   1.00
H723   H     0.10804   0.79999   0.44060   0.00000  Uiso   1.00
H724   H     0.45644   0.66518   0.41037   0.00000  Uiso   1.00
H725   H     0.42724   0.62141   0.44595   0.00000  Uiso   1.00
H726   H     0.02611   0.61769   0.42522   0.00000  Uiso   1.00
H727   H     0.48228   0.58388   0.39375   0.00000  Uiso   1.00
H728   H     0.49541   0.57376   0.45833   0.00000  Uiso   1.00
H729   H     0.00638   0.80950   0.57975   0.00000  Uiso   1.00
H730   H     0.45676   0.84590   0.58329   0.00000  Uiso   1.00
H731   H     0.02489   0.89085   0.60894   0.00000  Uiso   1.00
H732   H     0.49836   0.91628   0.55398   0.00000  Uiso   1.00
H733   H     0.04746   0.87977   0.55003   0.00000  Uiso   1.00
H734   H     0.38722   0.67281   0.49020   0.00000  Uiso   1.00
H735   H     0.05110   0.73211   0.62399   0.00000  Uiso   1.00
H736   H     0.07700   0.67363   0.61982   0.00000  Uiso   1.00
H737   H     0.02651   0.67541   0.35373   0.00000  Uiso   1.00
H738   H     0.48093   0.69299   0.64524   0.00000  Uiso   1.00
H739   H     0.00627   0.63484   0.63973   0.00000  Uiso   1.00
H740   H     0.25478   0.99078   0.59763   0.00000  Uiso   1.00
H741   H     0.26581   0.54756   0.62799   0.00000  Uiso   1.00
H742   H     0.33092   0.96282   0.62735   0.00000  Uiso   1.00
H743   H     0.29470   0.97513   0.34259   0.00000  Uiso   1.00
H744   H     0.33742   0.51752   0.66217   0.00000  Uiso   1.00
H745   H     0.39146   0.82555   0.50817   0.00000  Uiso   1.00
H746   H     0.17652   0.99700   0.55675   0.00000  Uiso   1.00
H747   H     0.15271   0.93735   0.55327   0.00000  Uiso   1.00
H748   H     0.09600   0.99859   0.56816   0.00000  Uiso   1.00
H749   H     0.10907   0.52960   0.51255   0.00000  Uiso   1.00
H750   H     0.08528   0.97024   0.50929   0.00000  Uiso   1.00
H751   H     0.24552   0.99101   0.40290   0.00000  Uiso   1.00
H752   H     0.23409   0.54777   0.37238   0.00000  Uiso   1.00
H753   H     0.20542   0.97532   0.65808   0.00000  Uiso   1.00
H754   H     0.16951   0.96254   0.37355   0.00000  Uiso   1.00
H755   H     0.16250   0.51730   0.33864   0.00000  Uiso   1.00
H756   H     0.11640   0.69573   0.55611   0.00000  Uiso   1.00
H757   H     0.32295   0.99787   0.44555   0.00000  Uiso   1.00
H758   H     0.35037   0.94008   0.44883   0.00000  Uiso   1.00
H759   H     0.40329   0.50611   0.43596   0.00000  Uiso   1.00
H760   H     0.41496   0.97728   0.49458   0.00000  Uiso   1.00
H761   H     0.38726   0.53464   0.49163   0.00000  Uiso   1.00
H762   H     0.49500   0.74279   0.39886   0.00000  Uiso   1.00
H763   H     0.04119   0.77045   0.36946   0.00000  Uiso   1.00
H764   H     0.49322   0.83974   0.34600   0.00000  Uiso   1.00
H765   H     0.46880   0.78436   0.65705   0.00000  Uiso   1.00
H766   H     0.44780   0.81300   0.37695   0.00000  Uiso   1.00
N767   N     0.25000   0.62934   0.50000   0.00000  Uiso   1.00
N768   N     0.25000   0.87065   0.50000   0.00000  Uiso   1.00
O769   O     0.18573   0.79071   0.50000   0.00000  Uiso   1.00
O770   O     0.47443   0.66192   0.48568   0.00000  Uiso   1.00
O771   O     0.47701   0.83301   0.51288   0.00000  Uiso   1.00
O772   O     0.02823   0.68881   0.56538   0.00000  Uiso   1.00
O773   O     0.30484   0.53226   0.56960   0.00000  Uiso   1.00
O774   O     0.16975   0.96730   0.48667   0.00000  Uiso   1.00
O775   O     0.19535   0.53209   0.43099   0.00000  Uiso   1.00
O776   O     0.33058   0.96686   0.51538   0.00000  Uiso   1.00
O777   O     0.31427   0.70928   0.50000   0.00000  Uiso   1.00
O778   O     0.31427   0.79071   0.50000   0.00000  Uiso   1.00
O779   O     0.18573   0.70928   0.50000   0.00000  Uiso   1.00
O780   O     0.25000   0.79071   0.42946   0.00000  Uiso   1.00
O781   O     0.25000   0.70929   0.57054   0.00000  Uiso   1.00
O782   O     0.25000   0.79071   0.57054   0.00000  Uiso   1.00
O783   O     0.25000   0.70929   0.42946   0.00000  Uiso   1.00
O784   O     0.02195   0.80422   0.43244   0.00000  Uiso   1.00
C785   C     0.66517   0.74990   0.49965   0.00000  Uiso   1.00
C786   C     0.78929   0.94568   0.51052   0.00000  Uiso   1.00
C787   C     0.74985   0.75004   0.40692   0.00000  Uiso   1.00
C788   C     0.75012   0.74996   0.59307   0.00000  Uiso   1.00
C789   C     0.75015   0.52747   0.50026   0.00000  Uiso   1.00
C790   C     0.75020   0.97278   0.50035   0.00000  Uiso   1.00
C791   C     0.74993   0.75004   0.35518   0.00000  Uiso   1.00
C792   C     0.75002   0.74994   0.64482   0.00000  Uiso   1.00
C793   C     0.54607   0.77560   0.46540   0.00000  Uiso   1.00
C794   C     0.95200   0.70459   0.49185   0.00000  Uiso   1.00
C795   C     0.95394   0.79057   0.50723   0.00000  Uiso   1.00
C796   C     0.83506   0.74991   0.49987   0.00000  Uiso   1.00
C797   C     0.55000   0.71848   0.53357   0.00000  Uiso   1.00
C798   C     0.59208   0.77761   0.46672   0.00000  Uiso   1.00
C799   C     0.90577   0.70580   0.49359   0.00000  Uiso   1.00
C800   C     0.90787   0.79155   0.50496   0.00000  Uiso   1.00
C801   C     0.59635   0.71876   0.53203   0.00000  Uiso   1.00
C802   C     0.61715   0.74921   0.49977   0.00000  Uiso   1.00
C803   C     0.88354   0.74922   0.49942   0.00000  Uiso   1.00
C804   C     0.52484   0.74662   0.49943   0.00000  Uiso   1.00
C805   C     0.97620   0.74708   0.50012   0.00000  Uiso   1.00
C806   C     0.51096   0.77736   0.38990   0.00000  Uiso   1.00
C807   C     0.77716   0.60458   0.53289   0.00000  Uiso   1.00
C808   C     0.97815   0.80546   0.35706   0.00000  Uiso   1.00
C809   C     0.95959   0.63937   0.44154   0.00000  Uiso   1.00
C810   C     0.99298   0.60128   0.42893   0.00000  Uiso   1.00
C811   C     0.98750   0.84029   0.56326   0.00000  Uiso   1.00
C812   C     0.51636   0.88461   0.56941   0.00000  Uiso   1.00
C813   C     0.54552   0.69387   0.61418   0.00000  Uiso   1.00
C814   C     0.51266   0.67298   0.64868   0.00000  Uiso   1.00
C815   C     0.78101   0.51668   0.60957   0.00000  Uiso   1.00
C816   C     0.81299   0.99155   0.64608   0.00000  Uiso   1.00
C817   C     0.65453   0.97260   0.53436   0.00000  Uiso   1.00
C818   C     0.71393   0.89639   0.48203   0.00000  Uiso   1.00
C819   C     0.60829   0.99413   0.53081   0.00000  Uiso   1.00
C820   C     0.71912   0.51675   0.39096   0.00000  Uiso   1.00
C821   C     0.68716   0.99148   0.35466   0.00000  Uiso   1.00
C822   C     0.84605   0.97467   0.46811   0.00000  Uiso   1.00
C823   C     0.89072   0.99975   0.47293   0.00000  Uiso   1.00
C824   C     0.72289   0.60452   0.46725   0.00000  Uiso   1.00
C825   C     0.78602   0.89602   0.51860   0.00000  Uiso   1.00
C826   C     0.77641   0.55424   0.53521   0.00000  Uiso   1.00
C827   C     0.71100   0.94595   0.49036   0.00000  Uiso   1.00
C828   C     0.72378   0.55417   0.46519   0.00000  Uiso   1.00
Cl829  Cl    0.81446   0.63459   0.57392   0.00000  Uiso   1.00
Cl830  Cl    0.67171   0.87086   0.44407   0.00000  Uiso   1.00
Cl831  Cl    0.68547   0.63449   0.42617   0.00000  Uiso   1.00
Cl832  Cl    0.82680   0.86994   0.55835   0.00000  Uiso   1.00
Cu833  Cu    0.75000   0.79821   0.50000   0.00000  Uiso   1.00
Cu834  Cu    0.75000   0.70178   0.50000   0.00000  Uiso   1.00
H835   H     0.60804   0.79999   0.44060   0.00000  Uiso   1.00
H836   H     0.95644   0.66518   0.41037   0.00000  Uiso   1.00
H837   H     0.92724   0.62141   0.44595   0.00000  Uiso   1.00
H838   H     0.52611   0.61769   0.42522   0.00000  Uiso   1.00
H839   H     0.98228   0.58388   0.39375   0.00000  Uiso   1.00
H840   H     0.99541   0.57376   0.45833   0.00000  Uiso   1.00
H841   H     0.50638   0.80950   0.57975   0.00000  Uiso   1.00
H842   H     0.95676   0.84590   0.58329   0.00000  Uiso   1.00
H843   H     0.52489   0.89085   0.60894   0.00000  Uiso   1.00
H844   H     0.99836   0.91628   0.55398   0.00000  Uiso   1.00
H845   H     0.54746   0.87977   0.55003   0.00000  Uiso   1.00
H846   H     0.88722   0.67281   0.49020   0.00000  Uiso   1.00
H847   H     0.55110   0.73211   0.62399   0.00000  Uiso   1.00
H848   H     0.57700   0.67363   0.61982   0.00000  Uiso   1.00
H849   H     0.52651   0.67541   0.35373   0.00000  Uiso   1.00
H850   H     0.98093   0.69299   0.64524   0.00000  Uiso   1.00
H851   H     0.50627   0.63484   0.63973   0.00000  Uiso   1.00
H852   H     0.75478   0.99078   0.59763   0.00000  Uiso   1.00
H853   H     0.76581   0.54756   0.62799   0.00000  Uiso   1.00
H854   H     0.83092   0.96282   0.62735   0.00000  Uiso   1.00
H855   H     0.79470   0.97513   0.34259   0.00000  Uiso   1.00
H856   H     0.83742   0.51752   0.66217   0.00000  Uiso   1.00
H857   H     0.89146   0.82555   0.50817   0.00000  Uiso   1.00
H858   H     0.67652   0.99700   0.55675   0.00000  Uiso   1.00
H859   H     0.65271   0.93735   0.55327   0.00000  Uiso   1.00
H860   H     0.59600   0.99859   0.56816   0.00000  Uiso   1.00
H861   H     0.60907   0.52960   0.51255   0.00000  Uiso   1.00
H862   H     0.58528   0.97024   0.50929   0.00000  Uiso   1.00
H863   H     0.74552   0.99101   0.40290   0.00000  Uiso   1.00
H864   H     0.73409   0.54777   0.37238   0.00000  Uiso   1.00
H865   H     0.70542   0.97532   0.65808   0.00000  Uiso   1.00
H866   H     0.66951   0.96254   0.37355   0.00000  Uiso   1.00
H867   H     0.66250   0.51730   0.33864   0.00000  Uiso   1.00
H868   H     0.61640   0.69573   0.55611   0.00000  Uiso   1.00
H869   H     0.82295   0.99787   0.44555   0.00000  Uiso   1.00
H870   H     0.85037   0.94008   0.44883   0.00000  Uiso   1.00
H871   H     0.90329   0.50611   0.43596   0.00000  Uiso   1.00
H872   H     0.91496   0.97728   0.49458   0.00000  Uiso   1.00
H873   H     0.88726   0.53464   0.49163   0.00000  Uiso   1.00
H874   H     0.99500   0.74279   0.39886   0.00000  Uiso   1.00
H875   H     0.54119   0.77045   0.36946   0.00000  Uiso   1.00
H876   H     0.99322   0.83974   0.34600   0.00000  Uiso   1.00
H877   H     0.96880   0.78436   0.65705   0.00000  Uiso   1.00
H878   H     0.94780   0.81300   0.37695   0.00000  Uiso   1.00
N879   N     0.75000   0.62934   0.50000   0.00000  Uiso   1.00
N880   N     0.75000   0.87065   0.50000   0.00000  Uiso   1.00
O881   O     0.68573   0.79071   0.50000   0.00000  Uiso   1.00
O882   O     0.97443   0.66192   0.48568   0.00000  Uiso   1.00
O883   O     0.97701   0.83301   0.51288   0.00000  Uiso   1.00
O884   O     0.52823   0.68881   0.56538   0.00000  Uiso   1.00
O885   O     0.80484   0.53226   0.56960   0.00000  Uiso   1.00
O886   O     0.66975   0.96730   0.48667   0.00000  Uiso   1.00
O887   O     0.69535   0.53209   0.43099   0.00000  Uiso   1.00
O888   O     0.83058   0.96686   0.51538   0.00000  Uiso   1.00
O889   O     0.81427   0.70928   0.50000   0.00000  Uiso   1.00
O890   O     0.81427   0.79071   0.50000   0.00000  Uiso   1.00
O891   O     0.68573   0.70928   0.50000   0.00000  Uiso   1.00
O892   O     0.75000   0.79071   0.42946   0.00000  Uiso   1.00
O893   O     0.75000   0.70929   0.57054   0.00000  Uiso   1.00
O894   O     0.75000   0.79071   0.57054   0.00000  Uiso   1.00
O895   O     0.75000   0.70929   0.42946   0.00000  Uiso   1.00
O896   O     0.52195   0.80422   0.43244   0.00000  Uiso   1.00
C897   C     0.16517   0.24990   0.83299   0.00000  Uiso   1.00
C898   C     0.28929   0.44568   0.84385   0.00000  Uiso   1.00
C899   C     0.24985   0.25004   0.74026   0.00000  Uiso   1.00
C900   C     0.25012   0.24996   0.92641   0.00000  Uiso   1.00
C901   C     0.25015   0.02747   0.83360   0.00000  Uiso   1.00
C902   C     0.25020   0.47278   0.83368   0.00000  Uiso   1.00
C903   C     0.24993   0.25004   0.68851   0.00000  Uiso   1.00
C904   C     0.25002   0.24994   0.97815   0.00000  Uiso   1.00
C905   C     0.04607   0.27560   0.79873   0.00000  Uiso   1.00
C906   C     0.45200   0.20459   0.82518   0.00000  Uiso   1.00
C907   C     0.45394   0.29057   0.84057   0.00000  Uiso   1.00
C908   C     0.33506   0.24991   0.83321   0.00000  Uiso   1.00
C909   C     0.05000   0.21848   0.86691   0.00000  Uiso   1.00
C910   C     0.09208   0.27761   0.80005   0.00000  Uiso   1.00
C911   C     0.40577   0.20580   0.82692   0.00000  Uiso   1.00
C912   C     0.40787   0.29155   0.83829   0.00000  Uiso   1.00
C913   C     0.09635   0.21876   0.86536   0.00000  Uiso   1.00
C914   C     0.11715   0.24921   0.83310   0.00000  Uiso   1.00
C915   C     0.38354   0.24922   0.83276   0.00000  Uiso   1.00
C916   C     0.02484   0.24662   0.83276   0.00000  Uiso   1.00
C917   C     0.47620   0.24708   0.83346   0.00000  Uiso   1.00
C918   C     0.01096   0.27736   0.72323   0.00000  Uiso   1.00
C919   C     0.27716   0.10458   0.86622   0.00000  Uiso   1.00
C920   C     0.47815   0.30546   0.69039   0.00000  Uiso   1.00
C921   C     0.45959   0.13937   0.77487   0.00000  Uiso   1.00
C922   C     0.49298   0.10128   0.76226   0.00000  Uiso   1.00
C923   C     0.48750   0.34029   0.89660   0.00000  Uiso   1.00
C924   C     0.01636   0.38461   0.90274   0.00000  Uiso   1.00
C925   C     0.04552   0.19387   0.94751   0.00000  Uiso   1.00
C926   C     0.01266   0.17298   0.98202   0.00000  Uiso   1.00
C927   C     0.28101   0.01668   0.94291   0.00000  Uiso   1.00
C928   C     0.31299   0.49155   0.97941   0.00000  Uiso   1.00
C929   C     0.15453   0.47260   0.86770   0.00000  Uiso   1.00
C930   C     0.21393   0.39639   0.81536   0.00000  Uiso   1.00
C931   C     0.10829   0.49413   0.86414   0.00000  Uiso   1.00
C932   C     0.21912   0.01675   0.72430   0.00000  Uiso   1.00
C933   C     0.18716   0.49148   0.68800   0.00000  Uiso   1.00
C934   C     0.34605   0.47467   0.80145   0.00000  Uiso   1.00
C935   C     0.39072   0.49975   0.80626   0.00000  Uiso   1.00
C936   C     0.22289   0.10452   0.80058   0.00000  Uiso   1.00
C937   C     0.28602   0.39602   0.85194   0.00000  Uiso   1.00
C938   C     0.27641   0.05424   0.86854   0.00000  Uiso   1.00
C939   C     0.21100   0.44595   0.82369   0.00000  Uiso   1.00
C940   C     0.22378   0.05417   0.79852   0.00000  Uiso   1.00
Cl941  Cl    0.31446   0.13459   0.90726   0.00000  Uiso   1.00
Cl942  Cl    0.17171   0.37086   0.77740   0.00000  Uiso   1.00
Cl943  Cl    0.18547   0.13449   0.75950   0.00000  Uiso   1.00
Cl944  Cl    0.32680   0.36994   0.89168   0.00000  Uiso   1.00
Cu945  Cu    0.25000   0.29821   0.83333   0.00000  Uiso   1.00
Cu946  Cu    0.25000   0.20178   0.83333   0.00000  Uiso   1.00
H947   H     0.10804   0.29999   0.77393   0.00000  Uiso   1.00
H948   H     0.45644   0.16518   0.74370   0.00000  Uiso   1.00
H949   H     0.42724   0.12141   0.77928   0.00000  Uiso   1.00
H950   H     0.02611   0.11769   0.75856   0.00000  Uiso   1.00
H951   H     0.48228   0.08388   0.72708   0.00000  Uiso   1.00
H952   H     0.49541   0.07376   0.79166   0.00000  Uiso   1.00
H953   H     0.00638   0.30950   0.91309   0.00000  Uiso   1.00
H954   H     0.45676   0.34590   0.91662   0.00000  Uiso   1.00
H955   H     0.02489   0.39085   0.94227   0.00000  Uiso   1.00
H956   H     0.49836   0.41628   0.88731   0.00000  Uiso   1.00
H957   H     0.04746   0.37977   0.88336   0.00000  Uiso   1.00
H958   H     0.38722   0.17281   0.82353   0.00000  Uiso   1.00
H959   H     0.05110   0.23211   0.95732   0.00000  Uiso   1.00
H960   H     0.07700   0.17363   0.95315   0.00000  Uiso   1.00
H961   H     0.02651   0.17541   0.68707   0.00000  Uiso   1.00
H962   H     0.48093   0.19299   0.97857   0.00000  Uiso   1.00
H963   H     0.00627   0.13484   0.97306   0.00000  Uiso   1.00
H964   H     0.25478   0.49078   0.93097   0.00000  Uiso   1.00
H965   H     0.26581   0.04756   0.96132   0.00000  Uiso   1.00
H966   H     0.33092   0.46282   0.96068   0.00000  Uiso   1.00
H967   H     0.29470   0.47513   0.67592   0.00000  Uiso   1.00
H968   H     0.33742   0.01752   0.99550   0.00000  Uiso   1.00
H969   H     0.39146   0.32555   0.84151   0.00000  Uiso   1.00
H970   H     0.17652   0.49700   0.89009   0.00000  Uiso   1.00
H971   H     0.15271   0.43735   0.88660   0.00000  Uiso   1.00
H972   H     0.09600   0.49859   0.90149   0.00000  Uiso   1.00
H973   H     0.10907   0.02960   0.84588   0.00000  Uiso   1.00
H974   H     0.08528   0.47024   0.84263   0.00000  Uiso   1.00
H975   H     0.24552   0.49101   0.73623   0.00000  Uiso   1.00
H976   H     0.23409   0.04777   0.70571   0.00000  Uiso   1.00
H977   H     0.20542   0.47532   0.99141   0.00000  Uiso   1.00
H978   H     0.16951   0.46254   0.70688   0.00000  Uiso   1.00
H979   H     0.16250   0.01730   0.67198   0.00000  Uiso   1.00
H980   H     0.11640   0.19573   0.88944   0.00000  Uiso   1.00
H981   H     0.32295   0.49787   0.77889   0.00000  Uiso   1.00
H982   H     0.35037   0.44008   0.78217   0.00000  Uiso   1.00
H983   H     0.40329   0.00611   0.76929   0.00000  Uiso   1.00
H984   H     0.41496   0.47728   0.82792   0.00000  Uiso   1.00
H985   H     0.38726   0.03464   0.82497   0.00000  Uiso   1.00
H986   H     0.49500   0.24279   0.73220   0.00000  Uiso   1.00
H987   H     0.04119   0.27045   0.70279   0.00000  Uiso   1.00
H988   H     0.49322   0.33974   0.67933   0.00000  Uiso   1.00
H989   H     0.46880   0.28436   0.99038   0.00000  Uiso   1.00
H990   H     0.44780   0.31300   0.71029   0.00000  Uiso   1.00
N991   N     0.25000   0.12934   0.83333   0.00000  Uiso   1.00
N992   N     0.25000   0.37065   0.83333   0.00000  Uiso   1.00
O993   O     0.18573   0.29071   0.83334   0.00000  Uiso   1.00
O994   O     0.47443   0.16192   0.81901   0.00000  Uiso   1.00
O995   O     0.47701   0.33301   0.84621   0.00000  Uiso   1.00
O996   O     0.02823   0.18881   0.89871   0.00000  Uiso   1.00
O997   O     0.30484   0.03226   0.90293   0.00000  Uiso   1.00
O998   O     0.16975   0.46730   0.82000   0.00000  Uiso   1.00
O999   O     0.19535   0.03209   0.76432   0.00000  Uiso   1.00
O1000  O     0.33058   0.46686   0.84871   0.00000  Uiso   1.00
O1001  O     0.31427   0.20928   0.83333   0.00000  Uiso   1.00
O1002  O     0.31427   0.29071   0.83333   0.00000  Uiso   1.00
O1003  O     0.18573   0.20928   0.83334   0.00000  Uiso   1.00
O1004  O     0.25000   0.29071   0.76280   0.00000  Uiso   1.00
O1005  O     0.25000   0.20929   0.90387   0.00000  Uiso   1.00
O1006  O     0.25000   0.29071   0.90387   0.00000  Uiso   1.00
O1007  O     0.25000   0.20929   0.76280   0.00000  Uiso   1.00
O1008  O     0.02195   0.30422   0.76577   0.00000  Uiso   1.00
C1009  C     0.66517   0.24990   0.83299   0.00000  Uiso   1.00
C1010  C     0.78929   0.44568   0.84385   0.00000  Uiso   1.00
C1011  C     0.74985   0.25004   0.74026   0.00000  Uiso   1.00
C1012  C     0.75012   0.24996   0.92641   0.00000  Uiso   1.00
C1013  C     0.75015   0.02747   0.83360   0.00000  Uiso   1.00
C1014  C     0.75020   0.47278   0.83368   0.00000  Uiso   1.00
C1015  C     0.74993   0.25004   0.68851   0.00000  Uiso   1.00
C1016  C     0.75002   0.24994   0.97815   0.00000  Uiso   1.00
C1017  C     0.54607   0.27560   0.79873   0.00000  Uiso   1.00
C1018  C     0.95200   0.20459   0.82518   0.00000  Uiso   1.00
C1019  C     0.95394   0.29057   0.84057   0.00000  Uiso   1.00
C1020  C     0.83506   0.24991   0.83321   0.00000  Uiso   1.00
C1021  C     0.55000   0.21848   0.86691   0.00000  Uiso   1.00
C1022  C     0.59208   0.27761   0.80005   0.00000  Uiso   1.00
C1023  C     0.90577   0.20580   0.82692   0.00000  Uiso   1.00
C1024  C     0.90787   0.29155   0.83829   0.00000  Uiso   1.00
C1025  C     0.59635   0.21876   0.86536   0.00000  Uiso   1.00
C1026  C     0.61715   0.24921   0.83310   0.00000  Uiso   1.00
C1027  C     0.88354   0.24922   0.83276   0.00000  Uiso   1.00
C1028  C     0.52484   0.24662   0.83276   0.00000  Uiso   1.00
C1029  C     0.97620   0.24708   0.83346   0.00000  Uiso   1.00
C1030  C     0.51096   0.27736   0.72323   0.00000  Uiso   1.00
C1031  C     0.77716   0.10458   0.86622   0.00000  Uiso   1.00
C1032  C     0.97815   0.30546   0.69039   0.00000  Uiso   1.00
C1033  C     0.95959   0.13937   0.77487   0.00000  Uiso   1.00
C1034  C     0.99298   0.10128   0.76226   0.00000  Uiso   1.00
C1035  C     0.98750   0.34029   0.89660   0.00000  Uiso   1.00
C1036  C     0.51636   0.38461   0.90274   0.00000  Uiso   1.00
C1037  C     0.54552   0.19387   0.94751   0.00000  Uiso   1.00
C1038  C     0.51266   0.17298   0.98202   0.00000  Uiso   1.00
C1039  C     0.78101   0.01668   0.94291   0.00000  Uiso   1.00
C1040  C     0.81299   0.49155   0.97941   0.00000  Uiso   1.00
C1041  C     0.65453   0.47260   0.86770   0.00000  Uiso   1.00
C1042  C     0.71393   0.39639   0.81536   0.00000  Uiso   1.00
C1043  C     0.60829   0.49413   0.86414   0.00000  Uiso   1.00
C1044  C     0.71912   0.01675   0.72430   0.00000  Uiso   1.00
C1045  C     0.68716   0.49148   0.68800   0.00000  Uiso   1.00
C1046  C     0.84605   0.47467   0.80145   0.00000  Uiso   1.00
C1047  C     0.89072   0.49975   0.80626   0.00000  Uiso   1.00
C1048  C     0.72289   0.10452   0.80058   0.00000  Uiso   1.00
C1049  C     0.78602   0.39602   0.85194   0.00000  Uiso   1.00
C1050  C     0.77641   0.05424   0.86854   0.00000  Uiso   1.00
C1051  C     0.71100   0.44595   0.82369   0.00000  Uiso   1.00
C1052  C     0.72378   0.05417   0.79852   0.00000  Uiso   1.00
Cl1053 Cl    0.81446   0.13459   0.90726   0.00000  Uiso   1.00
Cl1054 Cl    0.67171   0.37086   0.77740   0.00000  Uiso   1.00
Cl1055 Cl    0.68547   0.13449   0.75950   0.00000  Uiso   1.00
Cl1056 Cl    0.82680   0.36994   0.89168   0.00000  Uiso   1.00
Cu1057 Cu    0.75000   0.29821   0.83333   0.00000  Uiso   1.00
Cu1058 Cu    0.75000   0.20178   0.83333   0.00000  Uiso   1.00
H1059  H     0.60804   0.29999   0.77393   0.00000  Uiso   1.00
H1060  H     0.95644   0.16518   0.74370   0.00000  Uiso   1.00
H1061  H     0.92724   0.12141   0.77928   0.00000  Uiso   1.00
H1062  H     0.52611   0.11769   0.75856   0.00000  Uiso   1.00
H1063  H     0.98228   0.08388   0.72708   0.00000  Uiso   1.00
H1064  H     0.99541   0.07376   0.79166   0.00000  Uiso   1.00
H1065  H     0.50638   0.30950   0.91309   0.00000  Uiso   1.00
H1066  H     0.95676   0.34590   0.91662   0.00000  Uiso   1.00
H1067  H     0.52489   0.39085   0.94227   0.00000  Uiso   1.00
H1068  H     0.99836   0.41628   0.88731   0.00000  Uiso   1.00
H1069  H     0.54746   0.37977   0.88336   0.00000  Uiso   1.00
H1070  H     0.88722   0.17281   0.82353   0.00000  Uiso   1.00
H1071  H     0.55110   0.23211   0.95732   0.00000  Uiso   1.00
H1072  H     0.57700   0.17363   0.95315   0.00000  Uiso   1.00
H1073  H     0.52651   0.17541   0.68707   0.00000  Uiso   1.00
H1074  H     0.98093   0.19299   0.97857   0.00000  Uiso   1.00
H1075  H     0.50627   0.13484   0.97306   0.00000  Uiso   1.00
H1076  H     0.75478   0.49078   0.93097   0.00000  Uiso   1.00
H1077  H     0.76581   0.04756   0.96132   0.00000  Uiso   1.00
H1078  H     0.83092   0.46282   0.96068   0.00000  Uiso   1.00
H1079  H     0.79470   0.47513   0.67592   0.00000  Uiso   1.00
H1080  H     0.83742   0.01752   0.99550   0.00000  Uiso   1.00
H1081  H     0.89146   0.32555   0.84151   0.00000  Uiso   1.00
H1082  H     0.67652   0.49700   0.89009   0.00000  Uiso   1.00
H1083  H     0.65271   0.43735   0.88660   0.00000  Uiso   1.00
H1084  H     0.59600   0.49859   0.90149   0.00000  Uiso   1.00
H1085  H     0.60907   0.02960   0.84588   0.00000  Uiso   1.00
H1086  H     0.58528   0.47024   0.84263   0.00000  Uiso   1.00
H1087  H     0.74552   0.49101   0.73623   0.00000  Uiso   1.00
H1088  H     0.73409   0.04777   0.70571   0.00000  Uiso   1.00
H1089  H     0.70542   0.47532   0.99141   0.00000  Uiso   1.00
H1090  H     0.66951   0.46254   0.70688   0.00000  Uiso   1.00
H1091  H     0.66250   0.01730   0.67198   0.00000  Uiso   1.00
H1092  H     0.61640   0.19573   0.88944   0.00000  Uiso   1.00
H1093  H     0.82295   0.49787   0.77889   0.00000  Uiso   1.00
H1094  H     0.85037   0.44008   0.78217   0.00000  Uiso   1.00
H1095  H     0.90329   0.00611   0.76929   0.00000  Uiso   1.00
H1096  H     0.91496   0.47728   0.82792   0.00000  Uiso   1.00
H1097  H     0.88726   0.03464   0.82497   0.00000  Uiso   1.00
H1098  H     0.99500   0.24279   0.73220   0.00000  Uiso   1.00
H1099  H     0.54119   0.27045   0.70279   0.00000  Uiso   1.00
H1100  H     0.99322   0.33974   0.67933   0.00000  Uiso   1.00
H1101  H     0.96880   0.28436   0.99038   0.00000  Uiso   1.00
H1102  H     0.94780   0.31300   0.71029   0.00000  Uiso   1.00
N1103  N     0.75000   0.12934   0.83333   0.00000  Uiso   1.00
N1104  N     0.75000   0.37065   0.83333   0.00000  Uiso   1.00
O1105  O     0.68573   0.29071   0.83334   0.00000  Uiso   1.00
O1106  O     0.97443   0.16192   0.81901   0.00000  Uiso   1.00
O1107  O     0.97701   0.33301   0.84621   0.00000  Uiso   1.00
O1108  O     0.52823   0.18881   0.89871   0.00000  Uiso   1.00
O1109  O     0.80484   0.03226   0.90293   0.00000  Uiso   1.00
O1110  O     0.66975   0.46730   0.82000   0.00000  Uiso   1.00
O1111  O     0.69535   0.03209   0.76432   0.00000  Uiso   1.00
O1112  O     0.83058   0.46686   0.84871   0.00000  Uiso   1.00
O1113  O     0.81427   0.20928   0.83333   0.00000  Uiso   1.00
O1114  O     0.81427   0.29071   0.83333   0.00000  Uiso   1.00
O1115  O     0.68573   0.20928   0.83334   0.00000  Uiso   1.00
O1116  O     0.75000   0.29071   0.76280   0.00000  Uiso   1.00
O1117  O     0.75000   0.20929   0.90387   0.00000  Uiso   1.00
O1118  O     0.75000   0.29071   0.90387   0.00000  Uiso   1.00
O1119  O     0.75000   0.20929   0.76280   0.00000  Uiso   1.00
O1120  O     0.52195   0.30422   0.76577   0.00000  Uiso   1.00
C1121  C     0.16517   0.74990   0.83299   0.00000  Uiso   1.00
C1122  C     0.28929   0.94568   0.84385   0.00000  Uiso   1.00
C1123  C     0.24985   0.75004   0.74026   0.00000  Uiso   1.00
C1124  C     0.25012   0.74996   0.92641   0.00000  Uiso   1.00
C1125  C     0.25015   0.52747   0.83360   0.00000  Uiso   1.00
C1126  C     0.25020   0.97278   0.83368   0.00000  Uiso   1.00
C1127  C     0.24993   0.75004   0.68851   0.00000  Uiso   1.00
C1128  C     0.25002   0.74994   0.97815   0.00000  Uiso   1.00
C1129  C     0.04607   0.77560   0.79873   0.00000  Uiso   1.00
C1130  C     0.45200   0.70459   0.82518   0.00000  Uiso   1.00
C1131  C     0.45394   0.79057   0.84057   0.00000  Uiso   1.00
C1132  C     0.33506   0.74991   0.83321   0.00000  Uiso   1.00
C1133  C     0.05000   0.71848   0.86691   0.00000  Uiso   1.00
C1134  C     0.09208   0.77761   0.80005   0.00000  Uiso   1.00
C1135  C     0.40577   0.70580   0.82692   0.00000  Uiso   1.00
C1136  C     0.40787   0.79155   0.83829   0.00000  Uiso   1.00
C1137  C     0.09635   0.71876   0.86536   0.00000  Uiso   1.00
C1138  C     0.11715   0.74921   0.83310   0.00000  Uiso   1.00
C1139  C     0.38354   0.74922   0.83276   0.00000  Uiso   1.00
C1140  C     0.02484   0.74662   0.83276   0.00000  Uiso   1.00
C1141  C     0.47620   0.74708   0.83346   0.00000  Uiso   1.00
C1142  C     0.01096   0.77736   0.72323   0.00000  Uiso   1.00
C1143  C     0.27716   0.60458   0.86622   0.00000  Uiso   1.00
C1144  C     0.47815   0.80546   0.69039   0.00000  Uiso   1.00
C1145  C     0.45959   0.63937   0.77487   0.00000  Uiso   1.00
C1146  C     0.49298   0.60128   0.76226   0.00000  Uiso   1.00
C1147  C     0.48750   0.84029   0.89660   0.00000  Uiso   1.00
C1148  C     0.01636   0.88461   0.90274   0.00000  Uiso   1.00
C1149  C     0.04552   0.69387   0.94751   0.00000  Uiso   1.00
C1150  C     0.01266   0.67298   0.98202   0.00000  Uiso   1.00
C1151  C     0.28101   0.51668   0.94291   0.00000  Uiso   1.00
C1152  C     0.31299   0.99155   0.97941   0.00000  Uiso   1.00
C1153  C     0.15453   0.97260   0.86770   0.00000  Uiso   1.00
C1154  C     0.21393   0.89639   0.81536   0.00000  Uiso   1.00
C1155  C     0.10829   0.99413   0.86414   0.00000  Uiso   1.00
C1156  C     0.21912   0.51675   0.72430   0.00000  Uiso   1.00
C1157  C     0.18716   0.99148   0.68800   0.00000  Uiso   1.00
C1158  C     0.34605   0.97467   0.80145   0.00000  Uiso   1.00
C1159  C     0.39072   0.99975   0.80626   0.00000  Uiso   1.00
C1160  C     0.22289   0.60452   0.80058   0.00000  Uiso   1.00
C1161  C     0.28602   0.89602   0.85194   0.00000  Uiso   1.00
C1162  C     0.27641   0.55424   0.86854   0.00000  Uiso   1.00
C1163  C     0.21100   0.94595   0.82369   0.00000  Uiso   1.00
C1164  C     0.22378   0.55417   0.79852   0.00000  Uiso   1.00
Cl1165 Cl    0.31446   0.63459   0.90726   0.00000  Uiso   1.00
Cl1166 Cl    0.17171   0.87086   0.77740   0.00000  Uiso   1.00
Cl1167 Cl    0.18547   0.63449   0.75950   0.00000  Uiso   1.00
Cl1168 Cl    0.32680   0.86994   0.89168   0.00000  Uiso   1.00
Cu1169 Cu    0.25000   0.79821   0.83333   0.00000  Uiso   1.00
Cu1170 Cu    0.25000   0.70178   0.83333   0.00000  Uiso   1.00
H1171  H     0.10804   0.79999   0.77393   0.00000  Uiso   1.00
H1172  H     0.45644   0.66518   0.74370   0.00000  Uiso   1.00
H1173  H     0.42724   0.62141   0.77928   0.00000  Uiso   1.00
H1174  H     0.02611   0.61769   0.75856   0.00000  Uiso   1.00
H1175  H     0.48228   0.58388   0.72708   0.00000  Uiso   1.00
H1176  H     0.49541   0.57376   0.79166   0.00000  Uiso   1.00
H1177  H     0.00638   0.80950   0.91309   0.00000  Uiso   1.00
H1178  H     0.45676   0.84590   0.91662   0.00000  Uiso   1.00
H1179  H     0.02489   0.89085   0.94227   0.00000  Uiso   1.00
H1180  H     0.49836   0.91628   0.88731   0.00000  Uiso   1.00
H1181  H     0.04746   0.87977   0.88336   0.00000  Uiso   1.00
H1182  H     0.38722   0.67281   0.82353   0.00000  Uiso   1.00
H1183  H     0.05110   0.73211   0.95732   0.00000  Uiso   1.00
H1184  H     0.07700   0.67363   0.95315   0.00000  Uiso   1.00
H1185  H     0.02651   0.67541   0.68707   0.00000  Uiso   1.00
H1186  H     0.48093   0.69299   0.97857   0.00000  Uiso   1.00
H1187  H     0.00627   0.63484   0.97306   0.00000  Uiso   1.00
H1188  H     0.25478   0.99078   0.93097   0.00000  Uiso   1.00
H1189  H     0.26581   0.54756   0.96132   0.00000  Uiso   1.00
H1190  H     0.33092   0.96282   0.96068   0.00000  Uiso   1.00
H1191  H     0.29470   0.97513   0.67592   0.00000  Uiso   1.00
H1192  H     0.33742   0.51752   0.99550   0.00000  Uiso   1.00
H1193  H     0.39146   0.82555   0.84151   0.00000  Uiso   1.00
H1194  H     0.17652   0.99700   0.89009   0.00000  Uiso   1.00
H1195  H     0.15271   0.93735   0.88660   0.00000  Uiso   1.00
H1196  H     0.09600   0.99859   0.90149   0.00000  Uiso   1.00
H1197  H     0.10907   0.52960   0.84588   0.00000  Uiso   1.00
H1198  H     0.08528   0.97024   0.84263   0.00000  Uiso   1.00
H1199  H     0.24552   0.99101   0.73623   0.00000  Uiso   1.00
H1200  H     0.23409   0.54777   0.70571   0.00000  Uiso   1.00
H1201  H     0.20542   0.97532   0.99141   0.00000  Uiso   1.00
H1202  H     0.16951   0.96254   0.70688   0.00000  Uiso   1.00
H1203  H     0.16250   0.51730   0.67198   0.00000  Uiso   1.00
H1204  H     0.11640   0.69573   0.88944   0.00000  Uiso   1.00
H1205  H     0.32295   0.99787   0.77889   0.00000  Uiso   1.00
H1206  H     0.35037   0.94008   0.78217   0.00000  Uiso   1.00
H1207  H     0.40329   0.50611   0.76929   0.00000  Uiso   1.00
H1208  H     0.41496   0.97728   0.82792   0.00000  Uiso   1.00
H1209  H     0.38726   0.53464   0.82497   0.00000  Uiso   1.00
H1210  H     0.49500   0.74279   0.73220   0.00000  Uiso   1.00
H1211  H     0.04119   0.77045   0.70279   0.00000  Uiso   1.00
H1212  H     0.49322   0.83974   0.67933   0.00000  Uiso   1.00
H1213  H     0.46880   0.78436   0.99038   0.00000  Uiso   1.00
H1214  H     0.44780   0.81300   0.71029   0.00000  Uiso   1.00
N1215  N     0.25000   0.62934   0.83333   0.00000  Uiso   1.00
N1216  N     0.25000   0.87065   0.83333   0.00000  Uiso   1.00
O1217  O     0.18573   0.79071   0.83334   0.00000  Uiso   1.00
O1218  O     0.47443   0.66192   0.81901   0.00000  Uiso   1.00
O1219  O     0.47701   0.83301   0.84621   0.00000  Uiso   1.00
O1220  O     0.02823   0.68881   0.89871   0.00000  Uiso   1.00
O1221  O     0.30484   0.53226   0.90293   0.00000  Uiso   1.00
O1222  O     0.16975   0.96730   0.82000   0.00000  Uiso   1.00
O1223  O     0.19535   0.53209   0.76432   0.00000  Uiso   1.00
O1224  O     0.33058   0.96686   0.84871   0.00000  Uiso   1.00
O1225  O     0.31427   0.70928   0.83333   0.00000  Uiso   1.00
O1226  O     0.31427   0.79071   0.83333   0.00000  Uiso   1.00
O1227  O     0.18573   0.70928   0.83334   0.00000  Uiso   1.00
O1228  O     0.25000   0.79071   0.76280   0.00000  Uiso   1.00
O1229  O     0.25000   0.70929   0.90387   0.00000  Uiso   1.00
O1230  O     0.25000   0.79071   0.90387   0.00000  Uiso   1.00
O1231  O     0.25000   0.70929   0.76280   0.00000  Uiso   1.00
O1232  O     0.02195   0.80422   0.76577   0.00000  Uiso   1.00
C1233  C     0.66517   0.74990   0.83299   0.00000  Uiso   1.00
C1234  C     0.78929   0.94568   0.84385   0.00000  Uiso   1.00
C1235  C     0.74985   0.75004   0.74026   0.00000  Uiso   1.00
C1236  C     0.75012   0.74996   0.92641   0.00000  Uiso   1.00
C1237  C     0.75015   0.52747   0.83360   0.00000  Uiso   1.00
C1238  C     0.75020   0.97278   0.83368   0.00000  Uiso   1.00
C1239  C     0.74993   0.75004   0.68851   0.00000  Uiso   1.00
C1240  C     0.75002   0.74994   0.97815   0.00000  Uiso   1.00
C1241  C     0.54607   0.77560   0.79873   0.00000  Uiso   1.00
C1242  C     0.95200   0.70459   0.82518   0.00000  Uiso   1.00
C1243  C     0.95394   0.79057   0.84057   0.00000  Uiso   1.00
C1244  C     0.83506   0.74991   0.83321   0.00000  Uiso   1.00
C1245  C     0.55000   0.71848   0.86691   0.00000  Uiso   1.00
C1246  C     0.59208   0.77761   0.80005   0.00000  Uiso   1.00
C1247  C     0.90577   0.70580   0.82692   0.00000  Uiso   1.00
C1248  C     0.90787   0.79155   0.83829   0.00000  Uiso   1.00
C1249  C     0.59635   0.71876   0.86536   0.00000  Uiso   1.00
C1250  C     0.61715   0.74921   0.83310   0.00000  Uiso   1.00
C1251  C     0.88354   0.74922   0.83276   0.00000  Uiso   1.00
C1252  C     0.52484   0.74662   0.83276   0.00000  Uiso   1.00
C1253  C     0.97620   0.74708   0.83346   0.00000  Uiso   1.00
C1254  C     0.51096   0.77736   0.72323   0.00000  Uiso   1.00
C1255  C     0.77716   0.60458   0.86622   0.00000  Uiso   1.00
C1256  C     0.97815   0.80546   0.69039   0.00000  Uiso   1.00
C1257  C     0.95959   0.63937   0.77487   0.00000  Uiso   1.00
C1258  C     0.99298   0.60128   0.76226   0.00000  Uiso   1.00
C1259  C     0.98750   0.84029   0.89660   0.00000  Uiso   1.00
C1260  C     0.51636   0.88461   0.90274   0.00000  Uiso   1.00
C1261  C     0.54552   0.69387   0.94751   0.00000  Uiso   1.00
C1262  C     0.51266   0.67298   0.98202   0.00000  Uiso   1.00
C1263  C     0.78101   0.51668   0.94291   0.00000  Uiso   1.00
C1264  C     0.81299   0.99155   0.97941   0.00000  Uiso   1.00
C1265  C     0.65453   0.97260   0.86770   0.00000  Uiso   1.00
C1266  C     0.71393   0.89639   0.81536   0.00000  Uiso   1.00
C1267  C     0.60829   0.99413   0.86414   0.00000  Uiso   1.00
C1268  C     0.71912   0.51675   0.72430   0.00000  Uiso   1.00
C1269  C     0.68716   0.99148   0.68800   0.00000  Uiso   1.00
C1270  C     0.84605   0.97467   0.80145   0.00000  Uiso   1.00
C1271  C     0.89072   0.99975   0.80626   0.00000  Uiso   1.00
C1272  C     0.72289   0.60452   0.80058   0.00000  Uiso   1.00
C1273  C     0.78602   0.89602   0.85194   0.00000  Uiso   1.00
C1274  C     0.77641   0.55424   0.86854   0.00000  Uiso   1.00
C1275  C     0.71100   0.94595   0.82369   0.00000  Uiso   1.00
C1276  C     0.72378   0.55417   0.79852   0.00000  Uiso   1.00
Cl1277 Cl    0.81446   0.63459   0.90726   0.00000  Uiso   1.00
Cl1278 Cl    0.67171   0.87086   0.77740   0.00000  Uiso   1.00
Cl1279 Cl    0.68547   0.63449   0.75950   0.00000  Uiso   1.00
Cl1280 Cl    0.82680   0.86994   0.89168   0.00000  Uiso   1.00
Cu1281 Cu    0.75000   0.79821   0.83333   0.00000  Uiso   1.00
Cu1282 Cu    0.75000   0.70178   0.83333   0.00000  Uiso   1.00
H1283  H     0.60804   0.79999   0.77393   0.00000  Uiso   1.00
H1284  H     0.95644   0.66518   0.74370   0.00000  Uiso   1.00
H1285  H     0.92724   0.62141   0.77928   0.00000  Uiso   1.00
H1286  H     0.52611   0.61769   0.75856   0.00000  Uiso   1.00
H1287  H     0.98228   0.58388   0.72708   0.00000  Uiso   1.00
H1288  H     0.99541   0.57376   0.79166   0.00000  Uiso   1.00
H1289  H     0.50638   0.80950   0.91309   0.00000  Uiso   1.00
H1290  H     0.95676   0.84590   0.91662   0.00000  Uiso   1.00
H1291  H     0.52489   0.89085   0.94227   0.00000  Uiso   1.00
H1292  H     0.99836   0.91628   0.88731   0.00000  Uiso   1.00
H1293  H     0.54746   0.87977   0.88336   0.00000  Uiso   1.00
H1294  H     0.88722   0.67281   0.82353   0.00000  Uiso   1.00
H1295  H     0.55110   0.73211   0.95732   0.00000  Uiso   1.00
H1296  H     0.57700   0.67363   0.95315   0.00000  Uiso   1.00
H1297  H     0.52651   0.67541   0.68707   0.00000  Uiso   1.00
H1298  H     0.98093   0.69299   0.97857   0.00000  Uiso   1.00
H1299  H     0.50627   0.63484   0.97306   0.00000  Uiso   1.00
H1300  H     0.75478   0.99078   0.93097   0.00000  Uiso   1.00
H1301  H     0.76581   0.54756   0.96132   0.00000  Uiso   1.00
H1302  H     0.83092   0.96282   0.96068   0.00000  Uiso   1.00
H1303  H     0.79470   0.97513   0.67592   0.00000  Uiso   1.00
H1304  H     0.83742   0.51752   0.99550   0.00000  Uiso   1.00
H1305  H     0.89146   0.82555   0.84151   0.00000  Uiso   1.00
H1306  H     0.67652   0.99700   0.89009   0.00000  Uiso   1.00
H1307  H     0.65271   0.93735   0.88660   0.00000  Uiso   1.00
H1308  H     0.59600   0.99859   0.90149   0.00000  Uiso   1.00
H1309  H     0.60907   0.52960   0.84588   0.00000  Uiso   1.00
H1310  H     0.58528   0.97024   0.84263   0.00000  Uiso   1.00
H1311  H     0.74552   0.99101   0.73623   0.00000  Uiso   1.00
H1312  H     0.73409   0.54777   0.70571   0.00000  Uiso   1.00
H1313  H     0.70542   0.97532   0.99141   0.00000  Uiso   1.00
H1314  H     0.66951   0.96254   0.70688   0.00000  Uiso   1.00
H1315  H     0.66250   0.51730   0.67198   0.00000  Uiso   1.00
H1316  H     0.61640   0.69573   0.88944   0.00000  Uiso   1.00
H1317  H     0.82295   0.99787   0.77889   0.00000  Uiso   1.00
H1318  H     0.85037   0.94008   0.78217   0.00000  Uiso   1.00
H1319  H     0.90329   0.50611   0.76929   0.00000  Uiso   1.00
H1320  H     0.91496   0.97728   0.82792   0.00000  Uiso   1.00
H1321  H     0.88726   0.53464   0.82497   0.00000  Uiso   1.00
H1322  H     0.99500   0.74279   0.73220   0.00000  Uiso   1.00
H1323  H     0.54119   0.77045   0.70279   0.00000  Uiso   1.00
H1324  H     0.99322   0.83974   0.67933   0.00000  Uiso   1.00
H1325  H     0.96880   0.78436   0.99038   0.00000  Uiso   1.00
H1326  H     0.94780   0.81300   0.71029   0.00000  Uiso   1.00
N1327  N     0.75000   0.62934   0.83333   0.00000  Uiso   1.00
N1328  N     0.75000   0.87065   0.83333   0.00000  Uiso   1.00
O1329  O     0.68573   0.79071   0.83334   0.00000  Uiso   1.00
O1330  O     0.97443   0.66192   0.81901   0.00000  Uiso   1.00
O1331  O     0.97701   0.83301   0.84621   0.00000  Uiso   1.00
O1332  O     0.52823   0.68881   0.89871   0.00000  Uiso   1.00
O1333  O     0.80484   0.53226   0.90293   0.00000  Uiso   1.00
O1334  O     0.66975   0.96730   0.82000   0.00000  Uiso   1.00
O1335  O     0.69535   0.53209   0.76432   0.00000  Uiso   1.00
O1336  O     0.83058   0.96686   0.84871   0.00000  Uiso   1.00
O1337  O     0.81427   0.70928   0.83333   0.00000  Uiso   1.00
O1338  O     0.81427   0.79071   0.83333   0.00000  Uiso   1.00
O1339  O     0.68573   0.70928   0.83334   0.00000  Uiso   1.00
O1340  O     0.75000   0.79071   0.76280   0.00000  Uiso   1.00
O1341  O     0.75000   0.70929   0.90387   0.00000  Uiso   1.00
O1342  O     0.75000   0.79071   0.90387   0.00000  Uiso   1.00
O1343  O     0.75000   0.70929   0.76280   0.00000  Uiso   1.00
O1344  O     0.52195   0.80422   0.76577   0.00000  Uiso   1.00
loop_
_geom_bond_atom_site_label_1
_geom_bond_atom_site_label_2
_geom_bond_distance
_geom_bond_site_symmetry_2
_ccdc_geom_bond_type
C1     C18     1.451   .     S
C1     O97     1.300   .     A
C1     O107    1.296   .     A
C2     C41     1.411   .     A
C2     C6      1.419   .     A
C2     O104    1.381   .     S
C3     C7      1.412   .     S
C3     O111    1.295   .     A
C3     O108    1.296   .     A
C4     O109    1.296   .     A
C4     C8      1.412   .     S
C4     O110    1.295   .     A
C5     C44     1.423   .     A
C5     C42     1.423   .     A
C5     C230    1.531   1_545 S
C6     C43     1.417   .     A
C6     C229    1.531   .     S
C7     C904    1.193   1_554 S
C8     C455    1.193   .     S
C9     O112    1.382   .     S
C9     C14     1.390   .     A
C9     C20     1.411   .     A
C10    C15     1.401   .     A
C10    O98     1.389   .     S
C10    C21     1.409   .     A
C11    O99     1.382   .     S
C11    C21     1.410   .     A
C11    C16     1.391   .     A
C12    O105    1.299   .     A
C12    O106    1.304   .     A
C12    C19     1.466   .     S
C13    C20     1.410   .     A
C13    C17     1.404   .     A
C13    O100    1.390   .     S
C14    C18     1.394   .     A
C14    H51     1.080   .     S
C15    C19     1.403   .     A
C15    H62     1.082   .     S
C16    H73     1.079   .     S
C16    C19     1.399   .     A
C17    C18     1.397   .     A
C17    H84     1.082   .     S
C20    C133    1.471   1_455 S
C21    C132    1.471   .     S
C22    H91     1.113   .     S
C22    O112    1.410   .     S
C22    C136    1.519   1_455 S
C22    H202    1.114   1_455 S
C23    Cl45    1.761   .     S
C23    C42     1.411   .     A
C23    N95     1.371   .     A
C24    H92     1.110   .     S
C24    H94     1.111   .     S
C24    C134    1.519   .     S
C24    H989    1.110   1_554 S
C25    H53     1.112   .     S
C25    C26     1.521   .     S
C25    H52     1.115   .     S
C25    O98     1.413   .     S
C26    H55     1.111   .     S
C26    H56     1.111   .     S
C26    H166    1.111   .     S
C27    O99     1.410   .     S
C27    H58     1.114   .     S
C27    C140    1.521   .     S
C27    H169    1.115   .     S
C28    H61     1.111   .     S
C28    H59     1.110   .     S
C28    C139    1.521   1_455 S
C28    H172    1.111   1_455 S
C29    H63     1.115   .     S
C29    O100    1.412   .     S
C29    H64     1.111   .     S
C29    C30     1.520   .     S
C30    H67     1.111   .     S
C30    H513    1.109   .     S
C30    H178    1.111   1_455 S
C31    O101    1.407   .     S
C31    H69     1.113   .     S
C31    C256    1.522   1_545 S
C31    H292    1.111   1_545 S
C32    H70     1.111   .     S
C32    C255    1.522   .     S
C32    H519    1.107   .     S
C32    H296    1.111   .     S
C33    H75     1.115   .     S
C33    O102    1.411   .     S
C33    H74     1.114   .     S
C33    C35     1.520   .     S
C34    Cl46    1.754   .     S
C34    C43     1.410   .     A
C34    N96     1.375   .     A
C35    H76     1.111   .     S
C35    H78     1.111   .     S
C35    H301    1.111   .     S
C36    O103    1.407   .     S
C36    H80     1.113   .     S
C36    C261    1.522   1_545 S
C36    H303    1.111   1_545 S
C37    H82     1.111   .     S
C37    C260    1.522   .     S
C37    H977    1.107   1_554 S
C37    H307    1.111   .     S
C38    H86     1.114   .     S
C38    O104    1.412   .     S
C38    H85     1.114   .     S
C38    C39     1.521   .     S
C39    H88     1.111   .     S
C39    H311    1.111   .     S
C39    H313    1.111   .     S
C40    Cl47    1.761   .     S
C40    N95     1.371   .     A
C40    C44     1.411   .     A
C41    N96     1.375   .     A
C41    Cl48    1.756   .     S
C42    O101    1.382   .     S
C43    O102    1.381   .     S
C44    O103    1.382   .     S
Cu49   O108    1.937   .     S
Cu49   O106    1.954   .     S
Cu49   N96     2.028   .     S
Cu49   O97     1.954   .     S
Cu49   Cu50    2.700   .     S
Cu49   O110    1.936   .     S
Cu50   N95     2.028   .     S
Cu50   O105    1.954   .     S
Cu50   O109    1.937   .     S
Cu50   O107    1.954   .     S
Cu50   O111    1.936   .     S
H54    C138    1.111   1_455 S
H57    C139    1.115   1_455 S
H60    C140    1.111   .     S
H65    C926    1.109   1_554 S
H66    C142    1.111   .     S
H68    C255    1.111   .     S
H71    C928    1.107   1_554 S
H72    C256    1.111   1_545 S
H77    C259    1.111   1_545 S
H79    C260    1.111   .     S
H81    C485    1.107   .     S
H83    C261    1.111   1_545 S
H87    C263    1.111   1_545 S
H89    C263    1.111   1_545 S
H90    C134    1.114   .     S
H93    C472    1.110   .     S
C113   C130    1.451   .     S
C113   O209    1.300   .     A
C113   O219    1.296   .     A
C114   C153    1.411   .     A
C114   C118    1.419   .     A
C114   O216    1.381   .     S
C115   C119    1.412   .     S
C115   O223    1.295   .     A
C115   O220    1.296   .     A
C116   O221    1.296   .     A
C116   C120    1.412   .     S
C116   O222    1.295   .     A
C117   C156    1.423   .     A
C117   C154    1.423   .     A
C117   C342    1.531   1_545 S
C118   C155    1.417   .     A
C118   C341    1.531   .     S
C119   C1016   1.193   1_554 S
C120   C567    1.193   .     S
C121   O224    1.382   .     S
C121   C126    1.390   .     A
C121   C132    1.411   .     A
C122   C127    1.401   .     A
C122   O210    1.389   .     S
C122   C133    1.409   .     A
C123   O211    1.382   .     S
C123   C133    1.410   .     A
C123   C128    1.391   .     A
C124   O217    1.299   .     A
C124   O218    1.304   .     A
C124   C131    1.466   .     S
C125   C132    1.410   .     A
C125   C129    1.404   .     A
C125   O212    1.390   .     S
C126   C130    1.394   .     A
C126   H163    1.080   .     S
C127   C131    1.403   .     A
C127   H174    1.082   .     S
C128   H185    1.079   .     S
C128   C131    1.399   .     A
C129   C130    1.397   .     A
C129   H196    1.082   .     S
C133   C20     1.471   1_655 S
C134   H203    1.113   .     S
C134   O224    1.410   .     S
C135   Cl157   1.761   .     S
C135   C154    1.411   .     A
C135   N207    1.371   .     A
C136   H204    1.110   .     S
C136   H206    1.111   .     S
C136   C22     1.519   1_655 S
C136   H1101   1.110   1_554 S
C137   H165    1.112   .     S
C137   C138    1.521   .     S
C137   H164    1.115   .     S
C137   O210    1.413   .     S
C138   H167    1.111   .     S
C138   H168    1.111   .     S
C138   H54     1.111   1_655 S
C139   O211    1.410   .     S
C139   H170    1.114   .     S
C139   C28     1.521   1_655 S
C139   H57     1.115   1_655 S
C140   H173    1.111   .     S
C140   H171    1.110   .     S
C141   H175    1.115   .     S
C141   O212    1.412   .     S
C141   H176    1.111   .     S
C141   C142    1.520   .     S
C142   H179    1.111   .     S
C142   H625    1.109   .     S
C143   O213    1.407   .     S
C143   H181    1.113   .     S
C143   C368    1.522   1_545 S
C143   H404    1.111   1_545 S
C144   H182    1.111   .     S
C144   C367    1.522   .     S
C144   H631    1.107   .     S
C144   H408    1.111   .     S
C145   H187    1.115   .     S
C145   O214    1.411   .     S
C145   H186    1.114   .     S
C145   C147    1.520   .     S
C146   Cl158   1.754   .     S
C146   C155    1.410   .     A
C146   N208    1.375   .     A
C147   H188    1.111   .     S
C147   H190    1.111   .     S
C147   H413    1.111   .     S
C148   O215    1.407   .     S
C148   H192    1.113   .     S
C148   C373    1.522   1_545 S
C148   H415    1.111   1_545 S
C149   H194    1.111   .     S
C149   C372    1.522   .     S
C149   H1089   1.107   1_554 S
C149   H419    1.111   .     S
C150   H198    1.114   .     S
C150   O216    1.412   .     S
C150   H197    1.114   .     S
C150   C151    1.521   .     S
C151   H200    1.111   .     S
C151   H423    1.111   .     S
C151   H425    1.111   .     S
C152   Cl159   1.761   .     S
C152   N207    1.371   .     A
C152   C156    1.411   .     A
C153   N208    1.375   .     A
C153   Cl160   1.756   .     S
C154   O213    1.382   .     S
C155   O214    1.381   .     S
C156   O215    1.382   .     S
Cu161  O220    1.937   .     S
Cu161  O218    1.954   .     S
Cu161  N208    2.028   .     S
Cu161  O209    1.954   .     S
Cu161  Cu162   2.700   .     S
Cu161  O222    1.936   .     S
Cu162  N207    2.028   .     S
Cu162  O217    1.954   .     S
Cu162  O221    1.937   .     S
Cu162  O219    1.954   .     S
Cu162  O223    1.936   .     S
H172   C28     1.111   1_655 S
H177   C1038   1.109   1_554 S
H178   C30     1.111   1_655 S
H180   C367    1.111   .     S
H183   C1040   1.107   1_554 S
H184   C368    1.111   1_545 S
H189   C371    1.111   1_545 S
H191   C372    1.111   .     S
H193   C597    1.107   .     S
H195   C373    1.111   1_545 S
H199   C375    1.111   1_545 S
H201   C375    1.111   1_545 S
H202   C22     1.114   1_655 S
H205   C584    1.110   .     S
C225   C242    1.451   .     S
C225   O321    1.300   .     A
C225   O331    1.296   .     A
C226   C265    1.411   .     A
C226   C230    1.419   .     A
C226   O328    1.381   .     S
C227   C231    1.412   .     S
C227   O335    1.295   .     A
C227   O332    1.296   .     A
C228   O333    1.296   .     A
C228   C232    1.412   .     S
C228   O334    1.295   .     A
C229   C268    1.423   .     A
C229   C266    1.423   .     A
C230   C267    1.417   .     A
C230   C5      1.531   1_565 S
C231   C1128   1.193   1_554 S
C232   C679    1.193   .     S
C233   O336    1.382   .     S
C233   C238    1.390   .     A
C233   C244    1.411   .     A
C234   C239    1.401   .     A
C234   O322    1.389   .     S
C234   C245    1.409   .     A
C235   O323    1.382   .     S
C235   C245    1.410   .     A
C235   C240    1.391   .     A
C236   O329    1.299   .     A
C236   O330    1.304   .     A
C236   C243    1.466   .     S
C237   C244    1.410   .     A
C237   C241    1.404   .     A
C237   O324    1.390   .     S
C238   C242    1.394   .     A
C238   H275    1.080   .     S
C239   C243    1.403   .     A
C239   H286    1.082   .     S
C240   H297    1.079   .     S
C240   C243    1.399   .     A
C241   C242    1.397   .     A
C241   H308    1.082   .     S
C244   C357    1.471   1_455 S
C245   C356    1.471   .     S
C246   H315    1.113   .     S
C246   O336    1.410   .     S
C246   C360    1.519   1_455 S
C246   H426    1.114   1_455 S
C247   Cl269   1.761   .     S
C247   C266    1.411   .     A
C247   N319    1.371   .     A
C248   H316    1.110   .     S
C248   H318    1.111   .     S
C248   C358    1.519   .     S
C248   H1213   1.110   1_554 S
C249   H277    1.112   .     S
C249   C250    1.521   .     S
C249   H276    1.115   .     S
C249   O322    1.413   .     S
C250   H279    1.111   .     S
C250   H280    1.111   .     S
C250   H390    1.111   .     S
C251   O323    1.410   .     S
C251   H282    1.114   .     S
C251   C364    1.521   .     S
C251   H393    1.115   .     S
C252   H285    1.111   .     S
C252   H283    1.110   .     S
C252   C363    1.521   1_455 S
C252   H396    1.111   1_455 S
C253   H287    1.115   .     S
C253   O324    1.412   .     S
C253   H288    1.111   .     S
C253   C254    1.520   .     S
C254   H291    1.111   .     S
C254   H737    1.109   .     S
C254   H402    1.111   1_455 S
C255   O325    1.407   .     S
C255   H293    1.113   .     S
C256   H294    1.111   .     S
C256   C31     1.522   1_565 S
C256   H743    1.107   .     S
C256   H72     1.111   1_565 S
C257   H299    1.115   .     S
C257   O326    1.411   .     S
C257   H298    1.114   .     S
C257   C259    1.520   .     S
C258   Cl270   1.754   .     S
C258   C267    1.410   .     A
C258   N320    1.375   .     A
C259   H300    1.111   .     S
C259   H302    1.111   .     S
C259   H77     1.111   1_565 S
C260   O327    1.407   .     S
C260   H304    1.113   .     S
C261   H306    1.111   .     S
C261   C36     1.522   1_565 S
C261   H1201   1.107   1_554 S
C261   H83     1.111   1_565 S
C262   H310    1.114   .     S
C262   O328    1.412   .     S
C262   H309    1.114   .     S
C262   C263    1.521   .     S
C263   H312    1.111   .     S
C263   H87     1.111   1_565 S
C263   H89     1.111   1_565 S
C264   Cl271   1.761   .     S
C264   N319    1.371   .     A
C264   C268    1.411   .     A
C265   N320    1.375   .     A
C265   Cl272   1.756   .     S
C266   O325    1.382   .     S
C267   O326    1.381   .     S
C268   O327    1.382   .     S
Cu273  O332    1.937   .     S
Cu273  O330    1.954   .     S
Cu273  N320    2.028   .     S
Cu273  O321    1.954   .     S
Cu273  Cu274   2.700   .     S
Cu273  O334    1.936   .     S
Cu274  N319    2.028   .     S
Cu274  O329    1.954   .     S
Cu274  O333    1.937   .     S
Cu274  O331    1.954   .     S
Cu274  O335    1.936   .     S
H278   C362    1.111   1_455 S
H281   C363    1.115   1_455 S
H284   C364    1.111   .     S
H289   C1150   1.109   1_554 S
H290   C366    1.111   .     S
H292   C31     1.111   1_565 S
H295   C1152   1.107   1_554 S
H303   C36     1.111   1_565 S
H305   C709    1.107   .     S
H314   C358    1.114   .     S
H317   C696    1.110   .     S
C337   C354    1.451   .     S
C337   O433    1.300   .     A
C337   O443    1.296   .     A
C338   C377    1.411   .     A
C338   C342    1.419   .     A
C338   O440    1.381   .     S
C339   C343    1.412   .     S
C339   O447    1.295   .     A
C339   O444    1.296   .     A
C340   O445    1.296   .     A
C340   C344    1.412   .     S
C340   O446    1.295   .     A
C341   C380    1.423   .     A
C341   C378    1.423   .     A
C342   C379    1.417   .     A
C342   C117    1.531   1_565 S
C343   C1240   1.193   1_554 S
C344   C791    1.193   .     S
C345   O448    1.382   .     S
C345   C350    1.390   .     A
C345   C356    1.411   .     A
C346   C351    1.401   .     A
C346   O434    1.389   .     S
C346   C357    1.409   .     A
C347   O435    1.382   .     S
C347   C357    1.410   .     A
C347   C352    1.391   .     A
C348   O441    1.299   .     A
C348   O442    1.304   .     A
C348   C355    1.466   .     S
C349   C356    1.410   .     A
C349   C353    1.404   .     A
C349   O436    1.390   .     S
C350   C354    1.394   .     A
C350   H387    1.080   .     S
C351   C355    1.403   .     A
C351   H398    1.082   .     S
C352   H409    1.079   .     S
C352   C355    1.399   .     A
C353   C354    1.397   .     A
C353   H420    1.082   .     S
C357   C244    1.471   1_655 S
C358   H427    1.113   .     S
C358   O448    1.410   .     S
C359   Cl381   1.761   .     S
C359   C378    1.411   .     A
C359   N431    1.371   .     A
C360   H428    1.110   .     S
C360   H430    1.111   .     S
C360   C246    1.519   1_655 S
C360   H1325   1.110   1_554 S
C361   H389    1.112   .     S
C361   C362    1.521   .     S
C361   H388    1.115   .     S
C361   O434    1.413   .     S
C362   H391    1.111   .     S
C362   H392    1.111   .     S
C362   H278    1.111   1_655 S
C363   O435    1.410   .     S
C363   H394    1.114   .     S
C363   C252    1.521   1_655 S
C363   H281    1.115   1_655 S
C364   H397    1.111   .     S
C364   H395    1.110   .     S
C365   H399    1.115   .     S
C365   O436    1.412   .     S
C365   H400    1.111   .     S
C365   C366    1.520   .     S
C366   H403    1.111   .     S
C366   H849    1.109   .     S
C367   O437    1.407   .     S
C367   H405    1.113   .     S
C368   H406    1.111   .     S
C368   C143    1.522   1_565 S
C368   H855    1.107   .     S
C368   H184    1.111   1_565 S
C369   H411    1.115   .     S
C369   O438    1.411   .     S
C369   H410    1.114   .     S
C369   C371    1.520   .     S
C370   Cl382   1.754   .     S
C370   C379    1.410   .     A
C370   N432    1.375   .     A
C371   H412    1.111   .     S
C371   H414    1.111   .     S
C371   H189    1.111   1_565 S
C372   O439    1.407   .     S
C372   H416    1.113   .     S
C373   H418    1.111   .     S
C373   C148    1.522   1_565 S
C373   H1313   1.107   1_554 S
C373   H195    1.111   1_565 S
C374   H422    1.114   .     S
C374   O440    1.412   .     S
C374   H421    1.114   .     S
C374   C375    1.521   .     S
C375   H424    1.111   .     S
C375   H199    1.111   1_565 S
C375   H201    1.111   1_565 S
C376   Cl383   1.761   .     S
C376   N431    1.371   .     A
C376   C380    1.411   .     A
C377   N432    1.375   .     A
C377   Cl384   1.756   .     S
C378   O437    1.382   .     S
C379   O438    1.381   .     S
C380   O439    1.382   .     S
Cu385  O444    1.937   .     S
Cu385  O442    1.954   .     S
Cu385  N432    2.028   .     S
Cu385  O433    1.954   .     S
Cu385  Cu386   2.700   .     S
Cu385  O446    1.936   .     S
Cu386  N431    2.028   .     S
Cu386  O441    1.954   .     S
Cu386  O445    1.937   .     S
Cu386  O443    1.954   .     S
Cu386  O447    1.936   .     S
H396   C252    1.111   1_655 S
H401   C1262   1.109   1_554 S
H402   C254    1.111   1_655 S
H404   C143    1.111   1_565 S
H407   C1264   1.107   1_554 S
H415   C148    1.111   1_565 S
H417   C821    1.107   .     S
H426   C246    1.114   1_655 S
H429   C808    1.110   .     S
C449   C466    1.451   .     S
C449   O545    1.300   .     A
C449   O555    1.296   .     A
C450   C489    1.411   .     A
C450   C454    1.419   .     A
C450   O552    1.381   .     S
C451   C455    1.412   .     S
C451   O559    1.295   .     A
C451   O556    1.296   .     A
C452   O557    1.296   .     A
C452   C456    1.412   .     S
C452   O558    1.295   .     A
C453   C492    1.423   .     A
C453   C490    1.423   .     A
C453   C678    1.531   1_545 S
C454   C491    1.417   .     A
C454   C677    1.531   .     S
C456   C903    1.193   .     S
C457   O560    1.382   .     S
C457   C462    1.390   .     A
C457   C468    1.411   .     A
C458   C463    1.401   .     A
C458   O546    1.389   .     S
C458   C469    1.409   .     A
C459   O547    1.382   .     S
C459   C469    1.410   .     A
C459   C464    1.391   .     A
C460   O553    1.299   .     A
C460   O554    1.304   .     A
C460   C467    1.466   .     S
C461   C468    1.410   .     A
C461   C465    1.404   .     A
C461   O548    1.390   .     S
C462   C466    1.394   .     A
C462   H499    1.080   .     S
C463   C467    1.403   .     A
C463   H510    1.082   .     S
C464   H521    1.079   .     S
C464   C467    1.399   .     A
C465   C466    1.397   .     A
C465   H532    1.082   .     S
C468   C581    1.471   1_455 S
C469   C580    1.471   .     S
C470   H539    1.113   .     S
C470   O560    1.410   .     S
C470   C584    1.519   1_455 S
C470   H650    1.114   1_455 S
C471   Cl493   1.761   .     S
C471   C490    1.411   .     A
C471   N543    1.371   .     A
C472   H540    1.110   .     S
C472   H542    1.111   .     S
C472   C582    1.519   .     S
C473   H501    1.112   .     S
C473   C474    1.521   .     S
C473   H500    1.115   .     S
C473   O546    1.413   .     S
C474   H503    1.111   .     S
C474   H504    1.111   .     S
C474   H614    1.111   .     S
C475   O547    1.410   .     S
C475   H506    1.114   .     S
C475   C588    1.521   .     S
C475   H617    1.115   .     S
C476   H509    1.111   .     S
C476   H507    1.110   .     S
C476   C587    1.521   1_455 S
C476   H620    1.111   1_455 S
C477   H511    1.115   .     S
C477   O548    1.412   .     S
C477   H512    1.111   .     S
C477   C478    1.520   .     S
C478   H515    1.111   .     S
C478   H961    1.109   .     S
C478   H626    1.111   1_455 S
C479   O549    1.407   .     S
C479   H517    1.113   .     S
C479   C704    1.522   1_545 S
C479   H740    1.111   1_545 S
C480   H518    1.111   .     S
C480   C703    1.522   .     S
C480   H967    1.107   .     S
C480   H744    1.111   .     S
C481   H523    1.115   .     S
C481   O550    1.411   .     S
C481   H522    1.114   .     S
C481   C483    1.520   .     S
C482   Cl494   1.754   .     S
C482   C491    1.410   .     A
C482   N544    1.375   .     A
C483   H524    1.111   .     S
C483   H526    1.111   .     S
C483   H749    1.111   .     S
C484   O551    1.407   .     S
C484   H528    1.113   .     S
C484   C709    1.522   1_545 S
C484   H751    1.111   1_545 S
C485   H530    1.111   .     S
C485   C708    1.522   .     S
C485   H755    1.111   .     S
C486   H534    1.114   .     S
C486   O552    1.412   .     S
C486   H533    1.114   .     S
C486   C487    1.521   .     S
C487   H536    1.111   .     S
C487   H759    1.111   .     S
C487   H761    1.111   .     S
C488   Cl495   1.761   .     S
C488   N543    1.371   .     A
C488   C492    1.411   .     A
C489   N544    1.375   .     A
C489   Cl496   1.756   .     S
C490   O549    1.382   .     S
C491   O550    1.381   .     S
C492   O551    1.382   .     S
Cu497  O556    1.937   .     S
Cu497  O554    1.954   .     S
Cu497  N544    2.028   .     S
Cu497  O545    1.954   .     S
Cu497  Cu498   2.700   .     S
Cu497  O558    1.936   .     S
Cu498  N543    2.028   .     S
Cu498  O553    1.954   .     S
Cu498  O557    1.937   .     S
Cu498  O555    1.954   .     S
Cu498  O559    1.936   .     S
H502   C586    1.111   1_455 S
H505   C587    1.115   1_455 S
H508   C588    1.111   .     S
H514   C590    1.111   .     S
H516   C703    1.111   .     S
H520   C704    1.111   1_545 S
H525   C707    1.111   1_545 S
H527   C708    1.111   .     S
H529   C933    1.107   .     S
H531   C709    1.111   1_545 S
H535   C711    1.111   1_545 S
H537   C711    1.111   1_545 S
H538   C582    1.114   .     S
H541   C920    1.110   .     S
C561   C578    1.451   .     S
C561   O657    1.300   .     A
C561   O667    1.296   .     A
C562   C601    1.411   .     A
C562   C566    1.419   .     A
C562   O664    1.381   .     S
C563   C567    1.412   .     S
C563   O671    1.295   .     A
C563   O668    1.296   .     A
C564   O669    1.296   .     A
C564   C568    1.412   .     S
C564   O670    1.295   .     A
C565   C604    1.423   .     A
C565   C602    1.423   .     A
C565   C790    1.531   1_545 S
C566   C603    1.417   .     A
C566   C789    1.531   .     S
C568   C1015   1.193   .     S
C569   O672    1.382   .     S
C569   C574    1.390   .     A
C569   C580    1.411   .     A
C570   C575    1.401   .     A
C570   O658    1.389   .     S
C570   C581    1.409   .     A
C571   O659    1.382   .     S
C571   C581    1.410   .     A
C571   C576    1.391   .     A
C572   O665    1.299   .     A
C572   O666    1.304   .     A
C572   C579    1.466   .     S
C573   C580    1.410   .     A
C573   C577    1.404   .     A
C573   O660    1.390   .     S
C574   C578    1.394   .     A
C574   H611    1.080   .     S
C575   C579    1.403   .     A
C575   H622    1.082   .     S
C576   H633    1.079   .     S
C576   C579    1.399   .     A
C577   C578    1.397   .     A
C577   H644    1.082   .     S
C581   C468    1.471   1_655 S
C582   H651    1.113   .     S
C582   O672    1.410   .     S
C583   Cl605   1.761   .     S
C583   C602    1.411   .     A
C583   N655    1.371   .     A
C584   H652    1.110   .     S
C584   H654    1.111   .     S
C584   C470    1.519   1_655 S
C585   H613    1.112   .     S
C585   C586    1.521   .     S
C585   H612    1.115   .     S
C585   O658    1.413   .     S
C586   H615    1.111   .     S
C586   H616    1.111   .     S
C586   H502    1.111   1_655 S
C587   O659    1.410   .     S
C587   H618    1.114   .     S
C587   C476    1.521   1_655 S
C587   H505    1.115   1_655 S
C588   H621    1.111   .     S
C588   H619    1.110   .     S
C589   H623    1.115   .     S
C589   O660    1.412   .     S
C589   H624    1.111   .     S
C589   C590    1.520   .     S
C590   H627    1.111   .     S
C590   H1073   1.109   .     S
C591   O661    1.407   .     S
C591   H629    1.113   .     S
C591   C816    1.522   1_545 S
C591   H852    1.111   1_545 S
C592   H630    1.111   .     S
C592   C815    1.522   .     S
C592   H1079   1.107   .     S
C592   H856    1.111   .     S
C593   H635    1.115   .     S
C593   O662    1.411   .     S
C593   H634    1.114   .     S
C593   C595    1.520   .     S
C594   Cl606   1.754   .     S
C594   C603    1.410   .     A
C594   N656    1.375   .     A
C595   H636    1.111   .     S
C595   H638    1.111   .     S
C595   H861    1.111   .     S
C596   O663    1.407   .     S
C596   H640    1.113   .     S
C596   C821    1.522   1_545 S
C596   H863    1.111   1_545 S
C597   H642    1.111   .     S
C597   C820    1.522   .     S
C597   H867    1.111   .     S
C598   H646    1.114   .     S
C598   O664    1.412   .     S
C598   H645    1.114   .     S
C598   C599    1.521   .     S
C599   H648    1.111   .     S
C599   H871    1.111   .     S
C599   H873    1.111   .     S
C600   Cl607   1.761   .     S
C600   N655    1.371   .     A
C600   C604    1.411   .     A
C601   N656    1.375   .     A
C601   Cl608   1.756   .     S
C602   O661    1.382   .     S
C603   O662    1.381   .     S
C604   O663    1.382   .     S
Cu609  O668    1.937   .     S
Cu609  O666    1.954   .     S
Cu609  N656    2.028   .     S
Cu609  O657    1.954   .     S
Cu609  Cu610   2.700   .     S
Cu609  O670    1.936   .     S
Cu610  N655    2.028   .     S
Cu610  O665    1.954   .     S
Cu610  O669    1.937   .     S
Cu610  O667    1.954   .     S
Cu610  O671    1.936   .     S
H620   C476    1.111   1_655 S
H626   C478    1.111   1_655 S
H628   C815    1.111   .     S
H632   C816    1.111   1_545 S
H637   C819    1.111   1_545 S
H639   C820    1.111   .     S
H641   C1045   1.107   .     S
H643   C821    1.111   1_545 S
H647   C823    1.111   1_545 S
H649   C823    1.111   1_545 S
H650   C470    1.114   1_655 S
H653   C1032   1.110   .     S
C673   C690    1.451   .     S
C673   O769    1.300   .     A
C673   O779    1.296   .     A
C674   C713    1.411   .     A
C674   C678    1.419   .     A
C674   O776    1.381   .     S
C675   C679    1.412   .     S
C675   O783    1.295   .     A
C675   O780    1.296   .     A
C676   O781    1.296   .     A
C676   C680    1.412   .     S
C676   O782    1.295   .     A
C677   C716    1.423   .     A
C677   C714    1.423   .     A
C678   C715    1.417   .     A
C678   C453    1.531   1_565 S
C680   C1127   1.193   .     S
C681   O784    1.382   .     S
C681   C686    1.390   .     A
C681   C692    1.411   .     A
C682   C687    1.401   .     A
C682   O770    1.389   .     S
C682   C693    1.409   .     A
C683   O771    1.382   .     S
C683   C693    1.410   .     A
C683   C688    1.391   .     A
C684   O777    1.299   .     A
C684   O778    1.304   .     A
C684   C691    1.466   .     S
C685   C692    1.410   .     A
C685   C689    1.404   .     A
C685   O772    1.390   .     S
C686   C690    1.394   .     A
C686   H723    1.080   .     S
C687   C691    1.403   .     A
C687   H734    1.082   .     S
C688   H745    1.079   .     S
C688   C691    1.399   .     A
C689   C690    1.397   .     A
C689   H756    1.082   .     S
C692   C805    1.471   1_455 S
C693   C804    1.471   .     S
C694   H763    1.113   .     S
C694   O784    1.410   .     S
C694   C808    1.519   1_455 S
C694   H874    1.114   1_455 S
C695   Cl717   1.761   .     S
C695   C714    1.411   .     A
C695   N767    1.371   .     A
C696   H764    1.110   .     S
C696   H766    1.111   .     S
C696   C806    1.519   .     S
C697   H725    1.112   .     S
C697   C698    1.521   .     S
C697   H724    1.115   .     S
C697   O770    1.413   .     S
C698   H727    1.111   .     S
C698   H728    1.111   .     S
C698   H838    1.111   .     S
C699   O771    1.410   .     S
C699   H730    1.114   .     S
C699   C812    1.521   .     S
C699   H841    1.115   .     S
C700   H733    1.111   .     S
C700   H731    1.110   .     S
C700   C811    1.521   1_455 S
C700   H844    1.111   1_455 S
C701   H735    1.115   .     S
C701   O772    1.412   .     S
C701   H736    1.111   .     S
C701   C702    1.520   .     S
C702   H739    1.111   .     S
C702   H1185   1.109   .     S
C702   H850    1.111   1_455 S
C703   O773    1.407   .     S
C703   H741    1.113   .     S
C704   H742    1.111   .     S
C704   C479    1.522   1_565 S
C704   H1191   1.107   .     S
C704   H520    1.111   1_565 S
C705   H747    1.115   .     S
C705   O774    1.411   .     S
C705   H746    1.114   .     S
C705   C707    1.520   .     S
C706   Cl718   1.754   .     S
C706   C715    1.410   .     A
C706   N768    1.375   .     A
C707   H748    1.111   .     S
C707   H750    1.111   .     S
C707   H525    1.111   1_565 S
C708   O775    1.407   .     S
C708   H752    1.113   .     S
C709   H754    1.111   .     S
C709   C484    1.522   1_565 S
C709   H531    1.111   1_565 S
C710   H758    1.114   .     S
C710   O776    1.412   .     S
C710   H757    1.114   .     S
C710   C711    1.521   .     S
C711   H760    1.111   .     S
C711   H535    1.111   1_565 S
C711   H537    1.111   1_565 S
C712   Cl719   1.761   .     S
C712   N767    1.371   .     A
C712   C716    1.411   .     A
C713   N768    1.375   .     A
C713   Cl720   1.756   .     S
C714   O773    1.382   .     S
C715   O774    1.381   .     S
C716   O775    1.382   .     S
Cu721  O780    1.937   .     S
Cu721  O778    1.954   .     S
Cu721  N768    2.028   .     S
Cu721  O769    1.954   .     S
Cu721  Cu722   2.700   .     S
Cu721  O782    1.936   .     S
Cu722  N767    2.028   .     S
Cu722  O777    1.954   .     S
Cu722  O781    1.937   .     S
Cu722  O779    1.954   .     S
Cu722  O783    1.936   .     S
H726   C810    1.111   1_455 S
H729   C811    1.115   1_455 S
H732   C812    1.111   .     S
H738   C814    1.111   .     S
H740   C479    1.111   1_565 S
H751   C484    1.111   1_565 S
H753   C1157   1.107   .     S
H762   C806    1.114   .     S
H765   C1144   1.110   .     S
C785   C802    1.451   .     S
C785   O881    1.300   .     A
C785   O891    1.296   .     A
C786   C825    1.411   .     A
C786   C790    1.419   .     A
C786   O888    1.381   .     S
C787   C791    1.412   .     S
C787   O895    1.295   .     A
C787   O892    1.296   .     A
C788   O893    1.296   .     A
C788   C792    1.412   .     S
C788   O894    1.295   .     A
C789   C828    1.423   .     A
C789   C826    1.423   .     A
C790   C827    1.417   .     A
C790   C565    1.531   1_565 S
C792   C1239   1.193   .     S
C793   O896    1.382   .     S
C793   C798    1.390   .     A
C793   C804    1.411   .     A
C794   C799    1.401   .     A
C794   O882    1.389   .     S
C794   C805    1.409   .     A
C795   O883    1.382   .     S
C795   C805    1.410   .     A
C795   C800    1.391   .     A
C796   O889    1.299   .     A
C796   O890    1.304   .     A
C796   C803    1.466   .     S
C797   C804    1.410   .     A
C797   C801    1.404   .     A
C797   O884    1.390   .     S
C798   C802    1.394   .     A
C798   H835    1.080   .     S
C799   C803    1.403   .     A
C799   H846    1.082   .     S
C800   H857    1.079   .     S
C800   C803    1.399   .     A
C801   C802    1.397   .     A
C801   H868    1.082   .     S
C805   C692    1.471   1_655 S
C806   H875    1.113   .     S
C806   O896    1.410   .     S
C807   Cl829   1.761   .     S
C807   C826    1.411   .     A
C807   N879    1.371   .     A
C808   H876    1.110   .     S
C808   H878    1.111   .     S
C808   C694    1.519   1_655 S
C809   H837    1.112   .     S
C809   C810    1.521   .     S
C809   H836    1.115   .     S
C809   O882    1.413   .     S
C810   H839    1.111   .     S
C810   H840    1.111   .     S
C810   H726    1.111   1_655 S
C811   O883    1.410   .     S
C811   H842    1.114   .     S
C811   C700    1.521   1_655 S
C811   H729    1.115   1_655 S
C812   H845    1.111   .     S
C812   H843    1.110   .     S
C813   H847    1.115   .     S
C813   O884    1.412   .     S
C813   H848    1.111   .     S
C813   C814    1.520   .     S
C814   H851    1.111   .     S
C814   H1297   1.109   .     S
C815   O885    1.407   .     S
C815   H853    1.113   .     S
C816   H854    1.111   .     S
C816   C591    1.522   1_565 S
C816   H1303   1.107   .     S
C816   H632    1.111   1_565 S
C817   H859    1.115   .     S
C817   O886    1.411   .     S
C817   H858    1.114   .     S
C817   C819    1.520   .     S
C818   Cl830   1.754   .     S
C818   C827    1.410   .     A
C818   N880    1.375   .     A
C819   H860    1.111   .     S
C819   H862    1.111   .     S
C819   H637    1.111   1_565 S
C820   O887    1.407   .     S
C820   H864    1.113   .     S
C821   H866    1.111   .     S
C821   C596    1.522   1_565 S
C821   H643    1.111   1_565 S
C822   H870    1.114   .     S
C822   O888    1.412   .     S
C822   H869    1.114   .     S
C822   C823    1.521   .     S
C823   H872    1.111   .     S
C823   H647    1.111   1_565 S
C823   H649    1.111   1_565 S
C824   Cl831   1.761   .     S
C824   N879    1.371   .     A
C824   C828    1.411   .     A
C825   N880    1.375   .     A
C825   Cl832   1.756   .     S
C826   O885    1.382   .     S
C827   O886    1.381   .     S
C828   O887    1.382   .     S
Cu833  O892    1.937   .     S
Cu833  O890    1.954   .     S
Cu833  N880    2.028   .     S
Cu833  O881    1.954   .     S
Cu833  Cu834   2.700   .     S
Cu833  O894    1.936   .     S
Cu834  N879    2.028   .     S
Cu834  O889    1.954   .     S
Cu834  O893    1.937   .     S
Cu834  O891    1.954   .     S
Cu834  O895    1.936   .     S
H844   C700    1.111   1_655 S
H850   C702    1.111   1_655 S
H852   C591    1.111   1_565 S
H863   C596    1.111   1_565 S
H865   C1269   1.107   .     S
H874   C694    1.114   1_655 S
H877   C1256   1.110   .     S
C897   C914    1.451   .     S
C897   O993    1.300   .     A
C897   O1003   1.296   .     A
C898   C937    1.411   .     A
C898   C902    1.419   .     A
C898   O1000   1.381   .     S
C899   C903    1.412   .     S
C899   O1007   1.295   .     A
C899   O1004   1.296   .     A
C900   O1005   1.296   .     A
C900   C904    1.412   .     S
C900   O1006   1.295   .     A
C901   C940    1.423   .     A
C901   C938    1.423   .     A
C901   C1126   1.531   1_545 S
C902   C939    1.417   .     A
C902   C1125   1.531   .     S
C904   C7      1.193   1_556 S
C905   O1008   1.382   .     S
C905   C910    1.390   .     A
C905   C916    1.411   .     A
C906   C911    1.401   .     A
C906   O994    1.389   .     S
C906   C917    1.409   .     A
C907   O995    1.382   .     S
C907   C917    1.410   .     A
C907   C912    1.391   .     A
C908   O1001   1.299   .     A
C908   O1002   1.304   .     A
C908   C915    1.466   .     S
C909   C916    1.410   .     A
C909   C913    1.404   .     A
C909   O996    1.390   .     S
C910   C914    1.394   .     A
C910   H947    1.080   .     S
C911   C915    1.403   .     A
C911   H958    1.082   .     S
C912   H969    1.079   .     S
C912   C915    1.399   .     A
C913   C914    1.397   .     A
C913   H980    1.082   .     S
C916   C1029   1.471   1_455 S
C917   C1028   1.471   .     S
C918   H987    1.113   .     S
C918   O1008   1.410   .     S
C918   C1032   1.519   1_455 S
C918   H1098   1.114   1_455 S
C919   Cl941   1.761   .     S
C919   C938    1.411   .     A
C919   N991    1.371   .     A
C920   H988    1.110   .     S
C920   H990    1.111   .     S
C920   C1030   1.519   .     S
C921   H949    1.112   .     S
C921   C922    1.521   .     S
C921   H948    1.115   .     S
C921   O994    1.413   .     S
C922   H951    1.111   .     S
C922   H952    1.111   .     S
C922   H1062   1.111   .     S
C923   O995    1.410   .     S
C923   H954    1.114   .     S
C923   C1036   1.521   .     S
C923   H1065   1.115   .     S
C924   H957    1.111   .     S
C924   H955    1.110   .     S
C924   C1035   1.521   1_455 S
C924   H1068   1.111   1_455 S
C925   H959    1.115   .     S
C925   O996    1.412   .     S
C925   H960    1.111   .     S
C925   C926    1.520   .     S
C926   H963    1.111   .     S
C926   H65     1.109   1_556 S
C926   H1074   1.111   1_455 S
C927   O997    1.407   .     S
C927   H965    1.113   .     S
C927   C1152   1.522   1_545 S
C927   H1188   1.111   1_545 S
C928   H966    1.111   .     S
C928   C1151   1.522   .     S
C928   H71     1.107   1_556 S
C928   H1192   1.111   .     S
C929   H971    1.115   .     S
C929   O998    1.411   .     S
C929   H970    1.114   .     S
C929   C931    1.520   .     S
C930   Cl942   1.754   .     S
C930   C939    1.410   .     A
C930   N992    1.375   .     A
C931   H972    1.111   .     S
C931   H974    1.111   .     S
C931   H1197   1.111   .     S
C932   O999    1.407   .     S
C932   H976    1.113   .     S
C932   C1157   1.522   1_545 S
C932   H1199   1.111   1_545 S
C933   H978    1.111   .     S
C933   C1156   1.522   .     S
C933   H1203   1.111   .     S
C934   H982    1.114   .     S
C934   O1000   1.412   .     S
C934   H981    1.114   .     S
C934   C935    1.521   .     S
C935   H984    1.111   .     S
C935   H1207   1.111   .     S
C935   H1209   1.111   .     S
C936   Cl943   1.761   .     S
C936   N991    1.371   .     A
C936   C940    1.411   .     A
C937   N992    1.375   .     A
C937   Cl944   1.756   .     S
C938   O997    1.382   .     S
C939   O998    1.381   .     S
C940   O999    1.382   .     S
Cu945  O1004   1.937   .     S
Cu945  O1002   1.954   .     S
Cu945  N992    2.028   .     S
Cu945  O993    1.954   .     S
Cu945  Cu946   2.700   .     S
Cu945  O1006   1.936   .     S
Cu946  N991    2.028   .     S
Cu946  O1001   1.954   .     S
Cu946  O1005   1.937   .     S
Cu946  O1003   1.954   .     S
Cu946  O1007   1.936   .     S
H950   C1034   1.111   1_455 S
H953   C1035   1.115   1_455 S
H956   C1036   1.111   .     S
H962   C1038   1.111   .     S
H964   C1151   1.111   .     S
H968   C1152   1.111   1_545 S
H973   C1155   1.111   1_545 S
H975   C1156   1.111   .     S
H977   C37     1.107   1_556 S
H979   C1157   1.111   1_545 S
H983   C1159   1.111   1_545 S
H985   C1159   1.111   1_545 S
H986   C1030   1.114   .     S
H989   C24     1.110   1_556 S
C1009  C1026   1.451   .     S
C1009  O1105   1.300   .     A
C1009  O1115   1.296   .     A
C1010  C1049   1.411   .     A
C1010  C1014   1.419   .     A
C1010  O1112   1.381   .     S
C1011  C1015   1.412   .     S
C1011  O1119   1.295   .     A
C1011  O1116   1.296   .     A
C1012  O1117   1.296   .     A
C1012  C1016   1.412   .     S
C1012  O1118   1.295   .     A
C1013  C1052   1.423   .     A
C1013  C1050   1.423   .     A
C1013  C1238   1.531   1_545 S
C1014  C1051   1.417   .     A
C1014  C1237   1.531   .     S
C1016  C119    1.193   1_556 S
C1017  O1120   1.382   .     S
C1017  C1022   1.390   .     A
C1017  C1028   1.411   .     A
C1018  C1023   1.401   .     A
C1018  O1106   1.389   .     S
C1018  C1029   1.409   .     A
C1019  O1107   1.382   .     S
C1019  C1029   1.410   .     A
C1019  C1024   1.391   .     A
C1020  O1113   1.299   .     A
C1020  O1114   1.304   .     A
C1020  C1027   1.466   .     S
C1021  C1028   1.410   .     A
C1021  C1025   1.404   .     A
C1021  O1108   1.390   .     S
C1022  C1026   1.394   .     A
C1022  H1059   1.080   .     S
C1023  C1027   1.403   .     A
C1023  H1070   1.082   .     S
C1024  H1081   1.079   .     S
C1024  C1027   1.399   .     A
C1025  C1026   1.397   .     A
C1025  H1092   1.082   .     S
C1029  C916    1.471   1_655 S
C1030  H1099   1.113   .     S
C1030  O1120   1.410   .     S
C1031  Cl1053  1.761   .     S
C1031  C1050   1.411   .     A
C1031  N1103   1.371   .     A
C1032  H1100   1.110   .     S
C1032  H1102   1.111   .     S
C1032  C918    1.519   1_655 S
C1033  H1061   1.112   .     S
C1033  C1034   1.521   .     S
C1033  H1060   1.115   .     S
C1033  O1106   1.413   .     S
C1034  H1063   1.111   .     S
C1034  H1064   1.111   .     S
C1034  H950    1.111   1_655 S
C1035  O1107   1.410   .     S
C1035  H1066   1.114   .     S
C1035  C924    1.521   1_655 S
C1035  H953    1.115   1_655 S
C1036  H1069   1.111   .     S
C1036  H1067   1.110   .     S
C1037  H1071   1.115   .     S
C1037  O1108   1.412   .     S
C1037  H1072   1.111   .     S
C1037  C1038   1.520   .     S
C1038  H1075   1.111   .     S
C1038  H177    1.109   1_556 S
C1039  O1109   1.407   .     S
C1039  H1077   1.113   .     S
C1039  C1264   1.522   1_545 S
C1039  H1300   1.111   1_545 S
C1040  H1078   1.111   .     S
C1040  C1263   1.522   .     S
C1040  H183    1.107   1_556 S
C1040  H1304   1.111   .     S
C1041  H1083   1.115   .     S
C1041  O1110   1.411   .     S
C1041  H1082   1.114   .     S
C1041  C1043   1.520   .     S
C1042  Cl1054  1.754   .     S
C1042  C1051   1.410   .     A
C1042  N1104   1.375   .     A
C1043  H1084   1.111   .     S
C1043  H1086   1.111   .     S
C1043  H1309   1.111   .     S
C1044  O1111   1.407   .     S
C1044  H1088   1.113   .     S
C1044  C1269   1.522   1_545 S
C1044  H1311   1.111   1_545 S
C1045  H1090   1.111   .     S
C1045  C1268   1.522   .     S
C1045  H1315   1.111   .     S
C1046  H1094   1.114   .     S
C1046  O1112   1.412   .     S
C1046  H1093   1.114   .     S
C1046  C1047   1.521   .     S
C1047  H1096   1.111   .     S
C1047  H1319   1.111   .     S
C1047  H1321   1.111   .     S
C1048  Cl1055  1.761   .     S
C1048  N1103   1.371   .     A
C1048  C1052   1.411   .     A
C1049  N1104   1.375   .     A
C1049  Cl1056  1.756   .     S
C1050  O1109   1.382   .     S
C1051  O1110   1.381   .     S
C1052  O1111   1.382   .     S
Cu1057 O1116   1.937   .     S
Cu1057 O1114   1.954   .     S
Cu1057 N1104   2.028   .     S
Cu1057 O1105   1.954   .     S
Cu1057 Cu1058  2.700   .     S
Cu1057 O1118   1.936   .     S
Cu1058 N1103   2.028   .     S
Cu1058 O1113   1.954   .     S
Cu1058 O1117   1.937   .     S
Cu1058 O1115   1.954   .     S
Cu1058 O1119   1.936   .     S
H1068  C924    1.111   1_655 S
H1074  C926    1.111   1_655 S
H1076  C1263   1.111   .     S
H1080  C1264   1.111   1_545 S
H1085  C1267   1.111   1_545 S
H1087  C1268   1.111   .     S
H1089  C149    1.107   1_556 S
H1091  C1269   1.111   1_545 S
H1095  C1271   1.111   1_545 S
H1097  C1271   1.111   1_545 S
H1098  C918    1.114   1_655 S
H1101  C136    1.110   1_556 S
C1121  C1138   1.451   .     S
C1121  O1217   1.300   .     A
C1121  O1227   1.296   .     A
C1122  C1161   1.411   .     A
C1122  C1126   1.419   .     A
C1122  O1224   1.381   .     S
C1123  C1127   1.412   .     S
C1123  O1231   1.295   .     A
C1123  O1228   1.296   .     A
C1124  O1229   1.296   .     A
C1124  C1128   1.412   .     S
C1124  O1230   1.295   .     A
C1125  C1164   1.423   .     A
C1125  C1162   1.423   .     A
C1126  C1163   1.417   .     A
C1126  C901    1.531   1_565 S
C1128  C231    1.193   1_556 S
C1129  O1232   1.382   .     S
C1129  C1134   1.390   .     A
C1129  C1140   1.411   .     A
C1130  C1135   1.401   .     A
C1130  O1218   1.389   .     S
C1130  C1141   1.409   .     A
C1131  O1219   1.382   .     S
C1131  C1141   1.410   .     A
C1131  C1136   1.391   .     A
C1132  O1225   1.299   .     A
C1132  O1226   1.304   .     A
C1132  C1139   1.466   .     S
C1133  C1140   1.410   .     A
C1133  C1137   1.404   .     A
C1133  O1220   1.390   .     S
C1134  C1138   1.394   .     A
C1134  H1171   1.080   .     S
C1135  C1139   1.403   .     A
C1135  H1182   1.082   .     S
C1136  H1193   1.079   .     S
C1136  C1139   1.399   .     A
C1137  C1138   1.397   .     A
C1137  H1204   1.082   .     S
C1140  C1253   1.471   1_455 S
C1141  C1252   1.471   .     S
C1142  H1211   1.113   .     S
C1142  O1232   1.410   .     S
C1142  C1256   1.519   1_455 S
C1142  H1322   1.114   1_455 S
C1143  Cl1165  1.761   .     S
C1143  C1162   1.411   .     A
C1143  N1215   1.371   .     A
C1144  H1212   1.110   .     S
C1144  H1214   1.111   .     S
C1144  C1254   1.519   .     S
C1145  H1173   1.112   .     S
C1145  C1146   1.521   .     S
C1145  H1172   1.115   .     S
C1145  O1218   1.413   .     S
C1146  H1175   1.111   .     S
C1146  H1176   1.111   .     S
C1146  H1286   1.111   .     S
C1147  O1219   1.410   .     S
C1147  H1178   1.114   .     S
C1147  C1260   1.521   .     S
C1147  H1289   1.115   .     S
C1148  H1181   1.111   .     S
C1148  H1179   1.110   .     S
C1148  C1259   1.521   1_455 S
C1148  H1292   1.111   1_455 S
C1149  H1183   1.115   .     S
C1149  O1220   1.412   .     S
C1149  H1184   1.111   .     S
C1149  C1150   1.520   .     S
C1150  H1187   1.111   .     S
C1150  H289    1.109   1_556 S
C1150  H1298   1.111   1_455 S
C1151  O1221   1.407   .     S
C1151  H1189   1.113   .     S
C1152  H1190   1.111   .     S
C1152  C927    1.522   1_565 S
C1152  H295    1.107   1_556 S
C1152  H968    1.111   1_565 S
C1153  H1195   1.115   .     S
C1153  O1222   1.411   .     S
C1153  H1194   1.114   .     S
C1153  C1155   1.520   .     S
C1154  Cl1166  1.754   .     S
C1154  C1163   1.410   .     A
C1154  N1216   1.375   .     A
C1155  H1196   1.111   .     S
C1155  H1198   1.111   .     S
C1155  H973    1.111   1_565 S
C1156  O1223   1.407   .     S
C1156  H1200   1.113   .     S
C1157  H1202   1.111   .     S
C1157  C932    1.522   1_565 S
C1157  H979    1.111   1_565 S
C1158  H1206   1.114   .     S
C1158  O1224   1.412   .     S
C1158  H1205   1.114   .     S
C1158  C1159   1.521   .     S
C1159  H1208   1.111   .     S
C1159  H983    1.111   1_565 S
C1159  H985    1.111   1_565 S
C1160  Cl1167  1.761   .     S
C1160  N1215   1.371   .     A
C1160  C1164   1.411   .     A
C1161  N1216   1.375   .     A
C1161  Cl1168  1.756   .     S
C1162  O1221   1.382   .     S
C1163  O1222   1.381   .     S
C1164  O1223   1.382   .     S
Cu1169 O1228   1.937   .     S
Cu1169 O1226   1.954   .     S
Cu1169 N1216   2.028   .     S
Cu1169 O1217   1.954   .     S
Cu1169 Cu1170  2.700   .     S
Cu1169 O1230   1.936   .     S
Cu1170 N1215   2.028   .     S
Cu1170 O1225   1.954   .     S
Cu1170 O1229   1.937   .     S
Cu1170 O1227   1.954   .     S
Cu1170 O1231   1.936   .     S
H1174  C1258   1.111   1_455 S
H1177  C1259   1.115   1_455 S
H1180  C1260   1.111   .     S
H1186  C1262   1.111   .     S
H1188  C927    1.111   1_565 S
H1199  C932    1.111   1_565 S
H1201  C261    1.107   1_556 S
H1210  C1254   1.114   .     S
H1213  C248    1.110   1_556 S
C1233  C1250   1.451   .     S
C1233  O1329   1.300   .     A
C1233  O1339   1.296   .     A
C1234  C1273   1.411   .     A
C1234  C1238   1.419   .     A
C1234  O1336   1.381   .     S
C1235  C1239   1.412   .     S
C1235  O1343   1.295   .     A
C1235  O1340   1.296   .     A
C1236  O1341   1.296   .     A
C1236  C1240   1.412   .     S
C1236  O1342   1.295   .     A
C1237  C1276   1.423   .     A
C1237  C1274   1.423   .     A
C1238  C1275   1.417   .     A
C1238  C1013   1.531   1_565 S
C1240  C343    1.193   1_556 S
C1241  O1344   1.382   .     S
C1241  C1246   1.390   .     A
C1241  C1252   1.411   .     A
C1242  C1247   1.401   .     A
C1242  O1330   1.389   .     S
C1242  C1253   1.409   .     A
C1243  O1331   1.382   .     S
C1243  C1253   1.410   .     A
C1243  C1248   1.391   .     A
C1244  O1337   1.299   .     A
C1244  O1338   1.304   .     A
C1244  C1251   1.466   .     S
C1245  C1252   1.410   .     A
C1245  C1249   1.404   .     A
C1245  O1332   1.390   .     S
C1246  C1250   1.394   .     A
C1246  H1283   1.080   .     S
C1247  C1251   1.403   .     A
C1247  H1294   1.082   .     S
C1248  H1305   1.079   .     S
C1248  C1251   1.399   .     A
C1249  C1250   1.397   .     A
C1249  H1316   1.082   .     S
C1253  C1140   1.471   1_655 S
C1254  H1323   1.113   .     S
C1254  O1344   1.410   .     S
C1255  Cl1277  1.761   .     S
C1255  C1274   1.411   .     A
C1255  N1327   1.371   .     A
C1256  H1324   1.110   .     S
C1256  H1326   1.111   .     S
C1256  C1142   1.519   1_655 S
C1257  H1285   1.112   .     S
C1257  C1258   1.521   .     S
C1257  H1284   1.115   .     S
C1257  O1330   1.413   .     S
C1258  H1287   1.111   .     S
C1258  H1288   1.111   .     S
C1258  H1174   1.111   1_655 S
C1259  O1331   1.410   .     S
C1259  H1290   1.114   .     S
C1259  C1148   1.521   1_655 S
C1259  H1177   1.115   1_655 S
C1260  H1293   1.111   .     S
C1260  H1291   1.110   .     S
C1261  H1295   1.115   .     S
C1261  O1332   1.412   .     S
C1261  H1296   1.111   .     S
C1261  C1262   1.520   .     S
C1262  H1299   1.111   .     S
C1262  H401    1.109   1_556 S
C1263  O1333   1.407   .     S
C1263  H1301   1.113   .     S
C1264  H1302   1.111   .     S
C1264  C1039   1.522   1_565 S
C1264  H407    1.107   1_556 S
C1264  H1080   1.111   1_565 S
C1265  H1307   1.115   .     S
C1265  O1334   1.411   .     S
C1265  H1306   1.114   .     S
C1265  C1267   1.520   .     S
C1266  Cl1278  1.754   .     S
C1266  C1275   1.410   .     A
C1266  N1328   1.375   .     A
C1267  H1308   1.111   .     S
C1267  H1310   1.111   .     S
C1267  H1085   1.111   1_565 S
C1268  O1335   1.407   .     S
C1268  H1312   1.113   .     S
C1269  H1314   1.111   .     S
C1269  C1044   1.522   1_565 S
C1269  H1091   1.111   1_565 S
C1270  H1318   1.114   .     S
C1270  O1336   1.412   .     S
C1270  H1317   1.114   .     S
C1270  C1271   1.521   .     S
C1271  H1320   1.111   .     S
C1271  H1095   1.111   1_565 S
C1271  H1097   1.111   1_565 S
C1272  Cl1279  1.761   .     S
C1272  N1327   1.371   .     A
C1272  C1276   1.411   .     A
C1273  N1328   1.375   .     A
C1273  Cl1280  1.756   .     S
C1274  O1333   1.382   .     S
C1275  O1334   1.381   .     S
C1276  O1335   1.382   .     S
Cu1281 O1340   1.937   .     S
Cu1281 O1338   1.954   .     S
Cu1281 N1328   2.028   .     S
Cu1281 O1329   1.954   .     S
Cu1281 Cu1282  2.700   .     S
Cu1281 O1342   1.936   .     S
Cu1282 N1327   2.028   .     S
Cu1282 O1337   1.954   .     S
Cu1282 O1341   1.937   .     S
Cu1282 O1339   1.954   .     S
Cu1282 O1343   1.936   .     S
H1292  C1148   1.111   1_655 S
H1298  C1150   1.111   1_655 S
H1300  C1039   1.111   1_565 S
H1311  C1044   1.111   1_565 S
H1313  C373    1.107   1_556 S
H1322  C1142   1.114   1_655 S
H1325  C360    1.110   1_556 S
