data_str_m2_o1_o5_pcu_sym.20
_audit_creation_date              2020-01-03
_audit_creation_method            'Materials Studio'
_symmetry_space_group_name_H-M    'P1'
_symmetry_Int_Tables_number       1
_symmetry_cell_setting            triclinic
loop_
_symmetry_equiv_pos_as_xyz
  x,y,z
_cell_length_a                    32.4815
_cell_length_b                    28.8595
_cell_length_c                    27.1965
_cell_angle_alpha                 89.4343
_cell_angle_beta                  91.5417
_cell_angle_gamma                 89.5168
loop_
_atom_site_label
_atom_site_type_symbol
_atom_site_fract_x
_atom_site_fract_y
_atom_site_fract_z
_atom_site_U_iso_or_equiv
_atom_site_adp_type
_atom_site_occupancy
C1     C     0.08745   0.16678   0.16657   0.00000  Uiso   1.00
C2     C     0.02096   0.20883   0.16692   0.00000  Uiso   1.00
C3     C     0.29055   0.16653   0.16676   0.00000  Uiso   1.00
C4     C     0.04278   0.16680   0.16657   0.00000  Uiso   1.00
C5     C     0.14273   0.02591   0.13364   0.00000  Uiso   1.00
C6     C     0.19061   0.30742   0.19970   0.00000  Uiso   1.00
C7     C     0.19020   0.02339   0.20050   0.00000  Uiso   1.00
C8     C     0.14313   0.30994   0.13283   0.00000  Uiso   1.00
C9     C     0.24588   0.16655   0.16677   0.00000  Uiso   1.00
C10    C     0.16659   0.16681   0.07364   0.00000  Uiso   1.00
C11    C     0.16675   0.16653   0.25969   0.00000  Uiso   1.00
C12    C     0.16664   0.16686   0.02187   0.00000  Uiso   1.00
C13    C     0.16670   0.16648   0.31146   0.00000  Uiso   1.00
C14    C     0.02163   0.12463   0.16631   0.00000  Uiso   1.00
C15    C     0.31170   0.20870   0.16703   0.00000  Uiso   1.00
C16    C     0.31237   0.12450   0.16641   0.00000  Uiso   1.00
Cu17   Cu    0.16667   0.21355   0.16667   0.00000  Uiso   1.00
Cu18   Cu    0.16667   0.11978   0.16667   0.00000  Uiso   1.00
H19    H     0.03788   0.09171   0.16604   0.00000  Uiso   1.00
H20    H     0.19401   0.05680   0.26601   0.00000  Uiso   1.00
H21    H     0.10043   0.26324   0.10717   0.00000  Uiso   1.00
H22    H     0.13933   0.27653   0.06732   0.00000  Uiso   1.00
H23    H     0.29545   0.24162   0.16730   0.00000  Uiso   1.00
H24    H     0.29665   0.09155   0.16618   0.00000  Uiso   1.00
H25    H     0.03669   0.24178   0.16716   0.00000  Uiso   1.00
H26    H     0.12535   0.04312   0.06379   0.00000  Uiso   1.00
H27    H     0.08645   0.04145   0.10411   0.00000  Uiso   1.00
H28    H     0.20798   0.29021   0.26954   0.00000  Uiso   1.00
H29    H     0.24688   0.29189   0.22922   0.00000  Uiso   1.00
H30    H     0.23291   0.07009   0.22616   0.00000  Uiso   1.00
N31    N     0.16667   0.28402   0.16667   0.00000  Uiso   1.00
N32    N     0.16667   0.04931   0.16667   0.00000  Uiso   1.00
N33    N     0.11694   0.05159   0.09946   0.00000  Uiso   1.00
N34    N     0.21640   0.28174   0.23387   0.00000  Uiso   1.00
N35    N     0.21370   0.04453   0.23936   0.00000  Uiso   1.00
N36    N     0.11963   0.28880   0.09398   0.00000  Uiso   1.00
O37    O     0.10655   0.20625   0.16666   0.00000  Uiso   1.00
O38    O     0.22679   0.12709   0.16667   0.00000  Uiso   1.00
O39    O     0.22679   0.20625   0.16667   0.00000  Uiso   1.00
O40    O     0.10655   0.12709   0.16666   0.00000  Uiso   1.00
O41    O     0.16667   0.20625   0.09613   0.00000  Uiso   1.00
O42    O     0.16667   0.12708   0.23720   0.00000  Uiso   1.00
O43    O     0.16667   0.20625   0.23720   0.00000  Uiso   1.00
O44    O     0.16667   0.12708   0.09613   0.00000  Uiso   1.00
C45    C     0.42078   0.16678   0.16657   0.00000  Uiso   1.00
C46    C     0.35429   0.20883   0.16692   0.00000  Uiso   1.00
C47    C     0.62389   0.16653   0.16676   0.00000  Uiso   1.00
C48    C     0.37612   0.16680   0.16657   0.00000  Uiso   1.00
C49    C     0.47606   0.02591   0.13364   0.00000  Uiso   1.00
C50    C     0.52394   0.30742   0.19970   0.00000  Uiso   1.00
C51    C     0.52354   0.02339   0.20050   0.00000  Uiso   1.00
C52    C     0.47646   0.30994   0.13283   0.00000  Uiso   1.00
C53    C     0.57922   0.16655   0.16677   0.00000  Uiso   1.00
C54    C     0.49992   0.16681   0.07364   0.00000  Uiso   1.00
C55    C     0.50008   0.16653   0.25969   0.00000  Uiso   1.00
C56    C     0.49997   0.16686   0.02187   0.00000  Uiso   1.00
C57    C     0.50003   0.16648   0.31146   0.00000  Uiso   1.00
C58    C     0.35496   0.12463   0.16631   0.00000  Uiso   1.00
C59    C     0.64504   0.20870   0.16703   0.00000  Uiso   1.00
C60    C     0.64571   0.12450   0.16641   0.00000  Uiso   1.00
Cu61   Cu    0.50000   0.21355   0.16667   0.00000  Uiso   1.00
Cu62   Cu    0.50000   0.11978   0.16667   0.00000  Uiso   1.00
H63    H     0.37122   0.09171   0.16604   0.00000  Uiso   1.00
H64    H     0.52734   0.05680   0.26601   0.00000  Uiso   1.00
H65    H     0.43376   0.26324   0.10717   0.00000  Uiso   1.00
H66    H     0.47266   0.27653   0.06732   0.00000  Uiso   1.00
H67    H     0.62878   0.24162   0.16730   0.00000  Uiso   1.00
H68    H     0.62998   0.09155   0.16618   0.00000  Uiso   1.00
H69    H     0.37002   0.24178   0.16716   0.00000  Uiso   1.00
H70    H     0.45868   0.04312   0.06379   0.00000  Uiso   1.00
H71    H     0.41979   0.04145   0.10411   0.00000  Uiso   1.00
H72    H     0.54132   0.29021   0.26954   0.00000  Uiso   1.00
H73    H     0.58021   0.29189   0.22922   0.00000  Uiso   1.00
H74    H     0.56624   0.07009   0.22616   0.00000  Uiso   1.00
N75    N     0.50000   0.28402   0.16667   0.00000  Uiso   1.00
N76    N     0.50000   0.04931   0.16667   0.00000  Uiso   1.00
N77    N     0.45027   0.05159   0.09946   0.00000  Uiso   1.00
N78    N     0.54973   0.28174   0.23387   0.00000  Uiso   1.00
N79    N     0.54704   0.04453   0.23936   0.00000  Uiso   1.00
N80    N     0.45297   0.28880   0.09398   0.00000  Uiso   1.00
O81    O     0.43988   0.20625   0.16666   0.00000  Uiso   1.00
O82    O     0.56012   0.12709   0.16667   0.00000  Uiso   1.00
O83    O     0.56012   0.20625   0.16667   0.00000  Uiso   1.00
O84    O     0.43988   0.12709   0.16666   0.00000  Uiso   1.00
O85    O     0.50000   0.20625   0.09613   0.00000  Uiso   1.00
O86    O     0.50000   0.12708   0.23720   0.00000  Uiso   1.00
O87    O     0.50000   0.20625   0.23720   0.00000  Uiso   1.00
O88    O     0.50000   0.12708   0.09613   0.00000  Uiso   1.00
C89    C     0.75412   0.16678   0.16657   0.00000  Uiso   1.00
C90    C     0.68763   0.20883   0.16692   0.00000  Uiso   1.00
C91    C     0.95722   0.16653   0.16676   0.00000  Uiso   1.00
C92    C     0.70945   0.16680   0.16657   0.00000  Uiso   1.00
C93    C     0.80939   0.02591   0.13364   0.00000  Uiso   1.00
C94    C     0.85727   0.30742   0.19970   0.00000  Uiso   1.00
C95    C     0.85687   0.02339   0.20050   0.00000  Uiso   1.00
C96    C     0.80980   0.30994   0.13283   0.00000  Uiso   1.00
C97    C     0.91255   0.16655   0.16677   0.00000  Uiso   1.00
C98    C     0.83326   0.16681   0.07364   0.00000  Uiso   1.00
C99    C     0.83341   0.16653   0.25969   0.00000  Uiso   1.00
C100   C     0.83330   0.16686   0.02187   0.00000  Uiso   1.00
C101   C     0.83336   0.16648   0.31146   0.00000  Uiso   1.00
C102   C     0.68830   0.12463   0.16631   0.00000  Uiso   1.00
C103   C     0.97837   0.20870   0.16703   0.00000  Uiso   1.00
C104   C     0.97904   0.12450   0.16641   0.00000  Uiso   1.00
Cu105  Cu    0.83333   0.21355   0.16667   0.00000  Uiso   1.00
Cu106  Cu    0.83333   0.11978   0.16667   0.00000  Uiso   1.00
H107   H     0.70455   0.09171   0.16604   0.00000  Uiso   1.00
H108   H     0.86067   0.05680   0.26601   0.00000  Uiso   1.00
H109   H     0.76710   0.26324   0.10717   0.00000  Uiso   1.00
H110   H     0.80600   0.27653   0.06732   0.00000  Uiso   1.00
H111   H     0.96212   0.24162   0.16730   0.00000  Uiso   1.00
H112   H     0.96332   0.09155   0.16618   0.00000  Uiso   1.00
H113   H     0.70335   0.24178   0.16716   0.00000  Uiso   1.00
H114   H     0.79202   0.04312   0.06379   0.00000  Uiso   1.00
H115   H     0.75312   0.04145   0.10411   0.00000  Uiso   1.00
H116   H     0.87465   0.29021   0.26954   0.00000  Uiso   1.00
H117   H     0.91355   0.29189   0.22922   0.00000  Uiso   1.00
H118   H     0.89957   0.07009   0.22616   0.00000  Uiso   1.00
N119   N     0.83333   0.28402   0.16667   0.00000  Uiso   1.00
N120   N     0.83333   0.04931   0.16667   0.00000  Uiso   1.00
N121   N     0.78360   0.05159   0.09946   0.00000  Uiso   1.00
N122   N     0.88306   0.28174   0.23387   0.00000  Uiso   1.00
N123   N     0.88037   0.04453   0.23936   0.00000  Uiso   1.00
N124   N     0.78630   0.28880   0.09398   0.00000  Uiso   1.00
O125   O     0.77321   0.20625   0.16666   0.00000  Uiso   1.00
O126   O     0.89345   0.12709   0.16667   0.00000  Uiso   1.00
O127   O     0.89345   0.20625   0.16667   0.00000  Uiso   1.00
O128   O     0.77321   0.12709   0.16666   0.00000  Uiso   1.00
O129   O     0.83333   0.20625   0.09613   0.00000  Uiso   1.00
O130   O     0.83333   0.12708   0.23720   0.00000  Uiso   1.00
O131   O     0.83333   0.20625   0.23720   0.00000  Uiso   1.00
O132   O     0.83333   0.12708   0.09613   0.00000  Uiso   1.00
C133   C     0.08745   0.50011   0.16657   0.00000  Uiso   1.00
C134   C     0.02096   0.54217   0.16692   0.00000  Uiso   1.00
C135   C     0.29055   0.49986   0.16676   0.00000  Uiso   1.00
C136   C     0.04278   0.50014   0.16657   0.00000  Uiso   1.00
C137   C     0.14273   0.35924   0.13364   0.00000  Uiso   1.00
C138   C     0.19061   0.64076   0.19970   0.00000  Uiso   1.00
C139   C     0.19020   0.35672   0.20050   0.00000  Uiso   1.00
C140   C     0.14313   0.64328   0.13283   0.00000  Uiso   1.00
C141   C     0.24588   0.49989   0.16677   0.00000  Uiso   1.00
C142   C     0.16659   0.50014   0.07364   0.00000  Uiso   1.00
C143   C     0.16675   0.49986   0.25969   0.00000  Uiso   1.00
C144   C     0.16664   0.50019   0.02187   0.00000  Uiso   1.00
C145   C     0.16670   0.49981   0.31146   0.00000  Uiso   1.00
C146   C     0.02163   0.45796   0.16631   0.00000  Uiso   1.00
C147   C     0.31170   0.54204   0.16703   0.00000  Uiso   1.00
C148   C     0.31237   0.45783   0.16641   0.00000  Uiso   1.00
Cu149  Cu    0.16667   0.54689   0.16667   0.00000  Uiso   1.00
Cu150  Cu    0.16667   0.45311   0.16667   0.00000  Uiso   1.00
H151   H     0.03788   0.42505   0.16604   0.00000  Uiso   1.00
H152   H     0.19401   0.39014   0.26601   0.00000  Uiso   1.00
H153   H     0.10043   0.59658   0.10717   0.00000  Uiso   1.00
H154   H     0.13933   0.60987   0.06732   0.00000  Uiso   1.00
H155   H     0.29545   0.57495   0.16730   0.00000  Uiso   1.00
H156   H     0.29665   0.42488   0.16618   0.00000  Uiso   1.00
H157   H     0.03669   0.57512   0.16716   0.00000  Uiso   1.00
H158   H     0.12535   0.37646   0.06379   0.00000  Uiso   1.00
H159   H     0.08645   0.37478   0.10411   0.00000  Uiso   1.00
H160   H     0.20798   0.62354   0.26954   0.00000  Uiso   1.00
H161   H     0.24688   0.62522   0.22922   0.00000  Uiso   1.00
H162   H     0.23291   0.40342   0.22616   0.00000  Uiso   1.00
N163   N     0.16667   0.61736   0.16667   0.00000  Uiso   1.00
N164   N     0.16667   0.38264   0.16667   0.00000  Uiso   1.00
N165   N     0.11694   0.38493   0.09946   0.00000  Uiso   1.00
N166   N     0.21640   0.61507   0.23387   0.00000  Uiso   1.00
N167   N     0.21370   0.37786   0.23936   0.00000  Uiso   1.00
N168   N     0.11963   0.62214   0.09398   0.00000  Uiso   1.00
O169   O     0.10655   0.53958   0.16666   0.00000  Uiso   1.00
O170   O     0.22679   0.46042   0.16667   0.00000  Uiso   1.00
O171   O     0.22679   0.53958   0.16667   0.00000  Uiso   1.00
O172   O     0.10655   0.46042   0.16666   0.00000  Uiso   1.00
O173   O     0.16667   0.53959   0.09613   0.00000  Uiso   1.00
O174   O     0.16667   0.46041   0.23720   0.00000  Uiso   1.00
O175   O     0.16667   0.53959   0.23720   0.00000  Uiso   1.00
O176   O     0.16667   0.46041   0.09613   0.00000  Uiso   1.00
C177   C     0.42078   0.50011   0.16657   0.00000  Uiso   1.00
C178   C     0.35429   0.54217   0.16692   0.00000  Uiso   1.00
C179   C     0.62389   0.49986   0.16676   0.00000  Uiso   1.00
C180   C     0.37612   0.50014   0.16657   0.00000  Uiso   1.00
C181   C     0.47606   0.35924   0.13364   0.00000  Uiso   1.00
C182   C     0.52394   0.64076   0.19970   0.00000  Uiso   1.00
C183   C     0.52354   0.35672   0.20050   0.00000  Uiso   1.00
C184   C     0.47646   0.64328   0.13283   0.00000  Uiso   1.00
C185   C     0.57922   0.49989   0.16677   0.00000  Uiso   1.00
C186   C     0.49992   0.50014   0.07364   0.00000  Uiso   1.00
C187   C     0.50008   0.49986   0.25969   0.00000  Uiso   1.00
C188   C     0.49997   0.50019   0.02187   0.00000  Uiso   1.00
C189   C     0.50003   0.49981   0.31146   0.00000  Uiso   1.00
C190   C     0.35496   0.45796   0.16631   0.00000  Uiso   1.00
C191   C     0.64504   0.54204   0.16703   0.00000  Uiso   1.00
C192   C     0.64571   0.45783   0.16641   0.00000  Uiso   1.00
Cu193  Cu    0.50000   0.54689   0.16667   0.00000  Uiso   1.00
Cu194  Cu    0.50000   0.45311   0.16667   0.00000  Uiso   1.00
H195   H     0.37122   0.42505   0.16604   0.00000  Uiso   1.00
H196   H     0.52734   0.39014   0.26601   0.00000  Uiso   1.00
H197   H     0.43376   0.59658   0.10717   0.00000  Uiso   1.00
H198   H     0.47266   0.60987   0.06732   0.00000  Uiso   1.00
H199   H     0.62878   0.57495   0.16730   0.00000  Uiso   1.00
H200   H     0.62998   0.42488   0.16618   0.00000  Uiso   1.00
H201   H     0.37002   0.57512   0.16716   0.00000  Uiso   1.00
H202   H     0.45868   0.37646   0.06379   0.00000  Uiso   1.00
H203   H     0.41979   0.37478   0.10411   0.00000  Uiso   1.00
H204   H     0.54132   0.62354   0.26954   0.00000  Uiso   1.00
H205   H     0.58021   0.62522   0.22922   0.00000  Uiso   1.00
H206   H     0.56624   0.40342   0.22616   0.00000  Uiso   1.00
N207   N     0.50000   0.61736   0.16667   0.00000  Uiso   1.00
N208   N     0.50000   0.38264   0.16667   0.00000  Uiso   1.00
N209   N     0.45027   0.38493   0.09946   0.00000  Uiso   1.00
N210   N     0.54973   0.61507   0.23387   0.00000  Uiso   1.00
N211   N     0.54704   0.37786   0.23936   0.00000  Uiso   1.00
N212   N     0.45297   0.62214   0.09398   0.00000  Uiso   1.00
O213   O     0.43988   0.53958   0.16666   0.00000  Uiso   1.00
O214   O     0.56012   0.46042   0.16667   0.00000  Uiso   1.00
O215   O     0.56012   0.53958   0.16667   0.00000  Uiso   1.00
O216   O     0.43988   0.46042   0.16666   0.00000  Uiso   1.00
O217   O     0.50000   0.53959   0.09613   0.00000  Uiso   1.00
O218   O     0.50000   0.46041   0.23720   0.00000  Uiso   1.00
O219   O     0.50000   0.53959   0.23720   0.00000  Uiso   1.00
O220   O     0.50000   0.46041   0.09613   0.00000  Uiso   1.00
C221   C     0.75412   0.50011   0.16657   0.00000  Uiso   1.00
C222   C     0.68763   0.54217   0.16692   0.00000  Uiso   1.00
C223   C     0.95722   0.49986   0.16676   0.00000  Uiso   1.00
C224   C     0.70945   0.50014   0.16657   0.00000  Uiso   1.00
C225   C     0.80939   0.35924   0.13364   0.00000  Uiso   1.00
C226   C     0.85727   0.64076   0.19970   0.00000  Uiso   1.00
C227   C     0.85687   0.35672   0.20050   0.00000  Uiso   1.00
C228   C     0.80980   0.64328   0.13283   0.00000  Uiso   1.00
C229   C     0.91255   0.49989   0.16677   0.00000  Uiso   1.00
C230   C     0.83326   0.50014   0.07364   0.00000  Uiso   1.00
C231   C     0.83341   0.49986   0.25969   0.00000  Uiso   1.00
C232   C     0.83330   0.50019   0.02187   0.00000  Uiso   1.00
C233   C     0.83336   0.49981   0.31146   0.00000  Uiso   1.00
C234   C     0.68830   0.45796   0.16631   0.00000  Uiso   1.00
C235   C     0.97837   0.54204   0.16703   0.00000  Uiso   1.00
C236   C     0.97904   0.45783   0.16641   0.00000  Uiso   1.00
Cu237  Cu    0.83333   0.54689   0.16667   0.00000  Uiso   1.00
Cu238  Cu    0.83333   0.45311   0.16667   0.00000  Uiso   1.00
H239   H     0.70455   0.42505   0.16604   0.00000  Uiso   1.00
H240   H     0.86067   0.39014   0.26601   0.00000  Uiso   1.00
H241   H     0.76710   0.59658   0.10717   0.00000  Uiso   1.00
H242   H     0.80600   0.60987   0.06732   0.00000  Uiso   1.00
H243   H     0.96212   0.57495   0.16730   0.00000  Uiso   1.00
H244   H     0.96332   0.42488   0.16618   0.00000  Uiso   1.00
H245   H     0.70335   0.57512   0.16716   0.00000  Uiso   1.00
H246   H     0.79202   0.37646   0.06379   0.00000  Uiso   1.00
H247   H     0.75312   0.37478   0.10411   0.00000  Uiso   1.00
H248   H     0.87465   0.62354   0.26954   0.00000  Uiso   1.00
H249   H     0.91355   0.62522   0.22922   0.00000  Uiso   1.00
H250   H     0.89957   0.40342   0.22616   0.00000  Uiso   1.00
N251   N     0.83333   0.61736   0.16667   0.00000  Uiso   1.00
N252   N     0.83333   0.38264   0.16667   0.00000  Uiso   1.00
N253   N     0.78360   0.38493   0.09946   0.00000  Uiso   1.00
N254   N     0.88306   0.61507   0.23387   0.00000  Uiso   1.00
N255   N     0.88037   0.37786   0.23936   0.00000  Uiso   1.00
N256   N     0.78630   0.62214   0.09398   0.00000  Uiso   1.00
O257   O     0.77321   0.53958   0.16666   0.00000  Uiso   1.00
O258   O     0.89345   0.46042   0.16667   0.00000  Uiso   1.00
O259   O     0.89345   0.53958   0.16667   0.00000  Uiso   1.00
O260   O     0.77321   0.46042   0.16666   0.00000  Uiso   1.00
O261   O     0.83333   0.53959   0.09613   0.00000  Uiso   1.00
O262   O     0.83333   0.46041   0.23720   0.00000  Uiso   1.00
O263   O     0.83333   0.53959   0.23720   0.00000  Uiso   1.00
O264   O     0.83333   0.46041   0.09613   0.00000  Uiso   1.00
C265   C     0.08745   0.83345   0.16657   0.00000  Uiso   1.00
C266   C     0.02096   0.87550   0.16692   0.00000  Uiso   1.00
C267   C     0.29055   0.83320   0.16676   0.00000  Uiso   1.00
C268   C     0.04278   0.83347   0.16657   0.00000  Uiso   1.00
C269   C     0.14273   0.69258   0.13364   0.00000  Uiso   1.00
C270   C     0.19061   0.97409   0.19970   0.00000  Uiso   1.00
C271   C     0.19020   0.69006   0.20050   0.00000  Uiso   1.00
C272   C     0.14313   0.97661   0.13283   0.00000  Uiso   1.00
C273   C     0.24588   0.83322   0.16677   0.00000  Uiso   1.00
C274   C     0.16659   0.83347   0.07364   0.00000  Uiso   1.00
C275   C     0.16675   0.83319   0.25969   0.00000  Uiso   1.00
C276   C     0.16664   0.83353   0.02187   0.00000  Uiso   1.00
C277   C     0.16670   0.83314   0.31146   0.00000  Uiso   1.00
C278   C     0.02163   0.79130   0.16631   0.00000  Uiso   1.00
C279   C     0.31170   0.87537   0.16703   0.00000  Uiso   1.00
C280   C     0.31237   0.79117   0.16641   0.00000  Uiso   1.00
Cu281  Cu    0.16667   0.88022   0.16667   0.00000  Uiso   1.00
Cu282  Cu    0.16667   0.78645   0.16667   0.00000  Uiso   1.00
H283   H     0.03788   0.75838   0.16604   0.00000  Uiso   1.00
H284   H     0.19401   0.72347   0.26601   0.00000  Uiso   1.00
H285   H     0.10043   0.92991   0.10717   0.00000  Uiso   1.00
H286   H     0.13933   0.94320   0.06732   0.00000  Uiso   1.00
H287   H     0.29545   0.90829   0.16730   0.00000  Uiso   1.00
H288   H     0.29665   0.75822   0.16618   0.00000  Uiso   1.00
H289   H     0.03669   0.90845   0.16716   0.00000  Uiso   1.00
H290   H     0.12535   0.70979   0.06379   0.00000  Uiso   1.00
H291   H     0.08645   0.70811   0.10411   0.00000  Uiso   1.00
H292   H     0.20798   0.95688   0.26954   0.00000  Uiso   1.00
H293   H     0.24688   0.95855   0.22922   0.00000  Uiso   1.00
H294   H     0.23291   0.73676   0.22616   0.00000  Uiso   1.00
N295   N     0.16667   0.95069   0.16667   0.00000  Uiso   1.00
N296   N     0.16667   0.71598   0.16667   0.00000  Uiso   1.00
N297   N     0.11694   0.71826   0.09946   0.00000  Uiso   1.00
N298   N     0.21640   0.94841   0.23387   0.00000  Uiso   1.00
N299   N     0.21370   0.71120   0.23936   0.00000  Uiso   1.00
N300   N     0.11963   0.95547   0.09398   0.00000  Uiso   1.00
O301   O     0.10655   0.87291   0.16666   0.00000  Uiso   1.00
O302   O     0.22679   0.79375   0.16667   0.00000  Uiso   1.00
O303   O     0.22679   0.87291   0.16667   0.00000  Uiso   1.00
O304   O     0.10655   0.79375   0.16666   0.00000  Uiso   1.00
O305   O     0.16667   0.87292   0.09613   0.00000  Uiso   1.00
O306   O     0.16667   0.79375   0.23720   0.00000  Uiso   1.00
O307   O     0.16667   0.87292   0.23720   0.00000  Uiso   1.00
O308   O     0.16667   0.79375   0.09613   0.00000  Uiso   1.00
C309   C     0.42078   0.83345   0.16657   0.00000  Uiso   1.00
C310   C     0.35429   0.87550   0.16692   0.00000  Uiso   1.00
C311   C     0.62389   0.83320   0.16676   0.00000  Uiso   1.00
C312   C     0.37612   0.83347   0.16657   0.00000  Uiso   1.00
C313   C     0.47606   0.69258   0.13364   0.00000  Uiso   1.00
C314   C     0.52394   0.97409   0.19970   0.00000  Uiso   1.00
C315   C     0.52354   0.69006   0.20050   0.00000  Uiso   1.00
C316   C     0.47646   0.97661   0.13283   0.00000  Uiso   1.00
C317   C     0.57922   0.83322   0.16677   0.00000  Uiso   1.00
C318   C     0.49992   0.83347   0.07364   0.00000  Uiso   1.00
C319   C     0.50008   0.83319   0.25969   0.00000  Uiso   1.00
C320   C     0.49997   0.83353   0.02187   0.00000  Uiso   1.00
C321   C     0.50003   0.83314   0.31146   0.00000  Uiso   1.00
C322   C     0.35496   0.79130   0.16631   0.00000  Uiso   1.00
C323   C     0.64504   0.87537   0.16703   0.00000  Uiso   1.00
C324   C     0.64571   0.79117   0.16641   0.00000  Uiso   1.00
Cu325  Cu    0.50000   0.88022   0.16667   0.00000  Uiso   1.00
Cu326  Cu    0.50000   0.78645   0.16667   0.00000  Uiso   1.00
H327   H     0.37122   0.75838   0.16604   0.00000  Uiso   1.00
H328   H     0.52734   0.72347   0.26601   0.00000  Uiso   1.00
H329   H     0.43376   0.92991   0.10717   0.00000  Uiso   1.00
H330   H     0.47266   0.94320   0.06732   0.00000  Uiso   1.00
H331   H     0.62878   0.90829   0.16730   0.00000  Uiso   1.00
H332   H     0.62998   0.75822   0.16618   0.00000  Uiso   1.00
H333   H     0.37002   0.90845   0.16716   0.00000  Uiso   1.00
H334   H     0.45868   0.70979   0.06379   0.00000  Uiso   1.00
H335   H     0.41979   0.70811   0.10411   0.00000  Uiso   1.00
H336   H     0.54132   0.95688   0.26954   0.00000  Uiso   1.00
H337   H     0.58021   0.95855   0.22922   0.00000  Uiso   1.00
H338   H     0.56624   0.73676   0.22616   0.00000  Uiso   1.00
N339   N     0.50000   0.95069   0.16667   0.00000  Uiso   1.00
N340   N     0.50000   0.71598   0.16667   0.00000  Uiso   1.00
N341   N     0.45027   0.71826   0.09946   0.00000  Uiso   1.00
N342   N     0.54973   0.94841   0.23387   0.00000  Uiso   1.00
N343   N     0.54704   0.71120   0.23936   0.00000  Uiso   1.00
N344   N     0.45297   0.95547   0.09398   0.00000  Uiso   1.00
O345   O     0.43988   0.87291   0.16666   0.00000  Uiso   1.00
O346   O     0.56012   0.79375   0.16667   0.00000  Uiso   1.00
O347   O     0.56012   0.87291   0.16667   0.00000  Uiso   1.00
O348   O     0.43988   0.79375   0.16666   0.00000  Uiso   1.00
O349   O     0.50000   0.87292   0.09613   0.00000  Uiso   1.00
O350   O     0.50000   0.79375   0.23720   0.00000  Uiso   1.00
O351   O     0.50000   0.87292   0.23720   0.00000  Uiso   1.00
O352   O     0.50000   0.79375   0.09613   0.00000  Uiso   1.00
C353   C     0.75412   0.83345   0.16657   0.00000  Uiso   1.00
C354   C     0.68763   0.87550   0.16692   0.00000  Uiso   1.00
C355   C     0.95722   0.83320   0.16676   0.00000  Uiso   1.00
C356   C     0.70945   0.83347   0.16657   0.00000  Uiso   1.00
C357   C     0.80939   0.69258   0.13364   0.00000  Uiso   1.00
C358   C     0.85727   0.97409   0.19970   0.00000  Uiso   1.00
C359   C     0.85687   0.69006   0.20050   0.00000  Uiso   1.00
C360   C     0.80980   0.97661   0.13283   0.00000  Uiso   1.00
C361   C     0.91255   0.83322   0.16677   0.00000  Uiso   1.00
C362   C     0.83326   0.83347   0.07364   0.00000  Uiso   1.00
C363   C     0.83341   0.83319   0.25969   0.00000  Uiso   1.00
C364   C     0.83330   0.83353   0.02187   0.00000  Uiso   1.00
C365   C     0.83336   0.83314   0.31146   0.00000  Uiso   1.00
C366   C     0.68830   0.79130   0.16631   0.00000  Uiso   1.00
C367   C     0.97837   0.87537   0.16703   0.00000  Uiso   1.00
C368   C     0.97904   0.79117   0.16641   0.00000  Uiso   1.00
Cu369  Cu    0.83333   0.88022   0.16667   0.00000  Uiso   1.00
Cu370  Cu    0.83333   0.78645   0.16667   0.00000  Uiso   1.00
H371   H     0.70455   0.75838   0.16604   0.00000  Uiso   1.00
H372   H     0.86067   0.72347   0.26601   0.00000  Uiso   1.00
H373   H     0.76710   0.92991   0.10717   0.00000  Uiso   1.00
H374   H     0.80600   0.94320   0.06732   0.00000  Uiso   1.00
H375   H     0.96212   0.90829   0.16730   0.00000  Uiso   1.00
H376   H     0.96332   0.75822   0.16618   0.00000  Uiso   1.00
H377   H     0.70335   0.90845   0.16716   0.00000  Uiso   1.00
H378   H     0.79202   0.70979   0.06379   0.00000  Uiso   1.00
H379   H     0.75312   0.70811   0.10411   0.00000  Uiso   1.00
H380   H     0.87465   0.95688   0.26954   0.00000  Uiso   1.00
H381   H     0.91355   0.95855   0.22922   0.00000  Uiso   1.00
H382   H     0.89957   0.73676   0.22616   0.00000  Uiso   1.00
N383   N     0.83333   0.95069   0.16667   0.00000  Uiso   1.00
N384   N     0.83333   0.71598   0.16667   0.00000  Uiso   1.00
N385   N     0.78360   0.71826   0.09946   0.00000  Uiso   1.00
N386   N     0.88306   0.94841   0.23387   0.00000  Uiso   1.00
N387   N     0.88037   0.71120   0.23936   0.00000  Uiso   1.00
N388   N     0.78630   0.95547   0.09398   0.00000  Uiso   1.00
O389   O     0.77321   0.87291   0.16666   0.00000  Uiso   1.00
O390   O     0.89345   0.79375   0.16667   0.00000  Uiso   1.00
O391   O     0.89345   0.87291   0.16667   0.00000  Uiso   1.00
O392   O     0.77321   0.79375   0.16666   0.00000  Uiso   1.00
O393   O     0.83333   0.87292   0.09613   0.00000  Uiso   1.00
O394   O     0.83333   0.79375   0.23720   0.00000  Uiso   1.00
O395   O     0.83333   0.87292   0.23720   0.00000  Uiso   1.00
O396   O     0.83333   0.79375   0.09613   0.00000  Uiso   1.00
C397   C     0.08745   0.16678   0.49990   0.00000  Uiso   1.00
C398   C     0.02096   0.20883   0.50026   0.00000  Uiso   1.00
C399   C     0.29055   0.16653   0.50009   0.00000  Uiso   1.00
C400   C     0.04278   0.16680   0.49991   0.00000  Uiso   1.00
C401   C     0.14273   0.02591   0.46697   0.00000  Uiso   1.00
C402   C     0.19061   0.30742   0.53303   0.00000  Uiso   1.00
C403   C     0.19020   0.02339   0.53384   0.00000  Uiso   1.00
C404   C     0.14313   0.30994   0.46616   0.00000  Uiso   1.00
C405   C     0.24588   0.16655   0.50010   0.00000  Uiso   1.00
C406   C     0.16659   0.16681   0.40697   0.00000  Uiso   1.00
C407   C     0.16675   0.16653   0.59303   0.00000  Uiso   1.00
C408   C     0.16664   0.16686   0.35521   0.00000  Uiso   1.00
C409   C     0.16670   0.16648   0.64479   0.00000  Uiso   1.00
C410   C     0.02163   0.12463   0.49964   0.00000  Uiso   1.00
C411   C     0.31170   0.20870   0.50036   0.00000  Uiso   1.00
C412   C     0.31237   0.12450   0.49974   0.00000  Uiso   1.00
Cu413  Cu    0.16667   0.21355   0.50000   0.00000  Uiso   1.00
Cu414  Cu    0.16667   0.11978   0.50000   0.00000  Uiso   1.00
H415   H     0.03788   0.09171   0.49937   0.00000  Uiso   1.00
H416   H     0.19401   0.05680   0.59934   0.00000  Uiso   1.00
H417   H     0.10043   0.26324   0.44050   0.00000  Uiso   1.00
H418   H     0.13933   0.27653   0.40066   0.00000  Uiso   1.00
H419   H     0.29545   0.24162   0.50063   0.00000  Uiso   1.00
H420   H     0.29665   0.09155   0.49951   0.00000  Uiso   1.00
H421   H     0.03669   0.24178   0.50049   0.00000  Uiso   1.00
H422   H     0.12535   0.04312   0.39713   0.00000  Uiso   1.00
H423   H     0.08645   0.04145   0.43744   0.00000  Uiso   1.00
H424   H     0.20798   0.29021   0.60288   0.00000  Uiso   1.00
H425   H     0.24688   0.29189   0.56256   0.00000  Uiso   1.00
H426   H     0.23291   0.07009   0.55950   0.00000  Uiso   1.00
N427   N     0.16667   0.28402   0.50000   0.00000  Uiso   1.00
N428   N     0.16667   0.04931   0.50000   0.00000  Uiso   1.00
N429   N     0.11694   0.05159   0.43279   0.00000  Uiso   1.00
N430   N     0.21640   0.28174   0.56721   0.00000  Uiso   1.00
N431   N     0.21370   0.04453   0.57269   0.00000  Uiso   1.00
N432   N     0.11963   0.28880   0.42731   0.00000  Uiso   1.00
O433   O     0.10655   0.20625   0.50000   0.00000  Uiso   1.00
O434   O     0.22679   0.12709   0.50000   0.00000  Uiso   1.00
O435   O     0.22679   0.20625   0.50000   0.00000  Uiso   1.00
O436   O     0.10655   0.12709   0.50000   0.00000  Uiso   1.00
O437   O     0.16667   0.20625   0.42946   0.00000  Uiso   1.00
O438   O     0.16667   0.12708   0.57054   0.00000  Uiso   1.00
O439   O     0.16667   0.20625   0.57054   0.00000  Uiso   1.00
O440   O     0.16667   0.12708   0.42946   0.00000  Uiso   1.00
C441   C     0.42078   0.16678   0.49990   0.00000  Uiso   1.00
C442   C     0.35429   0.20883   0.50026   0.00000  Uiso   1.00
C443   C     0.62389   0.16653   0.50009   0.00000  Uiso   1.00
C444   C     0.37612   0.16680   0.49991   0.00000  Uiso   1.00
C445   C     0.47606   0.02591   0.46697   0.00000  Uiso   1.00
C446   C     0.52394   0.30742   0.53303   0.00000  Uiso   1.00
C447   C     0.52354   0.02339   0.53384   0.00000  Uiso   1.00
C448   C     0.47646   0.30994   0.46616   0.00000  Uiso   1.00
C449   C     0.57922   0.16655   0.50010   0.00000  Uiso   1.00
C450   C     0.49992   0.16681   0.40697   0.00000  Uiso   1.00
C451   C     0.50008   0.16653   0.59303   0.00000  Uiso   1.00
C452   C     0.49997   0.16686   0.35521   0.00000  Uiso   1.00
C453   C     0.50003   0.16648   0.64479   0.00000  Uiso   1.00
C454   C     0.35496   0.12463   0.49964   0.00000  Uiso   1.00
C455   C     0.64504   0.20870   0.50036   0.00000  Uiso   1.00
C456   C     0.64571   0.12450   0.49974   0.00000  Uiso   1.00
Cu457  Cu    0.50000   0.21355   0.50000   0.00000  Uiso   1.00
Cu458  Cu    0.50000   0.11978   0.50000   0.00000  Uiso   1.00
H459   H     0.37122   0.09171   0.49937   0.00000  Uiso   1.00
H460   H     0.52734   0.05680   0.59934   0.00000  Uiso   1.00
H461   H     0.43376   0.26324   0.44050   0.00000  Uiso   1.00
H462   H     0.47266   0.27653   0.40066   0.00000  Uiso   1.00
H463   H     0.62878   0.24162   0.50063   0.00000  Uiso   1.00
H464   H     0.62998   0.09155   0.49951   0.00000  Uiso   1.00
H465   H     0.37002   0.24178   0.50049   0.00000  Uiso   1.00
H466   H     0.45868   0.04312   0.39713   0.00000  Uiso   1.00
H467   H     0.41979   0.04145   0.43744   0.00000  Uiso   1.00
H468   H     0.54132   0.29021   0.60288   0.00000  Uiso   1.00
H469   H     0.58021   0.29189   0.56256   0.00000  Uiso   1.00
H470   H     0.56624   0.07009   0.55950   0.00000  Uiso   1.00
N471   N     0.50000   0.28402   0.50000   0.00000  Uiso   1.00
N472   N     0.50000   0.04931   0.50000   0.00000  Uiso   1.00
N473   N     0.45027   0.05159   0.43279   0.00000  Uiso   1.00
N474   N     0.54973   0.28174   0.56721   0.00000  Uiso   1.00
N475   N     0.54704   0.04453   0.57269   0.00000  Uiso   1.00
N476   N     0.45297   0.28880   0.42731   0.00000  Uiso   1.00
O477   O     0.43988   0.20625   0.50000   0.00000  Uiso   1.00
O478   O     0.56012   0.12709   0.50000   0.00000  Uiso   1.00
O479   O     0.56012   0.20625   0.50000   0.00000  Uiso   1.00
O480   O     0.43988   0.12709   0.50000   0.00000  Uiso   1.00
O481   O     0.50000   0.20625   0.42946   0.00000  Uiso   1.00
O482   O     0.50000   0.12708   0.57054   0.00000  Uiso   1.00
O483   O     0.50000   0.20625   0.57054   0.00000  Uiso   1.00
O484   O     0.50000   0.12708   0.42946   0.00000  Uiso   1.00
C485   C     0.75412   0.16678   0.49990   0.00000  Uiso   1.00
C486   C     0.68763   0.20883   0.50026   0.00000  Uiso   1.00
C487   C     0.95722   0.16653   0.50009   0.00000  Uiso   1.00
C488   C     0.70945   0.16680   0.49991   0.00000  Uiso   1.00
C489   C     0.80939   0.02591   0.46697   0.00000  Uiso   1.00
C490   C     0.85727   0.30742   0.53303   0.00000  Uiso   1.00
C491   C     0.85687   0.02339   0.53384   0.00000  Uiso   1.00
C492   C     0.80980   0.30994   0.46616   0.00000  Uiso   1.00
C493   C     0.91255   0.16655   0.50010   0.00000  Uiso   1.00
C494   C     0.83326   0.16681   0.40697   0.00000  Uiso   1.00
C495   C     0.83341   0.16653   0.59303   0.00000  Uiso   1.00
C496   C     0.83330   0.16686   0.35521   0.00000  Uiso   1.00
C497   C     0.83336   0.16648   0.64479   0.00000  Uiso   1.00
C498   C     0.68830   0.12463   0.49964   0.00000  Uiso   1.00
C499   C     0.97837   0.20870   0.50036   0.00000  Uiso   1.00
C500   C     0.97904   0.12450   0.49974   0.00000  Uiso   1.00
Cu501  Cu    0.83333   0.21355   0.50000   0.00000  Uiso   1.00
Cu502  Cu    0.83333   0.11978   0.50000   0.00000  Uiso   1.00
H503   H     0.70455   0.09171   0.49937   0.00000  Uiso   1.00
H504   H     0.86067   0.05680   0.59934   0.00000  Uiso   1.00
H505   H     0.76710   0.26324   0.44050   0.00000  Uiso   1.00
H506   H     0.80600   0.27653   0.40066   0.00000  Uiso   1.00
H507   H     0.96212   0.24162   0.50063   0.00000  Uiso   1.00
H508   H     0.96332   0.09155   0.49951   0.00000  Uiso   1.00
H509   H     0.70335   0.24178   0.50049   0.00000  Uiso   1.00
H510   H     0.79202   0.04312   0.39713   0.00000  Uiso   1.00
H511   H     0.75312   0.04145   0.43744   0.00000  Uiso   1.00
H512   H     0.87465   0.29021   0.60288   0.00000  Uiso   1.00
H513   H     0.91355   0.29189   0.56256   0.00000  Uiso   1.00
H514   H     0.89957   0.07009   0.55950   0.00000  Uiso   1.00
N515   N     0.83333   0.28402   0.50000   0.00000  Uiso   1.00
N516   N     0.83333   0.04931   0.50000   0.00000  Uiso   1.00
N517   N     0.78360   0.05159   0.43279   0.00000  Uiso   1.00
N518   N     0.88306   0.28174   0.56721   0.00000  Uiso   1.00
N519   N     0.88037   0.04453   0.57269   0.00000  Uiso   1.00
N520   N     0.78630   0.28880   0.42731   0.00000  Uiso   1.00
O521   O     0.77321   0.20625   0.50000   0.00000  Uiso   1.00
O522   O     0.89345   0.12709   0.50000   0.00000  Uiso   1.00
O523   O     0.89345   0.20625   0.50000   0.00000  Uiso   1.00
O524   O     0.77321   0.12709   0.50000   0.00000  Uiso   1.00
O525   O     0.83333   0.20625   0.42946   0.00000  Uiso   1.00
O526   O     0.83333   0.12708   0.57054   0.00000  Uiso   1.00
O527   O     0.83333   0.20625   0.57054   0.00000  Uiso   1.00
O528   O     0.83333   0.12708   0.42946   0.00000  Uiso   1.00
C529   C     0.08745   0.50011   0.49990   0.00000  Uiso   1.00
C530   C     0.02096   0.54217   0.50026   0.00000  Uiso   1.00
C531   C     0.29055   0.49986   0.50009   0.00000  Uiso   1.00
C532   C     0.04278   0.50014   0.49991   0.00000  Uiso   1.00
C533   C     0.14273   0.35924   0.46697   0.00000  Uiso   1.00
C534   C     0.19061   0.64076   0.53303   0.00000  Uiso   1.00
C535   C     0.19020   0.35672   0.53384   0.00000  Uiso   1.00
C536   C     0.14313   0.64328   0.46616   0.00000  Uiso   1.00
C537   C     0.24588   0.49989   0.50010   0.00000  Uiso   1.00
C538   C     0.16659   0.50014   0.40697   0.00000  Uiso   1.00
C539   C     0.16675   0.49986   0.59303   0.00000  Uiso   1.00
C540   C     0.16664   0.50019   0.35521   0.00000  Uiso   1.00
C541   C     0.16670   0.49981   0.64479   0.00000  Uiso   1.00
C542   C     0.02163   0.45796   0.49964   0.00000  Uiso   1.00
C543   C     0.31170   0.54204   0.50036   0.00000  Uiso   1.00
C544   C     0.31237   0.45783   0.49974   0.00000  Uiso   1.00
Cu545  Cu    0.16667   0.54689   0.50000   0.00000  Uiso   1.00
Cu546  Cu    0.16667   0.45311   0.50000   0.00000  Uiso   1.00
H547   H     0.03788   0.42505   0.49937   0.00000  Uiso   1.00
H548   H     0.19401   0.39014   0.59934   0.00000  Uiso   1.00
H549   H     0.10043   0.59658   0.44050   0.00000  Uiso   1.00
H550   H     0.13933   0.60987   0.40066   0.00000  Uiso   1.00
H551   H     0.29545   0.57495   0.50063   0.00000  Uiso   1.00
H552   H     0.29665   0.42488   0.49951   0.00000  Uiso   1.00
H553   H     0.03669   0.57512   0.50049   0.00000  Uiso   1.00
H554   H     0.12535   0.37646   0.39713   0.00000  Uiso   1.00
H555   H     0.08645   0.37478   0.43744   0.00000  Uiso   1.00
H556   H     0.20798   0.62354   0.60288   0.00000  Uiso   1.00
H557   H     0.24688   0.62522   0.56256   0.00000  Uiso   1.00
H558   H     0.23291   0.40342   0.55950   0.00000  Uiso   1.00
N559   N     0.16667   0.61736   0.50000   0.00000  Uiso   1.00
N560   N     0.16667   0.38264   0.50000   0.00000  Uiso   1.00
N561   N     0.11694   0.38493   0.43279   0.00000  Uiso   1.00
N562   N     0.21640   0.61507   0.56721   0.00000  Uiso   1.00
N563   N     0.21370   0.37786   0.57269   0.00000  Uiso   1.00
N564   N     0.11963   0.62214   0.42731   0.00000  Uiso   1.00
O565   O     0.10655   0.53958   0.50000   0.00000  Uiso   1.00
O566   O     0.22679   0.46042   0.50000   0.00000  Uiso   1.00
O567   O     0.22679   0.53958   0.50000   0.00000  Uiso   1.00
O568   O     0.10655   0.46042   0.50000   0.00000  Uiso   1.00
O569   O     0.16667   0.53959   0.42946   0.00000  Uiso   1.00
O570   O     0.16667   0.46041   0.57054   0.00000  Uiso   1.00
O571   O     0.16667   0.53959   0.57054   0.00000  Uiso   1.00
O572   O     0.16667   0.46041   0.42946   0.00000  Uiso   1.00
C573   C     0.42078   0.50011   0.49990   0.00000  Uiso   1.00
C574   C     0.35429   0.54217   0.50026   0.00000  Uiso   1.00
C575   C     0.62389   0.49986   0.50009   0.00000  Uiso   1.00
C576   C     0.37612   0.50014   0.49991   0.00000  Uiso   1.00
C577   C     0.47606   0.35924   0.46697   0.00000  Uiso   1.00
C578   C     0.52394   0.64076   0.53303   0.00000  Uiso   1.00
C579   C     0.52354   0.35672   0.53384   0.00000  Uiso   1.00
C580   C     0.47646   0.64328   0.46616   0.00000  Uiso   1.00
C581   C     0.57922   0.49989   0.50010   0.00000  Uiso   1.00
C582   C     0.49992   0.50014   0.40697   0.00000  Uiso   1.00
C583   C     0.50008   0.49986   0.59303   0.00000  Uiso   1.00
C584   C     0.49997   0.50019   0.35521   0.00000  Uiso   1.00
C585   C     0.50003   0.49981   0.64479   0.00000  Uiso   1.00
C586   C     0.35496   0.45796   0.49964   0.00000  Uiso   1.00
C587   C     0.64504   0.54204   0.50036   0.00000  Uiso   1.00
C588   C     0.64571   0.45783   0.49974   0.00000  Uiso   1.00
Cu589  Cu    0.50000   0.54689   0.50000   0.00000  Uiso   1.00
Cu590  Cu    0.50000   0.45311   0.50000   0.00000  Uiso   1.00
H591   H     0.37122   0.42505   0.49937   0.00000  Uiso   1.00
H592   H     0.52734   0.39014   0.59934   0.00000  Uiso   1.00
H593   H     0.43376   0.59658   0.44050   0.00000  Uiso   1.00
H594   H     0.47266   0.60987   0.40066   0.00000  Uiso   1.00
H595   H     0.62878   0.57495   0.50063   0.00000  Uiso   1.00
H596   H     0.62998   0.42488   0.49951   0.00000  Uiso   1.00
H597   H     0.37002   0.57512   0.50049   0.00000  Uiso   1.00
H598   H     0.45868   0.37646   0.39713   0.00000  Uiso   1.00
H599   H     0.41979   0.37478   0.43744   0.00000  Uiso   1.00
H600   H     0.54132   0.62354   0.60288   0.00000  Uiso   1.00
H601   H     0.58021   0.62522   0.56256   0.00000  Uiso   1.00
H602   H     0.56624   0.40342   0.55950   0.00000  Uiso   1.00
N603   N     0.50000   0.61736   0.50000   0.00000  Uiso   1.00
N604   N     0.50000   0.38264   0.50000   0.00000  Uiso   1.00
N605   N     0.45027   0.38493   0.43279   0.00000  Uiso   1.00
N606   N     0.54973   0.61507   0.56721   0.00000  Uiso   1.00
N607   N     0.54704   0.37786   0.57269   0.00000  Uiso   1.00
N608   N     0.45297   0.62214   0.42731   0.00000  Uiso   1.00
O609   O     0.43988   0.53958   0.50000   0.00000  Uiso   1.00
O610   O     0.56012   0.46042   0.50000   0.00000  Uiso   1.00
O611   O     0.56012   0.53958   0.50000   0.00000  Uiso   1.00
O612   O     0.43988   0.46042   0.50000   0.00000  Uiso   1.00
O613   O     0.50000   0.53959   0.42946   0.00000  Uiso   1.00
O614   O     0.50000   0.46041   0.57054   0.00000  Uiso   1.00
O615   O     0.50000   0.53959   0.57054   0.00000  Uiso   1.00
O616   O     0.50000   0.46041   0.42946   0.00000  Uiso   1.00
C617   C     0.75412   0.50011   0.49990   0.00000  Uiso   1.00
C618   C     0.68763   0.54217   0.50026   0.00000  Uiso   1.00
C619   C     0.95722   0.49986   0.50009   0.00000  Uiso   1.00
C620   C     0.70945   0.50014   0.49991   0.00000  Uiso   1.00
C621   C     0.80939   0.35924   0.46697   0.00000  Uiso   1.00
C622   C     0.85727   0.64076   0.53303   0.00000  Uiso   1.00
C623   C     0.85687   0.35672   0.53384   0.00000  Uiso   1.00
C624   C     0.80980   0.64328   0.46616   0.00000  Uiso   1.00
C625   C     0.91255   0.49989   0.50010   0.00000  Uiso   1.00
C626   C     0.83326   0.50014   0.40697   0.00000  Uiso   1.00
C627   C     0.83341   0.49986   0.59303   0.00000  Uiso   1.00
C628   C     0.83330   0.50019   0.35521   0.00000  Uiso   1.00
C629   C     0.83336   0.49981   0.64479   0.00000  Uiso   1.00
C630   C     0.68830   0.45796   0.49964   0.00000  Uiso   1.00
C631   C     0.97837   0.54204   0.50036   0.00000  Uiso   1.00
C632   C     0.97904   0.45783   0.49974   0.00000  Uiso   1.00
Cu633  Cu    0.83333   0.54689   0.50000   0.00000  Uiso   1.00
Cu634  Cu    0.83333   0.45311   0.50000   0.00000  Uiso   1.00
H635   H     0.70455   0.42505   0.49937   0.00000  Uiso   1.00
H636   H     0.86067   0.39014   0.59934   0.00000  Uiso   1.00
H637   H     0.76710   0.59658   0.44050   0.00000  Uiso   1.00
H638   H     0.80600   0.60987   0.40066   0.00000  Uiso   1.00
H639   H     0.96212   0.57495   0.50063   0.00000  Uiso   1.00
H640   H     0.96332   0.42488   0.49951   0.00000  Uiso   1.00
H641   H     0.70335   0.57512   0.50049   0.00000  Uiso   1.00
H642   H     0.79202   0.37646   0.39713   0.00000  Uiso   1.00
H643   H     0.75312   0.37478   0.43744   0.00000  Uiso   1.00
H644   H     0.87465   0.62354   0.60288   0.00000  Uiso   1.00
H645   H     0.91355   0.62522   0.56256   0.00000  Uiso   1.00
H646   H     0.89957   0.40342   0.55950   0.00000  Uiso   1.00
N647   N     0.83333   0.61736   0.50000   0.00000  Uiso   1.00
N648   N     0.83333   0.38264   0.50000   0.00000  Uiso   1.00
N649   N     0.78360   0.38493   0.43279   0.00000  Uiso   1.00
N650   N     0.88306   0.61507   0.56721   0.00000  Uiso   1.00
N651   N     0.88037   0.37786   0.57269   0.00000  Uiso   1.00
N652   N     0.78630   0.62214   0.42731   0.00000  Uiso   1.00
O653   O     0.77321   0.53958   0.50000   0.00000  Uiso   1.00
O654   O     0.89345   0.46042   0.50000   0.00000  Uiso   1.00
O655   O     0.89345   0.53958   0.50000   0.00000  Uiso   1.00
O656   O     0.77321   0.46042   0.50000   0.00000  Uiso   1.00
O657   O     0.83333   0.53959   0.42946   0.00000  Uiso   1.00
O658   O     0.83333   0.46041   0.57054   0.00000  Uiso   1.00
O659   O     0.83333   0.53959   0.57054   0.00000  Uiso   1.00
O660   O     0.83333   0.46041   0.42946   0.00000  Uiso   1.00
C661   C     0.08745   0.83345   0.49990   0.00000  Uiso   1.00
C662   C     0.02096   0.87550   0.50026   0.00000  Uiso   1.00
C663   C     0.29055   0.83320   0.50009   0.00000  Uiso   1.00
C664   C     0.04278   0.83347   0.49991   0.00000  Uiso   1.00
C665   C     0.14273   0.69258   0.46697   0.00000  Uiso   1.00
C666   C     0.19061   0.97409   0.53303   0.00000  Uiso   1.00
C667   C     0.19020   0.69006   0.53384   0.00000  Uiso   1.00
C668   C     0.14313   0.97661   0.46616   0.00000  Uiso   1.00
C669   C     0.24588   0.83322   0.50010   0.00000  Uiso   1.00
C670   C     0.16659   0.83347   0.40697   0.00000  Uiso   1.00
C671   C     0.16675   0.83319   0.59303   0.00000  Uiso   1.00
C672   C     0.16664   0.83353   0.35521   0.00000  Uiso   1.00
C673   C     0.16670   0.83314   0.64479   0.00000  Uiso   1.00
C674   C     0.02163   0.79130   0.49964   0.00000  Uiso   1.00
C675   C     0.31170   0.87537   0.50036   0.00000  Uiso   1.00
C676   C     0.31237   0.79117   0.49974   0.00000  Uiso   1.00
Cu677  Cu    0.16667   0.88022   0.50000   0.00000  Uiso   1.00
Cu678  Cu    0.16667   0.78645   0.50000   0.00000  Uiso   1.00
H679   H     0.03788   0.75838   0.49937   0.00000  Uiso   1.00
H680   H     0.19401   0.72347   0.59934   0.00000  Uiso   1.00
H681   H     0.10043   0.92991   0.44050   0.00000  Uiso   1.00
H682   H     0.13933   0.94320   0.40066   0.00000  Uiso   1.00
H683   H     0.29545   0.90829   0.50063   0.00000  Uiso   1.00
H684   H     0.29665   0.75822   0.49951   0.00000  Uiso   1.00
H685   H     0.03669   0.90845   0.50049   0.00000  Uiso   1.00
H686   H     0.12535   0.70979   0.39713   0.00000  Uiso   1.00
H687   H     0.08645   0.70811   0.43744   0.00000  Uiso   1.00
H688   H     0.20798   0.95688   0.60288   0.00000  Uiso   1.00
H689   H     0.24688   0.95855   0.56256   0.00000  Uiso   1.00
H690   H     0.23291   0.73676   0.55950   0.00000  Uiso   1.00
N691   N     0.16667   0.95069   0.50000   0.00000  Uiso   1.00
N692   N     0.16667   0.71598   0.50000   0.00000  Uiso   1.00
N693   N     0.11694   0.71826   0.43279   0.00000  Uiso   1.00
N694   N     0.21640   0.94841   0.56721   0.00000  Uiso   1.00
N695   N     0.21370   0.71120   0.57269   0.00000  Uiso   1.00
N696   N     0.11963   0.95547   0.42731   0.00000  Uiso   1.00
O697   O     0.10655   0.87291   0.50000   0.00000  Uiso   1.00
O698   O     0.22679   0.79375   0.50000   0.00000  Uiso   1.00
O699   O     0.22679   0.87291   0.50000   0.00000  Uiso   1.00
O700   O     0.10655   0.79375   0.50000   0.00000  Uiso   1.00
O701   O     0.16667   0.87292   0.42946   0.00000  Uiso   1.00
O702   O     0.16667   0.79375   0.57054   0.00000  Uiso   1.00
O703   O     0.16667   0.87292   0.57054   0.00000  Uiso   1.00
O704   O     0.16667   0.79375   0.42946   0.00000  Uiso   1.00
C705   C     0.42078   0.83345   0.49990   0.00000  Uiso   1.00
C706   C     0.35429   0.87550   0.50026   0.00000  Uiso   1.00
C707   C     0.62389   0.83320   0.50009   0.00000  Uiso   1.00
C708   C     0.37612   0.83347   0.49991   0.00000  Uiso   1.00
C709   C     0.47606   0.69258   0.46697   0.00000  Uiso   1.00
C710   C     0.52394   0.97409   0.53303   0.00000  Uiso   1.00
C711   C     0.52354   0.69006   0.53384   0.00000  Uiso   1.00
C712   C     0.47646   0.97661   0.46616   0.00000  Uiso   1.00
C713   C     0.57922   0.83322   0.50010   0.00000  Uiso   1.00
C714   C     0.49992   0.83347   0.40697   0.00000  Uiso   1.00
C715   C     0.50008   0.83319   0.59303   0.00000  Uiso   1.00
C716   C     0.49997   0.83353   0.35521   0.00000  Uiso   1.00
C717   C     0.50003   0.83314   0.64479   0.00000  Uiso   1.00
C718   C     0.35496   0.79130   0.49964   0.00000  Uiso   1.00
C719   C     0.64504   0.87537   0.50036   0.00000  Uiso   1.00
C720   C     0.64571   0.79117   0.49974   0.00000  Uiso   1.00
Cu721  Cu    0.50000   0.88022   0.50000   0.00000  Uiso   1.00
Cu722  Cu    0.50000   0.78645   0.50000   0.00000  Uiso   1.00
H723   H     0.37122   0.75838   0.49937   0.00000  Uiso   1.00
H724   H     0.52734   0.72347   0.59934   0.00000  Uiso   1.00
H725   H     0.43376   0.92991   0.44050   0.00000  Uiso   1.00
H726   H     0.47266   0.94320   0.40066   0.00000  Uiso   1.00
H727   H     0.62878   0.90829   0.50063   0.00000  Uiso   1.00
H728   H     0.62998   0.75822   0.49951   0.00000  Uiso   1.00
H729   H     0.37002   0.90845   0.50049   0.00000  Uiso   1.00
H730   H     0.45868   0.70979   0.39713   0.00000  Uiso   1.00
H731   H     0.41979   0.70811   0.43744   0.00000  Uiso   1.00
H732   H     0.54132   0.95688   0.60288   0.00000  Uiso   1.00
H733   H     0.58021   0.95855   0.56256   0.00000  Uiso   1.00
H734   H     0.56624   0.73676   0.55950   0.00000  Uiso   1.00
N735   N     0.50000   0.95069   0.50000   0.00000  Uiso   1.00
N736   N     0.50000   0.71598   0.50000   0.00000  Uiso   1.00
N737   N     0.45027   0.71826   0.43279   0.00000  Uiso   1.00
N738   N     0.54973   0.94841   0.56721   0.00000  Uiso   1.00
N739   N     0.54704   0.71120   0.57269   0.00000  Uiso   1.00
N740   N     0.45297   0.95547   0.42731   0.00000  Uiso   1.00
O741   O     0.43988   0.87291   0.50000   0.00000  Uiso   1.00
O742   O     0.56012   0.79375   0.50000   0.00000  Uiso   1.00
O743   O     0.56012   0.87291   0.50000   0.00000  Uiso   1.00
O744   O     0.43988   0.79375   0.50000   0.00000  Uiso   1.00
O745   O     0.50000   0.87292   0.42946   0.00000  Uiso   1.00
O746   O     0.50000   0.79375   0.57054   0.00000  Uiso   1.00
O747   O     0.50000   0.87292   0.57054   0.00000  Uiso   1.00
O748   O     0.50000   0.79375   0.42946   0.00000  Uiso   1.00
C749   C     0.75412   0.83345   0.49990   0.00000  Uiso   1.00
C750   C     0.68763   0.87550   0.50026   0.00000  Uiso   1.00
C751   C     0.95722   0.83320   0.50009   0.00000  Uiso   1.00
C752   C     0.70945   0.83347   0.49991   0.00000  Uiso   1.00
C753   C     0.80939   0.69258   0.46697   0.00000  Uiso   1.00
C754   C     0.85727   0.97409   0.53303   0.00000  Uiso   1.00
C755   C     0.85687   0.69006   0.53384   0.00000  Uiso   1.00
C756   C     0.80980   0.97661   0.46616   0.00000  Uiso   1.00
C757   C     0.91255   0.83322   0.50010   0.00000  Uiso   1.00
C758   C     0.83326   0.83347   0.40697   0.00000  Uiso   1.00
C759   C     0.83341   0.83319   0.59303   0.00000  Uiso   1.00
C760   C     0.83330   0.83353   0.35521   0.00000  Uiso   1.00
C761   C     0.83336   0.83314   0.64479   0.00000  Uiso   1.00
C762   C     0.68830   0.79130   0.49964   0.00000  Uiso   1.00
C763   C     0.97837   0.87537   0.50036   0.00000  Uiso   1.00
C764   C     0.97904   0.79117   0.49974   0.00000  Uiso   1.00
Cu765  Cu    0.83333   0.88022   0.50000   0.00000  Uiso   1.00
Cu766  Cu    0.83333   0.78645   0.50000   0.00000  Uiso   1.00
H767   H     0.70455   0.75838   0.49937   0.00000  Uiso   1.00
H768   H     0.86067   0.72347   0.59934   0.00000  Uiso   1.00
H769   H     0.76710   0.92991   0.44050   0.00000  Uiso   1.00
H770   H     0.80600   0.94320   0.40066   0.00000  Uiso   1.00
H771   H     0.96212   0.90829   0.50063   0.00000  Uiso   1.00
H772   H     0.96332   0.75822   0.49951   0.00000  Uiso   1.00
H773   H     0.70335   0.90845   0.50049   0.00000  Uiso   1.00
H774   H     0.79202   0.70979   0.39713   0.00000  Uiso   1.00
H775   H     0.75312   0.70811   0.43744   0.00000  Uiso   1.00
H776   H     0.87465   0.95688   0.60288   0.00000  Uiso   1.00
H777   H     0.91355   0.95855   0.56256   0.00000  Uiso   1.00
H778   H     0.89957   0.73676   0.55950   0.00000  Uiso   1.00
N779   N     0.83333   0.95069   0.50000   0.00000  Uiso   1.00
N780   N     0.83333   0.71598   0.50000   0.00000  Uiso   1.00
N781   N     0.78360   0.71826   0.43279   0.00000  Uiso   1.00
N782   N     0.88306   0.94841   0.56721   0.00000  Uiso   1.00
N783   N     0.88037   0.71120   0.57269   0.00000  Uiso   1.00
N784   N     0.78630   0.95547   0.42731   0.00000  Uiso   1.00
O785   O     0.77321   0.87291   0.50000   0.00000  Uiso   1.00
O786   O     0.89345   0.79375   0.50000   0.00000  Uiso   1.00
O787   O     0.89345   0.87291   0.50000   0.00000  Uiso   1.00
O788   O     0.77321   0.79375   0.50000   0.00000  Uiso   1.00
O789   O     0.83333   0.87292   0.42946   0.00000  Uiso   1.00
O790   O     0.83333   0.79375   0.57054   0.00000  Uiso   1.00
O791   O     0.83333   0.87292   0.57054   0.00000  Uiso   1.00
O792   O     0.83333   0.79375   0.42946   0.00000  Uiso   1.00
C793   C     0.08745   0.16678   0.83324   0.00000  Uiso   1.00
C794   C     0.02096   0.20883   0.83359   0.00000  Uiso   1.00
C795   C     0.29055   0.16653   0.83343   0.00000  Uiso   1.00
C796   C     0.04278   0.16680   0.83324   0.00000  Uiso   1.00
C797   C     0.14273   0.02591   0.80030   0.00000  Uiso   1.00
C798   C     0.19061   0.30742   0.86636   0.00000  Uiso   1.00
C799   C     0.19020   0.02339   0.86717   0.00000  Uiso   1.00
C800   C     0.14313   0.30994   0.79950   0.00000  Uiso   1.00
C801   C     0.24588   0.16655   0.83343   0.00000  Uiso   1.00
C802   C     0.16659   0.16681   0.74031   0.00000  Uiso   1.00
C803   C     0.16675   0.16653   0.92636   0.00000  Uiso   1.00
C804   C     0.16664   0.16686   0.68854   0.00000  Uiso   1.00
C805   C     0.16670   0.16648   0.97813   0.00000  Uiso   1.00
C806   C     0.02163   0.12463   0.83297   0.00000  Uiso   1.00
C807   C     0.31170   0.20870   0.83369   0.00000  Uiso   1.00
C808   C     0.31237   0.12450   0.83308   0.00000  Uiso   1.00
Cu809  Cu    0.16667   0.21355   0.83333   0.00000  Uiso   1.00
Cu810  Cu    0.16667   0.11978   0.83333   0.00000  Uiso   1.00
H811   H     0.03788   0.09171   0.83270   0.00000  Uiso   1.00
H812   H     0.19401   0.05680   0.93268   0.00000  Uiso   1.00
H813   H     0.10043   0.26324   0.77384   0.00000  Uiso   1.00
H814   H     0.13933   0.27653   0.73399   0.00000  Uiso   1.00
H815   H     0.29545   0.24162   0.83396   0.00000  Uiso   1.00
H816   H     0.29665   0.09155   0.83284   0.00000  Uiso   1.00
H817   H     0.03669   0.24178   0.83382   0.00000  Uiso   1.00
H818   H     0.12535   0.04312   0.73046   0.00000  Uiso   1.00
H819   H     0.08645   0.04145   0.77078   0.00000  Uiso   1.00
H820   H     0.20798   0.29021   0.93621   0.00000  Uiso   1.00
H821   H     0.24688   0.29189   0.89589   0.00000  Uiso   1.00
H822   H     0.23291   0.07009   0.89283   0.00000  Uiso   1.00
N823   N     0.16667   0.28402   0.83333   0.00000  Uiso   1.00
N824   N     0.16667   0.04931   0.83333   0.00000  Uiso   1.00
N825   N     0.11694   0.05159   0.76613   0.00000  Uiso   1.00
N826   N     0.21640   0.28174   0.90054   0.00000  Uiso   1.00
N827   N     0.21370   0.04453   0.90602   0.00000  Uiso   1.00
N828   N     0.11963   0.28880   0.76064   0.00000  Uiso   1.00
O829   O     0.10655   0.20625   0.83333   0.00000  Uiso   1.00
O830   O     0.22679   0.12709   0.83334   0.00000  Uiso   1.00
O831   O     0.22679   0.20625   0.83334   0.00000  Uiso   1.00
O832   O     0.10655   0.12709   0.83333   0.00000  Uiso   1.00
O833   O     0.16667   0.20625   0.76280   0.00000  Uiso   1.00
O834   O     0.16667   0.12708   0.90387   0.00000  Uiso   1.00
O835   O     0.16667   0.20625   0.90387   0.00000  Uiso   1.00
O836   O     0.16667   0.12708   0.76280   0.00000  Uiso   1.00
C837   C     0.42078   0.16678   0.83324   0.00000  Uiso   1.00
C838   C     0.35429   0.20883   0.83359   0.00000  Uiso   1.00
C839   C     0.62389   0.16653   0.83343   0.00000  Uiso   1.00
C840   C     0.37612   0.16680   0.83324   0.00000  Uiso   1.00
C841   C     0.47606   0.02591   0.80030   0.00000  Uiso   1.00
C842   C     0.52394   0.30742   0.86636   0.00000  Uiso   1.00
C843   C     0.52354   0.02339   0.86717   0.00000  Uiso   1.00
C844   C     0.47646   0.30994   0.79950   0.00000  Uiso   1.00
C845   C     0.57922   0.16655   0.83343   0.00000  Uiso   1.00
C846   C     0.49992   0.16681   0.74031   0.00000  Uiso   1.00
C847   C     0.50008   0.16653   0.92636   0.00000  Uiso   1.00
C848   C     0.49997   0.16686   0.68854   0.00000  Uiso   1.00
C849   C     0.50003   0.16648   0.97813   0.00000  Uiso   1.00
C850   C     0.35496   0.12463   0.83297   0.00000  Uiso   1.00
C851   C     0.64504   0.20870   0.83369   0.00000  Uiso   1.00
C852   C     0.64571   0.12450   0.83308   0.00000  Uiso   1.00
Cu853  Cu    0.50000   0.21355   0.83333   0.00000  Uiso   1.00
Cu854  Cu    0.50000   0.11978   0.83333   0.00000  Uiso   1.00
H855   H     0.37122   0.09171   0.83270   0.00000  Uiso   1.00
H856   H     0.52734   0.05680   0.93268   0.00000  Uiso   1.00
H857   H     0.43376   0.26324   0.77384   0.00000  Uiso   1.00
H858   H     0.47266   0.27653   0.73399   0.00000  Uiso   1.00
H859   H     0.62878   0.24162   0.83396   0.00000  Uiso   1.00
H860   H     0.62998   0.09155   0.83284   0.00000  Uiso   1.00
H861   H     0.37002   0.24178   0.83382   0.00000  Uiso   1.00
H862   H     0.45868   0.04312   0.73046   0.00000  Uiso   1.00
H863   H     0.41979   0.04145   0.77078   0.00000  Uiso   1.00
H864   H     0.54132   0.29021   0.93621   0.00000  Uiso   1.00
H865   H     0.58021   0.29189   0.89589   0.00000  Uiso   1.00
H866   H     0.56624   0.07009   0.89283   0.00000  Uiso   1.00
N867   N     0.50000   0.28402   0.83333   0.00000  Uiso   1.00
N868   N     0.50000   0.04931   0.83333   0.00000  Uiso   1.00
N869   N     0.45027   0.05159   0.76613   0.00000  Uiso   1.00
N870   N     0.54973   0.28174   0.90054   0.00000  Uiso   1.00
N871   N     0.54704   0.04453   0.90602   0.00000  Uiso   1.00
N872   N     0.45297   0.28880   0.76064   0.00000  Uiso   1.00
O873   O     0.43988   0.20625   0.83333   0.00000  Uiso   1.00
O874   O     0.56012   0.12709   0.83334   0.00000  Uiso   1.00
O875   O     0.56012   0.20625   0.83334   0.00000  Uiso   1.00
O876   O     0.43988   0.12709   0.83333   0.00000  Uiso   1.00
O877   O     0.50000   0.20625   0.76280   0.00000  Uiso   1.00
O878   O     0.50000   0.12708   0.90387   0.00000  Uiso   1.00
O879   O     0.50000   0.20625   0.90387   0.00000  Uiso   1.00
O880   O     0.50000   0.12708   0.76280   0.00000  Uiso   1.00
C881   C     0.75412   0.16678   0.83324   0.00000  Uiso   1.00
C882   C     0.68763   0.20883   0.83359   0.00000  Uiso   1.00
C883   C     0.95722   0.16653   0.83343   0.00000  Uiso   1.00
C884   C     0.70945   0.16680   0.83324   0.00000  Uiso   1.00
C885   C     0.80939   0.02591   0.80030   0.00000  Uiso   1.00
C886   C     0.85727   0.30742   0.86636   0.00000  Uiso   1.00
C887   C     0.85687   0.02339   0.86717   0.00000  Uiso   1.00
C888   C     0.80980   0.30994   0.79950   0.00000  Uiso   1.00
C889   C     0.91255   0.16655   0.83343   0.00000  Uiso   1.00
C890   C     0.83326   0.16681   0.74031   0.00000  Uiso   1.00
C891   C     0.83341   0.16653   0.92636   0.00000  Uiso   1.00
C892   C     0.83330   0.16686   0.68854   0.00000  Uiso   1.00
C893   C     0.83336   0.16648   0.97813   0.00000  Uiso   1.00
C894   C     0.68830   0.12463   0.83297   0.00000  Uiso   1.00
C895   C     0.97837   0.20870   0.83369   0.00000  Uiso   1.00
C896   C     0.97904   0.12450   0.83308   0.00000  Uiso   1.00
Cu897  Cu    0.83333   0.21355   0.83333   0.00000  Uiso   1.00
Cu898  Cu    0.83333   0.11978   0.83333   0.00000  Uiso   1.00
H899   H     0.70455   0.09171   0.83270   0.00000  Uiso   1.00
H900   H     0.86067   0.05680   0.93268   0.00000  Uiso   1.00
H901   H     0.76710   0.26324   0.77384   0.00000  Uiso   1.00
H902   H     0.80600   0.27653   0.73399   0.00000  Uiso   1.00
H903   H     0.96212   0.24162   0.83396   0.00000  Uiso   1.00
H904   H     0.96332   0.09155   0.83284   0.00000  Uiso   1.00
H905   H     0.70335   0.24178   0.83382   0.00000  Uiso   1.00
H906   H     0.79202   0.04312   0.73046   0.00000  Uiso   1.00
H907   H     0.75312   0.04145   0.77078   0.00000  Uiso   1.00
H908   H     0.87465   0.29021   0.93621   0.00000  Uiso   1.00
H909   H     0.91355   0.29189   0.89589   0.00000  Uiso   1.00
H910   H     0.89957   0.07009   0.89283   0.00000  Uiso   1.00
N911   N     0.83333   0.28402   0.83333   0.00000  Uiso   1.00
N912   N     0.83333   0.04931   0.83333   0.00000  Uiso   1.00
N913   N     0.78360   0.05159   0.76613   0.00000  Uiso   1.00
N914   N     0.88306   0.28174   0.90054   0.00000  Uiso   1.00
N915   N     0.88037   0.04453   0.90602   0.00000  Uiso   1.00
N916   N     0.78630   0.28880   0.76064   0.00000  Uiso   1.00
O917   O     0.77321   0.20625   0.83333   0.00000  Uiso   1.00
O918   O     0.89345   0.12709   0.83334   0.00000  Uiso   1.00
O919   O     0.89345   0.20625   0.83334   0.00000  Uiso   1.00
O920   O     0.77321   0.12709   0.83333   0.00000  Uiso   1.00
O921   O     0.83333   0.20625   0.76280   0.00000  Uiso   1.00
O922   O     0.83333   0.12708   0.90387   0.00000  Uiso   1.00
O923   O     0.83333   0.20625   0.90387   0.00000  Uiso   1.00
O924   O     0.83333   0.12708   0.76280   0.00000  Uiso   1.00
C925   C     0.08745   0.50011   0.83324   0.00000  Uiso   1.00
C926   C     0.02096   0.54217   0.83359   0.00000  Uiso   1.00
C927   C     0.29055   0.49986   0.83343   0.00000  Uiso   1.00
C928   C     0.04278   0.50014   0.83324   0.00000  Uiso   1.00
C929   C     0.14273   0.35924   0.80030   0.00000  Uiso   1.00
C930   C     0.19061   0.64076   0.86636   0.00000  Uiso   1.00
C931   C     0.19020   0.35672   0.86717   0.00000  Uiso   1.00
C932   C     0.14313   0.64328   0.79950   0.00000  Uiso   1.00
C933   C     0.24588   0.49989   0.83343   0.00000  Uiso   1.00
C934   C     0.16659   0.50014   0.74031   0.00000  Uiso   1.00
C935   C     0.16675   0.49986   0.92636   0.00000  Uiso   1.00
C936   C     0.16664   0.50019   0.68854   0.00000  Uiso   1.00
C937   C     0.16670   0.49981   0.97813   0.00000  Uiso   1.00
C938   C     0.02163   0.45796   0.83297   0.00000  Uiso   1.00
C939   C     0.31170   0.54204   0.83369   0.00000  Uiso   1.00
C940   C     0.31237   0.45783   0.83308   0.00000  Uiso   1.00
Cu941  Cu    0.16667   0.54689   0.83333   0.00000  Uiso   1.00
Cu942  Cu    0.16667   0.45311   0.83333   0.00000  Uiso   1.00
H943   H     0.03788   0.42505   0.83270   0.00000  Uiso   1.00
H944   H     0.19401   0.39014   0.93268   0.00000  Uiso   1.00
H945   H     0.10043   0.59658   0.77384   0.00000  Uiso   1.00
H946   H     0.13933   0.60987   0.73399   0.00000  Uiso   1.00
H947   H     0.29545   0.57495   0.83396   0.00000  Uiso   1.00
H948   H     0.29665   0.42488   0.83284   0.00000  Uiso   1.00
H949   H     0.03669   0.57512   0.83382   0.00000  Uiso   1.00
H950   H     0.12535   0.37646   0.73046   0.00000  Uiso   1.00
H951   H     0.08645   0.37478   0.77078   0.00000  Uiso   1.00
H952   H     0.20798   0.62354   0.93621   0.00000  Uiso   1.00
H953   H     0.24688   0.62522   0.89589   0.00000  Uiso   1.00
H954   H     0.23291   0.40342   0.89283   0.00000  Uiso   1.00
N955   N     0.16667   0.61736   0.83333   0.00000  Uiso   1.00
N956   N     0.16667   0.38264   0.83333   0.00000  Uiso   1.00
N957   N     0.11694   0.38493   0.76613   0.00000  Uiso   1.00
N958   N     0.21640   0.61507   0.90054   0.00000  Uiso   1.00
N959   N     0.21370   0.37786   0.90602   0.00000  Uiso   1.00
N960   N     0.11963   0.62214   0.76064   0.00000  Uiso   1.00
O961   O     0.10655   0.53958   0.83333   0.00000  Uiso   1.00
O962   O     0.22679   0.46042   0.83334   0.00000  Uiso   1.00
O963   O     0.22679   0.53958   0.83334   0.00000  Uiso   1.00
O964   O     0.10655   0.46042   0.83333   0.00000  Uiso   1.00
O965   O     0.16667   0.53959   0.76280   0.00000  Uiso   1.00
O966   O     0.16667   0.46041   0.90387   0.00000  Uiso   1.00
O967   O     0.16667   0.53959   0.90387   0.00000  Uiso   1.00
O968   O     0.16667   0.46041   0.76280   0.00000  Uiso   1.00
C969   C     0.42078   0.50011   0.83324   0.00000  Uiso   1.00
C970   C     0.35429   0.54217   0.83359   0.00000  Uiso   1.00
C971   C     0.62389   0.49986   0.83343   0.00000  Uiso   1.00
C972   C     0.37612   0.50014   0.83324   0.00000  Uiso   1.00
C973   C     0.47606   0.35924   0.80030   0.00000  Uiso   1.00
C974   C     0.52394   0.64076   0.86636   0.00000  Uiso   1.00
C975   C     0.52354   0.35672   0.86717   0.00000  Uiso   1.00
C976   C     0.47646   0.64328   0.79950   0.00000  Uiso   1.00
C977   C     0.57922   0.49989   0.83343   0.00000  Uiso   1.00
C978   C     0.49992   0.50014   0.74031   0.00000  Uiso   1.00
C979   C     0.50008   0.49986   0.92636   0.00000  Uiso   1.00
C980   C     0.49997   0.50019   0.68854   0.00000  Uiso   1.00
C981   C     0.50003   0.49981   0.97813   0.00000  Uiso   1.00
C982   C     0.35496   0.45796   0.83297   0.00000  Uiso   1.00
C983   C     0.64504   0.54204   0.83369   0.00000  Uiso   1.00
C984   C     0.64571   0.45783   0.83308   0.00000  Uiso   1.00
Cu985  Cu    0.50000   0.54689   0.83333   0.00000  Uiso   1.00
Cu986  Cu    0.50000   0.45311   0.83333   0.00000  Uiso   1.00
H987   H     0.37122   0.42505   0.83270   0.00000  Uiso   1.00
H988   H     0.52734   0.39014   0.93268   0.00000  Uiso   1.00
H989   H     0.43376   0.59658   0.77384   0.00000  Uiso   1.00
H990   H     0.47266   0.60987   0.73399   0.00000  Uiso   1.00
H991   H     0.62878   0.57495   0.83396   0.00000  Uiso   1.00
H992   H     0.62998   0.42488   0.83284   0.00000  Uiso   1.00
H993   H     0.37002   0.57512   0.83382   0.00000  Uiso   1.00
H994   H     0.45868   0.37646   0.73046   0.00000  Uiso   1.00
H995   H     0.41979   0.37478   0.77078   0.00000  Uiso   1.00
H996   H     0.54132   0.62354   0.93621   0.00000  Uiso   1.00
H997   H     0.58021   0.62522   0.89589   0.00000  Uiso   1.00
H998   H     0.56624   0.40342   0.89283   0.00000  Uiso   1.00
N999   N     0.50000   0.61736   0.83333   0.00000  Uiso   1.00
N1000  N     0.50000   0.38264   0.83333   0.00000  Uiso   1.00
N1001  N     0.45027   0.38493   0.76613   0.00000  Uiso   1.00
N1002  N     0.54973   0.61507   0.90054   0.00000  Uiso   1.00
N1003  N     0.54704   0.37786   0.90602   0.00000  Uiso   1.00
N1004  N     0.45297   0.62214   0.76064   0.00000  Uiso   1.00
O1005  O     0.43988   0.53958   0.83333   0.00000  Uiso   1.00
O1006  O     0.56012   0.46042   0.83334   0.00000  Uiso   1.00
O1007  O     0.56012   0.53958   0.83334   0.00000  Uiso   1.00
O1008  O     0.43988   0.46042   0.83333   0.00000  Uiso   1.00
O1009  O     0.50000   0.53959   0.76280   0.00000  Uiso   1.00
O1010  O     0.50000   0.46041   0.90387   0.00000  Uiso   1.00
O1011  O     0.50000   0.53959   0.90387   0.00000  Uiso   1.00
O1012  O     0.50000   0.46041   0.76280   0.00000  Uiso   1.00
C1013  C     0.75412   0.50011   0.83324   0.00000  Uiso   1.00
C1014  C     0.68763   0.54217   0.83359   0.00000  Uiso   1.00
C1015  C     0.95722   0.49986   0.83343   0.00000  Uiso   1.00
C1016  C     0.70945   0.50014   0.83324   0.00000  Uiso   1.00
C1017  C     0.80939   0.35924   0.80030   0.00000  Uiso   1.00
C1018  C     0.85727   0.64076   0.86636   0.00000  Uiso   1.00
C1019  C     0.85687   0.35672   0.86717   0.00000  Uiso   1.00
C1020  C     0.80980   0.64328   0.79950   0.00000  Uiso   1.00
C1021  C     0.91255   0.49989   0.83343   0.00000  Uiso   1.00
C1022  C     0.83326   0.50014   0.74031   0.00000  Uiso   1.00
C1023  C     0.83341   0.49986   0.92636   0.00000  Uiso   1.00
C1024  C     0.83330   0.50019   0.68854   0.00000  Uiso   1.00
C1025  C     0.83336   0.49981   0.97813   0.00000  Uiso   1.00
C1026  C     0.68830   0.45796   0.83297   0.00000  Uiso   1.00
C1027  C     0.97837   0.54204   0.83369   0.00000  Uiso   1.00
C1028  C     0.97904   0.45783   0.83308   0.00000  Uiso   1.00
Cu1029 Cu    0.83333   0.54689   0.83333   0.00000  Uiso   1.00
Cu1030 Cu    0.83333   0.45311   0.83333   0.00000  Uiso   1.00
H1031  H     0.70455   0.42505   0.83270   0.00000  Uiso   1.00
H1032  H     0.86067   0.39014   0.93268   0.00000  Uiso   1.00
H1033  H     0.76710   0.59658   0.77384   0.00000  Uiso   1.00
H1034  H     0.80600   0.60987   0.73399   0.00000  Uiso   1.00
H1035  H     0.96212   0.57495   0.83396   0.00000  Uiso   1.00
H1036  H     0.96332   0.42488   0.83284   0.00000  Uiso   1.00
H1037  H     0.70335   0.57512   0.83382   0.00000  Uiso   1.00
H1038  H     0.79202   0.37646   0.73046   0.00000  Uiso   1.00
H1039  H     0.75312   0.37478   0.77078   0.00000  Uiso   1.00
H1040  H     0.87465   0.62354   0.93621   0.00000  Uiso   1.00
H1041  H     0.91355   0.62522   0.89589   0.00000  Uiso   1.00
H1042  H     0.89957   0.40342   0.89283   0.00000  Uiso   1.00
N1043  N     0.83333   0.61736   0.83333   0.00000  Uiso   1.00
N1044  N     0.83333   0.38264   0.83333   0.00000  Uiso   1.00
N1045  N     0.78360   0.38493   0.76613   0.00000  Uiso   1.00
N1046  N     0.88306   0.61507   0.90054   0.00000  Uiso   1.00
N1047  N     0.88037   0.37786   0.90602   0.00000  Uiso   1.00
N1048  N     0.78630   0.62214   0.76064   0.00000  Uiso   1.00
O1049  O     0.77321   0.53958   0.83333   0.00000  Uiso   1.00
O1050  O     0.89345   0.46042   0.83334   0.00000  Uiso   1.00
O1051  O     0.89345   0.53958   0.83334   0.00000  Uiso   1.00
O1052  O     0.77321   0.46042   0.83333   0.00000  Uiso   1.00
O1053  O     0.83333   0.53959   0.76280   0.00000  Uiso   1.00
O1054  O     0.83333   0.46041   0.90387   0.00000  Uiso   1.00
O1055  O     0.83333   0.53959   0.90387   0.00000  Uiso   1.00
O1056  O     0.83333   0.46041   0.76280   0.00000  Uiso   1.00
C1057  C     0.08745   0.83345   0.83324   0.00000  Uiso   1.00
C1058  C     0.02096   0.87550   0.83359   0.00000  Uiso   1.00
C1059  C     0.29055   0.83320   0.83343   0.00000  Uiso   1.00
C1060  C     0.04278   0.83347   0.83324   0.00000  Uiso   1.00
C1061  C     0.14273   0.69258   0.80030   0.00000  Uiso   1.00
C1062  C     0.19061   0.97409   0.86636   0.00000  Uiso   1.00
C1063  C     0.19020   0.69006   0.86717   0.00000  Uiso   1.00
C1064  C     0.14313   0.97661   0.79950   0.00000  Uiso   1.00
C1065  C     0.24588   0.83322   0.83343   0.00000  Uiso   1.00
C1066  C     0.16659   0.83347   0.74031   0.00000  Uiso   1.00
C1067  C     0.16675   0.83319   0.92636   0.00000  Uiso   1.00
C1068  C     0.16664   0.83353   0.68854   0.00000  Uiso   1.00
C1069  C     0.16670   0.83314   0.97813   0.00000  Uiso   1.00
C1070  C     0.02163   0.79130   0.83297   0.00000  Uiso   1.00
C1071  C     0.31170   0.87537   0.83369   0.00000  Uiso   1.00
C1072  C     0.31237   0.79117   0.83308   0.00000  Uiso   1.00
Cu1073 Cu    0.16667   0.88022   0.83333   0.00000  Uiso   1.00
Cu1074 Cu    0.16667   0.78645   0.83333   0.00000  Uiso   1.00
H1075  H     0.03788   0.75838   0.83270   0.00000  Uiso   1.00
H1076  H     0.19401   0.72347   0.93268   0.00000  Uiso   1.00
H1077  H     0.10043   0.92991   0.77384   0.00000  Uiso   1.00
H1078  H     0.13933   0.94320   0.73399   0.00000  Uiso   1.00
H1079  H     0.29545   0.90829   0.83396   0.00000  Uiso   1.00
H1080  H     0.29665   0.75822   0.83284   0.00000  Uiso   1.00
H1081  H     0.03669   0.90845   0.83382   0.00000  Uiso   1.00
H1082  H     0.12535   0.70979   0.73046   0.00000  Uiso   1.00
H1083  H     0.08645   0.70811   0.77078   0.00000  Uiso   1.00
H1084  H     0.20798   0.95688   0.93621   0.00000  Uiso   1.00
H1085  H     0.24688   0.95855   0.89589   0.00000  Uiso   1.00
H1086  H     0.23291   0.73676   0.89283   0.00000  Uiso   1.00
N1087  N     0.16667   0.95069   0.83333   0.00000  Uiso   1.00
N1088  N     0.16667   0.71598   0.83333   0.00000  Uiso   1.00
N1089  N     0.11694   0.71826   0.76613   0.00000  Uiso   1.00
N1090  N     0.21640   0.94841   0.90054   0.00000  Uiso   1.00
N1091  N     0.21370   0.71120   0.90602   0.00000  Uiso   1.00
N1092  N     0.11963   0.95547   0.76064   0.00000  Uiso   1.00
O1093  O     0.10655   0.87291   0.83333   0.00000  Uiso   1.00
O1094  O     0.22679   0.79375   0.83334   0.00000  Uiso   1.00
O1095  O     0.22679   0.87291   0.83334   0.00000  Uiso   1.00
O1096  O     0.10655   0.79375   0.83333   0.00000  Uiso   1.00
O1097  O     0.16667   0.87292   0.76280   0.00000  Uiso   1.00
O1098  O     0.16667   0.79375   0.90387   0.00000  Uiso   1.00
O1099  O     0.16667   0.87292   0.90387   0.00000  Uiso   1.00
O1100  O     0.16667   0.79375   0.76280   0.00000  Uiso   1.00
C1101  C     0.42078   0.83345   0.83324   0.00000  Uiso   1.00
C1102  C     0.35429   0.87550   0.83359   0.00000  Uiso   1.00
C1103  C     0.62389   0.83320   0.83343   0.00000  Uiso   1.00
C1104  C     0.37612   0.83347   0.83324   0.00000  Uiso   1.00
C1105  C     0.47606   0.69258   0.80030   0.00000  Uiso   1.00
C1106  C     0.52394   0.97409   0.86636   0.00000  Uiso   1.00
C1107  C     0.52354   0.69006   0.86717   0.00000  Uiso   1.00
C1108  C     0.47646   0.97661   0.79950   0.00000  Uiso   1.00
C1109  C     0.57922   0.83322   0.83343   0.00000  Uiso   1.00
C1110  C     0.49992   0.83347   0.74031   0.00000  Uiso   1.00
C1111  C     0.50008   0.83319   0.92636   0.00000  Uiso   1.00
C1112  C     0.49997   0.83353   0.68854   0.00000  Uiso   1.00
C1113  C     0.50003   0.83314   0.97813   0.00000  Uiso   1.00
C1114  C     0.35496   0.79130   0.83297   0.00000  Uiso   1.00
C1115  C     0.64504   0.87537   0.83369   0.00000  Uiso   1.00
C1116  C     0.64571   0.79117   0.83308   0.00000  Uiso   1.00
Cu1117 Cu    0.50000   0.88022   0.83333   0.00000  Uiso   1.00
Cu1118 Cu    0.50000   0.78645   0.83333   0.00000  Uiso   1.00
H1119  H     0.37122   0.75838   0.83270   0.00000  Uiso   1.00
H1120  H     0.52734   0.72347   0.93268   0.00000  Uiso   1.00
H1121  H     0.43376   0.92991   0.77384   0.00000  Uiso   1.00
H1122  H     0.47266   0.94320   0.73399   0.00000  Uiso   1.00
H1123  H     0.62878   0.90829   0.83396   0.00000  Uiso   1.00
H1124  H     0.62998   0.75822   0.83284   0.00000  Uiso   1.00
H1125  H     0.37002   0.90845   0.83382   0.00000  Uiso   1.00
H1126  H     0.45868   0.70979   0.73046   0.00000  Uiso   1.00
H1127  H     0.41979   0.70811   0.77078   0.00000  Uiso   1.00
H1128  H     0.54132   0.95688   0.93621   0.00000  Uiso   1.00
H1129  H     0.58021   0.95855   0.89589   0.00000  Uiso   1.00
H1130  H     0.56624   0.73676   0.89283   0.00000  Uiso   1.00
N1131  N     0.50000   0.95069   0.83333   0.00000  Uiso   1.00
N1132  N     0.50000   0.71598   0.83333   0.00000  Uiso   1.00
N1133  N     0.45027   0.71826   0.76613   0.00000  Uiso   1.00
N1134  N     0.54973   0.94841   0.90054   0.00000  Uiso   1.00
N1135  N     0.54704   0.71120   0.90602   0.00000  Uiso   1.00
N1136  N     0.45297   0.95547   0.76064   0.00000  Uiso   1.00
O1137  O     0.43988   0.87291   0.83333   0.00000  Uiso   1.00
O1138  O     0.56012   0.79375   0.83334   0.00000  Uiso   1.00
O1139  O     0.56012   0.87291   0.83334   0.00000  Uiso   1.00
O1140  O     0.43988   0.79375   0.83333   0.00000  Uiso   1.00
O1141  O     0.50000   0.87292   0.76280   0.00000  Uiso   1.00
O1142  O     0.50000   0.79375   0.90387   0.00000  Uiso   1.00
O1143  O     0.50000   0.87292   0.90387   0.00000  Uiso   1.00
O1144  O     0.50000   0.79375   0.76280   0.00000  Uiso   1.00
C1145  C     0.75412   0.83345   0.83324   0.00000  Uiso   1.00
C1146  C     0.68763   0.87550   0.83359   0.00000  Uiso   1.00
C1147  C     0.95722   0.83320   0.83343   0.00000  Uiso   1.00
C1148  C     0.70945   0.83347   0.83324   0.00000  Uiso   1.00
C1149  C     0.80939   0.69258   0.80030   0.00000  Uiso   1.00
C1150  C     0.85727   0.97409   0.86636   0.00000  Uiso   1.00
C1151  C     0.85687   0.69006   0.86717   0.00000  Uiso   1.00
C1152  C     0.80980   0.97661   0.79950   0.00000  Uiso   1.00
C1153  C     0.91255   0.83322   0.83343   0.00000  Uiso   1.00
C1154  C     0.83326   0.83347   0.74031   0.00000  Uiso   1.00
C1155  C     0.83341   0.83319   0.92636   0.00000  Uiso   1.00
C1156  C     0.83330   0.83353   0.68854   0.00000  Uiso   1.00
C1157  C     0.83336   0.83314   0.97813   0.00000  Uiso   1.00
C1158  C     0.68830   0.79130   0.83297   0.00000  Uiso   1.00
C1159  C     0.97837   0.87537   0.83369   0.00000  Uiso   1.00
C1160  C     0.97904   0.79117   0.83308   0.00000  Uiso   1.00
Cu1161 Cu    0.83333   0.88022   0.83333   0.00000  Uiso   1.00
Cu1162 Cu    0.83333   0.78645   0.83333   0.00000  Uiso   1.00
H1163  H     0.70455   0.75838   0.83270   0.00000  Uiso   1.00
H1164  H     0.86067   0.72347   0.93268   0.00000  Uiso   1.00
H1165  H     0.76710   0.92991   0.77384   0.00000  Uiso   1.00
H1166  H     0.80600   0.94320   0.73399   0.00000  Uiso   1.00
H1167  H     0.96212   0.90829   0.83396   0.00000  Uiso   1.00
H1168  H     0.96332   0.75822   0.83284   0.00000  Uiso   1.00
H1169  H     0.70335   0.90845   0.83382   0.00000  Uiso   1.00
H1170  H     0.79202   0.70979   0.73046   0.00000  Uiso   1.00
H1171  H     0.75312   0.70811   0.77078   0.00000  Uiso   1.00
H1172  H     0.87465   0.95688   0.93621   0.00000  Uiso   1.00
H1173  H     0.91355   0.95855   0.89589   0.00000  Uiso   1.00
H1174  H     0.89957   0.73676   0.89283   0.00000  Uiso   1.00
N1175  N     0.83333   0.95069   0.83333   0.00000  Uiso   1.00
N1176  N     0.83333   0.71598   0.83333   0.00000  Uiso   1.00
N1177  N     0.78360   0.71826   0.76613   0.00000  Uiso   1.00
N1178  N     0.88306   0.94841   0.90054   0.00000  Uiso   1.00
N1179  N     0.88037   0.71120   0.90602   0.00000  Uiso   1.00
N1180  N     0.78630   0.95547   0.76064   0.00000  Uiso   1.00
O1181  O     0.77321   0.87291   0.83333   0.00000  Uiso   1.00
O1182  O     0.89345   0.79375   0.83334   0.00000  Uiso   1.00
O1183  O     0.89345   0.87291   0.83334   0.00000  Uiso   1.00
O1184  O     0.77321   0.79375   0.83333   0.00000  Uiso   1.00
O1185  O     0.83333   0.87292   0.76280   0.00000  Uiso   1.00
O1186  O     0.83333   0.79375   0.90387   0.00000  Uiso   1.00
O1187  O     0.83333   0.87292   0.90387   0.00000  Uiso   1.00
O1188  O     0.83333   0.79375   0.76280   0.00000  Uiso   1.00
loop_
_geom_bond_atom_site_label_1
_geom_bond_atom_site_label_2
_geom_bond_distance
_geom_bond_site_symmetry_2
_ccdc_geom_bond_type
C1     O37     1.302   .     A
C1     C4      1.451   .     S
C1     O40     1.298   .     A
C2     C4      1.400   .     A
C2     H25     1.083   .     S
C2     C103    1.384   1_455 S
C3     C9      1.451   .     S
C3     C15     1.403   .     A
C3     C16     1.400   .     A
C4     C14     1.403   .     A
C5     N32     1.360   .     A
C5     N33     1.431   .     S
C5     C272    1.423   1_545 S
C6     N31     1.360   .     A
C6     N34     1.431   .     S
C6     C139    1.423   .     S
C7     N32     1.389   .     A
C7     N35     1.431   .     S
C7     C270    1.423   1_545 S
C8     N36     1.431   .     S
C8     N31     1.389   .     A
C8     C137    1.423   .     S
C9     O38     1.302   .     A
C9     O39     1.298   .     A
C10    O41     1.298   .     A
C10    C12     1.408   .     S
C10    O44     1.294   .     A
C11    O43     1.294   .     A
C11    C13     1.408   .     S
C11    O42     1.298   .     A
C12    C805    1.190   1_554 S
C13    C408    1.190   .     S
C14    H19     1.083   .     S
C14    C104    1.384   1_455 S
C15    H23     1.083   .     S
C15    C46     1.384   .     S
C16    H24     1.083   .     S
C16    C58     1.384   .     S
Cu17   O43     1.928   .     S
Cu17   Cu18    2.706   .     S
Cu17   O37     1.966   .     S
Cu17   O41     1.932   .     S
Cu17   N31     2.034   .     S
Cu17   O39     1.962   .     S
Cu18   O44     1.928   .     S
Cu18   O38     1.966   .     S
Cu18   O42     1.932   .     S
Cu18   N32     2.034   .     S
Cu18   O40     1.962   .     S
H20    N35     1.042   .     S
H21    N36     1.038   .     S
H22    N36     1.042   .     S
H26    N33     1.046   .     S
H27    N33     1.046   .     S
H28    N34     1.046   .     S
H29    N34     1.046   .     S
H30    N35     1.038   .     S
C45    O81     1.302   .     A
C45    C48     1.451   .     S
C45    O84     1.298   .     A
C46    C48     1.400   .     A
C46    H69     1.083   .     S
C47    C53     1.451   .     S
C47    C59     1.403   .     A
C47    C60     1.400   .     A
C48    C58     1.403   .     A
C49    N76     1.360   .     A
C49    N77     1.431   .     S
C49    C316    1.423   1_545 S
C50    N75     1.360   .     A
C50    N78     1.431   .     S
C50    C183    1.423   .     S
C51    N76     1.389   .     A
C51    N79     1.431   .     S
C51    C314    1.423   1_545 S
C52    N80     1.431   .     S
C52    N75     1.389   .     A
C52    C181    1.423   .     S
C53    O82     1.302   .     A
C53    O83     1.298   .     A
C54    O85     1.298   .     A
C54    C56     1.408   .     S
C54    O88     1.294   .     A
C55    O87     1.294   .     A
C55    C57     1.408   .     S
C55    O86     1.298   .     A
C56    C849    1.190   1_554 S
C57    C452    1.190   .     S
C58    H63     1.083   .     S
C59    H67     1.083   .     S
C59    C90     1.384   .     S
C60    H68     1.083   .     S
C60    C102    1.384   .     S
Cu61   O87     1.928   .     S
Cu61   Cu62    2.706   .     S
Cu61   O81     1.966   .     S
Cu61   O85     1.932   .     S
Cu61   N75     2.034   .     S
Cu61   O83     1.962   .     S
Cu62   O88     1.928   .     S
Cu62   O82     1.966   .     S
Cu62   O86     1.932   .     S
Cu62   N76     2.034   .     S
Cu62   O84     1.962   .     S
H64    N79     1.042   .     S
H65    N80     1.038   .     S
H66    N80     1.042   .     S
H70    N77     1.046   .     S
H71    N77     1.046   .     S
H72    N78     1.046   .     S
H73    N78     1.046   .     S
H74    N79     1.038   .     S
C89    O125    1.302   .     A
C89    C92     1.451   .     S
C89    O128    1.298   .     A
C90    C92     1.400   .     A
C90    H113    1.083   .     S
C91    C97     1.451   .     S
C91    C103    1.403   .     A
C91    C104    1.400   .     A
C92    C102    1.403   .     A
C93    N120    1.360   .     A
C93    N121    1.431   .     S
C93    C360    1.423   1_545 S
C94    N119    1.360   .     A
C94    N122    1.431   .     S
C94    C227    1.423   .     S
C95    N120    1.389   .     A
C95    N123    1.431   .     S
C95    C358    1.423   1_545 S
C96    N124    1.431   .     S
C96    N119    1.389   .     A
C96    C225    1.423   .     S
C97    O126    1.302   .     A
C97    O127    1.298   .     A
C98    O129    1.298   .     A
C98    C100    1.408   .     S
C98    O132    1.294   .     A
C99    O131    1.294   .     A
C99    C101    1.408   .     S
C99    O130    1.298   .     A
C100   C893    1.190   1_554 S
C101   C496    1.190   .     S
C102   H107    1.083   .     S
C103   H111    1.083   .     S
C103   C2      1.384   1_655 S
C104   H112    1.083   .     S
C104   C14     1.384   1_655 S
Cu105  O131    1.928   .     S
Cu105  Cu106   2.706   .     S
Cu105  O125    1.966   .     S
Cu105  O129    1.932   .     S
Cu105  N119    2.034   .     S
Cu105  O127    1.962   .     S
Cu106  O132    1.928   .     S
Cu106  O126    1.966   .     S
Cu106  O130    1.932   .     S
Cu106  N120    2.034   .     S
Cu106  O128    1.962   .     S
H108   N123    1.042   .     S
H109   N124    1.038   .     S
H110   N124    1.042   .     S
H114   N121    1.046   .     S
H115   N121    1.046   .     S
H116   N122    1.046   .     S
H117   N122    1.046   .     S
H118   N123    1.038   .     S
C133   O169    1.302   .     A
C133   C136    1.451   .     S
C133   O172    1.298   .     A
C134   C136    1.400   .     A
C134   H157    1.083   .     S
C134   C235    1.384   1_455 S
C135   C141    1.451   .     S
C135   C147    1.403   .     A
C135   C148    1.400   .     A
C136   C146    1.403   .     A
C137   N164    1.360   .     A
C137   N165    1.431   .     S
C138   N163    1.360   .     A
C138   N166    1.431   .     S
C138   C271    1.423   .     S
C139   N164    1.389   .     A
C139   N167    1.431   .     S
C140   N168    1.431   .     S
C140   N163    1.389   .     A
C140   C269    1.423   .     S
C141   O170    1.302   .     A
C141   O171    1.298   .     A
C142   O173    1.298   .     A
C142   C144    1.408   .     S
C142   O176    1.294   .     A
C143   O175    1.294   .     A
C143   C145    1.408   .     S
C143   O174    1.298   .     A
C144   C937    1.190   1_554 S
C145   C540    1.190   .     S
C146   H151    1.083   .     S
C146   C236    1.384   1_455 S
C147   H155    1.083   .     S
C147   C178    1.384   .     S
C148   H156    1.083   .     S
C148   C190    1.384   .     S
Cu149  O175    1.928   .     S
Cu149  Cu150   2.706   .     S
Cu149  O169    1.966   .     S
Cu149  O173    1.932   .     S
Cu149  N163    2.034   .     S
Cu149  O171    1.962   .     S
Cu150  O176    1.928   .     S
Cu150  O170    1.966   .     S
Cu150  O174    1.932   .     S
Cu150  N164    2.034   .     S
Cu150  O172    1.962   .     S
H152   N167    1.042   .     S
H153   N168    1.038   .     S
H154   N168    1.042   .     S
H158   N165    1.046   .     S
H159   N165    1.046   .     S
H160   N166    1.046   .     S
H161   N166    1.046   .     S
H162   N167    1.038   .     S
C177   O213    1.302   .     A
C177   C180    1.451   .     S
C177   O216    1.298   .     A
C178   C180    1.400   .     A
C178   H201    1.083   .     S
C179   C185    1.451   .     S
C179   C191    1.403   .     A
C179   C192    1.400   .     A
C180   C190    1.403   .     A
C181   N208    1.360   .     A
C181   N209    1.431   .     S
C182   N207    1.360   .     A
C182   N210    1.431   .     S
C182   C315    1.423   .     S
C183   N208    1.389   .     A
C183   N211    1.431   .     S
C184   N212    1.431   .     S
C184   N207    1.389   .     A
C184   C313    1.423   .     S
C185   O214    1.302   .     A
C185   O215    1.298   .     A
C186   O217    1.298   .     A
C186   C188    1.408   .     S
C186   O220    1.294   .     A
C187   O219    1.294   .     A
C187   C189    1.408   .     S
C187   O218    1.298   .     A
C188   C981    1.190   1_554 S
C189   C584    1.190   .     S
C190   H195    1.083   .     S
C191   H199    1.083   .     S
C191   C222    1.384   .     S
C192   H200    1.083   .     S
C192   C234    1.384   .     S
Cu193  O219    1.928   .     S
Cu193  Cu194   2.706   .     S
Cu193  O213    1.966   .     S
Cu193  O217    1.932   .     S
Cu193  N207    2.034   .     S
Cu193  O215    1.962   .     S
Cu194  O220    1.928   .     S
Cu194  O214    1.966   .     S
Cu194  O218    1.932   .     S
Cu194  N208    2.034   .     S
Cu194  O216    1.962   .     S
H196   N211    1.042   .     S
H197   N212    1.038   .     S
H198   N212    1.042   .     S
H202   N209    1.046   .     S
H203   N209    1.046   .     S
H204   N210    1.046   .     S
H205   N210    1.046   .     S
H206   N211    1.038   .     S
C221   O257    1.302   .     A
C221   C224    1.451   .     S
C221   O260    1.298   .     A
C222   C224    1.400   .     A
C222   H245    1.083   .     S
C223   C229    1.451   .     S
C223   C235    1.403   .     A
C223   C236    1.400   .     A
C224   C234    1.403   .     A
C225   N252    1.360   .     A
C225   N253    1.431   .     S
C226   N251    1.360   .     A
C226   N254    1.431   .     S
C226   C359    1.423   .     S
C227   N252    1.389   .     A
C227   N255    1.431   .     S
C228   N256    1.431   .     S
C228   N251    1.389   .     A
C228   C357    1.423   .     S
C229   O258    1.302   .     A
C229   O259    1.298   .     A
C230   O261    1.298   .     A
C230   C232    1.408   .     S
C230   O264    1.294   .     A
C231   O263    1.294   .     A
C231   C233    1.408   .     S
C231   O262    1.298   .     A
C232   C1025   1.190   1_554 S
C233   C628    1.190   .     S
C234   H239    1.083   .     S
C235   H243    1.083   .     S
C235   C134    1.384   1_655 S
C236   H244    1.083   .     S
C236   C146    1.384   1_655 S
Cu237  O263    1.928   .     S
Cu237  Cu238   2.706   .     S
Cu237  O257    1.966   .     S
Cu237  O261    1.932   .     S
Cu237  N251    2.034   .     S
Cu237  O259    1.962   .     S
Cu238  O264    1.928   .     S
Cu238  O258    1.966   .     S
Cu238  O262    1.932   .     S
Cu238  N252    2.034   .     S
Cu238  O260    1.962   .     S
H240   N255    1.042   .     S
H241   N256    1.038   .     S
H242   N256    1.042   .     S
H246   N253    1.046   .     S
H247   N253    1.046   .     S
H248   N254    1.046   .     S
H249   N254    1.046   .     S
H250   N255    1.038   .     S
C265   O301    1.302   .     A
C265   C268    1.451   .     S
C265   O304    1.298   .     A
C266   C268    1.400   .     A
C266   H289    1.083   .     S
C266   C367    1.384   1_455 S
C267   C273    1.451   .     S
C267   C279    1.403   .     A
C267   C280    1.400   .     A
C268   C278    1.403   .     A
C269   N296    1.360   .     A
C269   N297    1.431   .     S
C270   N295    1.360   .     A
C270   N298    1.431   .     S
C270   C7      1.423   1_565 S
C271   N296    1.389   .     A
C271   N299    1.431   .     S
C272   N300    1.431   .     S
C272   N295    1.389   .     A
C272   C5      1.423   1_565 S
C273   O302    1.302   .     A
C273   O303    1.298   .     A
C274   O305    1.298   .     A
C274   C276    1.408   .     S
C274   O308    1.294   .     A
C275   O307    1.294   .     A
C275   C277    1.408   .     S
C275   O306    1.298   .     A
C276   C1069   1.190   1_554 S
C277   C672    1.190   .     S
C278   H283    1.083   .     S
C278   C368    1.384   1_455 S
C279   H287    1.083   .     S
C279   C310    1.384   .     S
C280   H288    1.083   .     S
C280   C322    1.384   .     S
Cu281  O307    1.928   .     S
Cu281  Cu282   2.706   .     S
Cu281  O301    1.966   .     S
Cu281  O305    1.932   .     S
Cu281  N295    2.034   .     S
Cu281  O303    1.962   .     S
Cu282  O308    1.928   .     S
Cu282  O302    1.966   .     S
Cu282  O306    1.932   .     S
Cu282  N296    2.034   .     S
Cu282  O304    1.962   .     S
H284   N299    1.042   .     S
H285   N300    1.038   .     S
H286   N300    1.042   .     S
H290   N297    1.046   .     S
H291   N297    1.046   .     S
H292   N298    1.046   .     S
H293   N298    1.046   .     S
H294   N299    1.038   .     S
C309   O345    1.302   .     A
C309   C312    1.451   .     S
C309   O348    1.298   .     A
C310   C312    1.400   .     A
C310   H333    1.083   .     S
C311   C317    1.451   .     S
C311   C323    1.403   .     A
C311   C324    1.400   .     A
C312   C322    1.403   .     A
C313   N340    1.360   .     A
C313   N341    1.431   .     S
C314   N339    1.360   .     A
C314   N342    1.431   .     S
C314   C51     1.423   1_565 S
C315   N340    1.389   .     A
C315   N343    1.431   .     S
C316   N344    1.431   .     S
C316   N339    1.389   .     A
C316   C49     1.423   1_565 S
C317   O346    1.302   .     A
C317   O347    1.298   .     A
C318   O349    1.298   .     A
C318   C320    1.408   .     S
C318   O352    1.294   .     A
C319   O351    1.294   .     A
C319   C321    1.408   .     S
C319   O350    1.298   .     A
C320   C1113   1.190   1_554 S
C321   C716    1.190   .     S
C322   H327    1.083   .     S
C323   H331    1.083   .     S
C323   C354    1.384   .     S
C324   H332    1.083   .     S
C324   C366    1.384   .     S
Cu325  O351    1.928   .     S
Cu325  Cu326   2.706   .     S
Cu325  O345    1.966   .     S
Cu325  O349    1.932   .     S
Cu325  N339    2.034   .     S
Cu325  O347    1.962   .     S
Cu326  O352    1.928   .     S
Cu326  O346    1.966   .     S
Cu326  O350    1.932   .     S
Cu326  N340    2.034   .     S
Cu326  O348    1.962   .     S
H328   N343    1.042   .     S
H329   N344    1.038   .     S
H330   N344    1.042   .     S
H334   N341    1.046   .     S
H335   N341    1.046   .     S
H336   N342    1.046   .     S
H337   N342    1.046   .     S
H338   N343    1.038   .     S
C353   O389    1.302   .     A
C353   C356    1.451   .     S
C353   O392    1.298   .     A
C354   C356    1.400   .     A
C354   H377    1.083   .     S
C355   C361    1.451   .     S
C355   C367    1.403   .     A
C355   C368    1.400   .     A
C356   C366    1.403   .     A
C357   N384    1.360   .     A
C357   N385    1.431   .     S
C358   N383    1.360   .     A
C358   N386    1.431   .     S
C358   C95     1.423   1_565 S
C359   N384    1.389   .     A
C359   N387    1.431   .     S
C360   N388    1.431   .     S
C360   N383    1.389   .     A
C360   C93     1.423   1_565 S
C361   O390    1.302   .     A
C361   O391    1.298   .     A
C362   O393    1.298   .     A
C362   C364    1.408   .     S
C362   O396    1.294   .     A
C363   O395    1.294   .     A
C363   C365    1.408   .     S
C363   O394    1.298   .     A
C364   C1157   1.190   1_554 S
C365   C760    1.190   .     S
C366   H371    1.083   .     S
C367   H375    1.083   .     S
C367   C266    1.384   1_655 S
C368   H376    1.083   .     S
C368   C278    1.384   1_655 S
Cu369  O395    1.928   .     S
Cu369  Cu370   2.706   .     S
Cu369  O389    1.966   .     S
Cu369  O393    1.932   .     S
Cu369  N383    2.034   .     S
Cu369  O391    1.962   .     S
Cu370  O396    1.928   .     S
Cu370  O390    1.966   .     S
Cu370  O394    1.932   .     S
Cu370  N384    2.034   .     S
Cu370  O392    1.962   .     S
H372   N387    1.042   .     S
H373   N388    1.038   .     S
H374   N388    1.042   .     S
H378   N385    1.046   .     S
H379   N385    1.046   .     S
H380   N386    1.046   .     S
H381   N386    1.046   .     S
H382   N387    1.038   .     S
C397   O433    1.302   .     A
C397   C400    1.451   .     S
C397   O436    1.298   .     A
C398   C400    1.400   .     A
C398   H421    1.083   .     S
C398   C499    1.384   1_455 S
C399   C405    1.451   .     S
C399   C411    1.403   .     A
C399   C412    1.400   .     A
C400   C410    1.403   .     A
C401   N428    1.360   .     A
C401   N429    1.431   .     S
C401   C668    1.423   1_545 S
C402   N427    1.360   .     A
C402   N430    1.431   .     S
C402   C535    1.423   .     S
C403   N428    1.389   .     A
C403   N431    1.431   .     S
C403   C666    1.423   1_545 S
C404   N432    1.431   .     S
C404   N427    1.389   .     A
C404   C533    1.423   .     S
C405   O434    1.302   .     A
C405   O435    1.298   .     A
C406   O437    1.298   .     A
C406   C408    1.408   .     S
C406   O440    1.294   .     A
C407   O439    1.294   .     A
C407   C409    1.408   .     S
C407   O438    1.298   .     A
C409   C804    1.190   .     S
C410   H415    1.083   .     S
C410   C500    1.384   1_455 S
C411   H419    1.083   .     S
C411   C442    1.384   .     S
C412   H420    1.083   .     S
C412   C454    1.384   .     S
Cu413  O439    1.928   .     S
Cu413  Cu414   2.706   .     S
Cu413  O433    1.966   .     S
Cu413  O437    1.932   .     S
Cu413  N427    2.034   .     S
Cu413  O435    1.962   .     S
Cu414  O440    1.928   .     S
Cu414  O434    1.966   .     S
Cu414  O438    1.932   .     S
Cu414  N428    2.034   .     S
Cu414  O436    1.962   .     S
H416   N431    1.042   .     S
H417   N432    1.038   .     S
H418   N432    1.042   .     S
H422   N429    1.046   .     S
H423   N429    1.046   .     S
H424   N430    1.046   .     S
H425   N430    1.046   .     S
H426   N431    1.038   .     S
C441   O477    1.302   .     A
C441   C444    1.451   .     S
C441   O480    1.298   .     A
C442   C444    1.400   .     A
C442   H465    1.083   .     S
C443   C449    1.451   .     S
C443   C455    1.403   .     A
C443   C456    1.400   .     A
C444   C454    1.403   .     A
C445   N472    1.360   .     A
C445   N473    1.431   .     S
C445   C712    1.423   1_545 S
C446   N471    1.360   .     A
C446   N474    1.431   .     S
C446   C579    1.423   .     S
C447   N472    1.389   .     A
C447   N475    1.431   .     S
C447   C710    1.423   1_545 S
C448   N476    1.431   .     S
C448   N471    1.389   .     A
C448   C577    1.423   .     S
C449   O478    1.302   .     A
C449   O479    1.298   .     A
C450   O481    1.298   .     A
C450   C452    1.408   .     S
C450   O484    1.294   .     A
C451   O483    1.294   .     A
C451   C453    1.408   .     S
C451   O482    1.298   .     A
C453   C848    1.190   .     S
C454   H459    1.083   .     S
C455   H463    1.083   .     S
C455   C486    1.384   .     S
C456   H464    1.083   .     S
C456   C498    1.384   .     S
Cu457  O483    1.928   .     S
Cu457  Cu458   2.706   .     S
Cu457  O477    1.966   .     S
Cu457  O481    1.932   .     S
Cu457  N471    2.034   .     S
Cu457  O479    1.962   .     S
Cu458  O484    1.928   .     S
Cu458  O478    1.966   .     S
Cu458  O482    1.932   .     S
Cu458  N472    2.034   .     S
Cu458  O480    1.962   .     S
H460   N475    1.042   .     S
H461   N476    1.038   .     S
H462   N476    1.042   .     S
H466   N473    1.046   .     S
H467   N473    1.046   .     S
H468   N474    1.046   .     S
H469   N474    1.046   .     S
H470   N475    1.038   .     S
C485   O521    1.302   .     A
C485   C488    1.451   .     S
C485   O524    1.298   .     A
C486   C488    1.400   .     A
C486   H509    1.083   .     S
C487   C493    1.451   .     S
C487   C499    1.403   .     A
C487   C500    1.400   .     A
C488   C498    1.403   .     A
C489   N516    1.360   .     A
C489   N517    1.431   .     S
C489   C756    1.423   1_545 S
C490   N515    1.360   .     A
C490   N518    1.431   .     S
C490   C623    1.423   .     S
C491   N516    1.389   .     A
C491   N519    1.431   .     S
C491   C754    1.423   1_545 S
C492   N520    1.431   .     S
C492   N515    1.389   .     A
C492   C621    1.423   .     S
C493   O522    1.302   .     A
C493   O523    1.298   .     A
C494   O525    1.298   .     A
C494   C496    1.408   .     S
C494   O528    1.294   .     A
C495   O527    1.294   .     A
C495   C497    1.408   .     S
C495   O526    1.298   .     A
C497   C892    1.190   .     S
C498   H503    1.083   .     S
C499   H507    1.083   .     S
C499   C398    1.384   1_655 S
C500   H508    1.083   .     S
C500   C410    1.384   1_655 S
Cu501  O527    1.928   .     S
Cu501  Cu502   2.706   .     S
Cu501  O521    1.966   .     S
Cu501  O525    1.932   .     S
Cu501  N515    2.034   .     S
Cu501  O523    1.962   .     S
Cu502  O528    1.928   .     S
Cu502  O522    1.966   .     S
Cu502  O526    1.932   .     S
Cu502  N516    2.034   .     S
Cu502  O524    1.962   .     S
H504   N519    1.042   .     S
H505   N520    1.038   .     S
H506   N520    1.042   .     S
H510   N517    1.046   .     S
H511   N517    1.046   .     S
H512   N518    1.046   .     S
H513   N518    1.046   .     S
H514   N519    1.038   .     S
C529   O565    1.302   .     A
C529   C532    1.451   .     S
C529   O568    1.298   .     A
C530   C532    1.400   .     A
C530   H553    1.083   .     S
C530   C631    1.384   1_455 S
C531   C537    1.451   .     S
C531   C543    1.403   .     A
C531   C544    1.400   .     A
C532   C542    1.403   .     A
C533   N560    1.360   .     A
C533   N561    1.431   .     S
C534   N559    1.360   .     A
C534   N562    1.431   .     S
C534   C667    1.423   .     S
C535   N560    1.389   .     A
C535   N563    1.431   .     S
C536   N564    1.431   .     S
C536   N559    1.389   .     A
C536   C665    1.423   .     S
C537   O566    1.302   .     A
C537   O567    1.298   .     A
C538   O569    1.298   .     A
C538   C540    1.408   .     S
C538   O572    1.294   .     A
C539   O571    1.294   .     A
C539   C541    1.408   .     S
C539   O570    1.298   .     A
C541   C936    1.190   .     S
C542   H547    1.083   .     S
C542   C632    1.384   1_455 S
C543   H551    1.083   .     S
C543   C574    1.384   .     S
C544   H552    1.083   .     S
C544   C586    1.384   .     S
Cu545  O571    1.928   .     S
Cu545  Cu546   2.706   .     S
Cu545  O565    1.966   .     S
Cu545  O569    1.932   .     S
Cu545  N559    2.034   .     S
Cu545  O567    1.962   .     S
Cu546  O572    1.928   .     S
Cu546  O566    1.966   .     S
Cu546  O570    1.932   .     S
Cu546  N560    2.034   .     S
Cu546  O568    1.962   .     S
H548   N563    1.042   .     S
H549   N564    1.038   .     S
H550   N564    1.042   .     S
H554   N561    1.046   .     S
H555   N561    1.046   .     S
H556   N562    1.046   .     S
H557   N562    1.046   .     S
H558   N563    1.038   .     S
C573   O609    1.302   .     A
C573   C576    1.451   .     S
C573   O612    1.298   .     A
C574   C576    1.400   .     A
C574   H597    1.083   .     S
C575   C581    1.451   .     S
C575   C587    1.403   .     A
C575   C588    1.400   .     A
C576   C586    1.403   .     A
C577   N604    1.360   .     A
C577   N605    1.431   .     S
C578   N603    1.360   .     A
C578   N606    1.431   .     S
C578   C711    1.423   .     S
C579   N604    1.389   .     A
C579   N607    1.431   .     S
C580   N608    1.431   .     S
C580   N603    1.389   .     A
C580   C709    1.423   .     S
C581   O610    1.302   .     A
C581   O611    1.298   .     A
C582   O613    1.298   .     A
C582   C584    1.408   .     S
C582   O616    1.294   .     A
C583   O615    1.294   .     A
C583   C585    1.408   .     S
C583   O614    1.298   .     A
C585   C980    1.190   .     S
C586   H591    1.083   .     S
C587   H595    1.083   .     S
C587   C618    1.384   .     S
C588   H596    1.083   .     S
C588   C630    1.384   .     S
Cu589  O615    1.928   .     S
Cu589  Cu590   2.706   .     S
Cu589  O609    1.966   .     S
Cu589  O613    1.932   .     S
Cu589  N603    2.034   .     S
Cu589  O611    1.962   .     S
Cu590  O616    1.928   .     S
Cu590  O610    1.966   .     S
Cu590  O614    1.932   .     S
Cu590  N604    2.034   .     S
Cu590  O612    1.962   .     S
H592   N607    1.042   .     S
H593   N608    1.038   .     S
H594   N608    1.042   .     S
H598   N605    1.046   .     S
H599   N605    1.046   .     S
H600   N606    1.046   .     S
H601   N606    1.046   .     S
H602   N607    1.038   .     S
C617   O653    1.302   .     A
C617   C620    1.451   .     S
C617   O656    1.298   .     A
C618   C620    1.400   .     A
C618   H641    1.083   .     S
C619   C625    1.451   .     S
C619   C631    1.403   .     A
C619   C632    1.400   .     A
C620   C630    1.403   .     A
C621   N648    1.360   .     A
C621   N649    1.431   .     S
C622   N647    1.360   .     A
C622   N650    1.431   .     S
C622   C755    1.423   .     S
C623   N648    1.389   .     A
C623   N651    1.431   .     S
C624   N652    1.431   .     S
C624   N647    1.389   .     A
C624   C753    1.423   .     S
C625   O654    1.302   .     A
C625   O655    1.298   .     A
C626   O657    1.298   .     A
C626   C628    1.408   .     S
C626   O660    1.294   .     A
C627   O659    1.294   .     A
C627   C629    1.408   .     S
C627   O658    1.298   .     A
C629   C1024   1.190   .     S
C630   H635    1.083   .     S
C631   H639    1.083   .     S
C631   C530    1.384   1_655 S
C632   H640    1.083   .     S
C632   C542    1.384   1_655 S
Cu633  O659    1.928   .     S
Cu633  Cu634   2.706   .     S
Cu633  O653    1.966   .     S
Cu633  O657    1.932   .     S
Cu633  N647    2.034   .     S
Cu633  O655    1.962   .     S
Cu634  O660    1.928   .     S
Cu634  O654    1.966   .     S
Cu634  O658    1.932   .     S
Cu634  N648    2.034   .     S
Cu634  O656    1.962   .     S
H636   N651    1.042   .     S
H637   N652    1.038   .     S
H638   N652    1.042   .     S
H642   N649    1.046   .     S
H643   N649    1.046   .     S
H644   N650    1.046   .     S
H645   N650    1.046   .     S
H646   N651    1.038   .     S
C661   O697    1.302   .     A
C661   C664    1.451   .     S
C661   O700    1.298   .     A
C662   C664    1.400   .     A
C662   H685    1.083   .     S
C662   C763    1.384   1_455 S
C663   C669    1.451   .     S
C663   C675    1.403   .     A
C663   C676    1.400   .     A
C664   C674    1.403   .     A
C665   N692    1.360   .     A
C665   N693    1.431   .     S
C666   N691    1.360   .     A
C666   N694    1.431   .     S
C666   C403    1.423   1_565 S
C667   N692    1.389   .     A
C667   N695    1.431   .     S
C668   N696    1.431   .     S
C668   N691    1.389   .     A
C668   C401    1.423   1_565 S
C669   O698    1.302   .     A
C669   O699    1.298   .     A
C670   O701    1.298   .     A
C670   C672    1.408   .     S
C670   O704    1.294   .     A
C671   O703    1.294   .     A
C671   C673    1.408   .     S
C671   O702    1.298   .     A
C673   C1068   1.190   .     S
C674   H679    1.083   .     S
C674   C764    1.384   1_455 S
C675   H683    1.083   .     S
C675   C706    1.384   .     S
C676   H684    1.083   .     S
C676   C718    1.384   .     S
Cu677  O703    1.928   .     S
Cu677  Cu678   2.706   .     S
Cu677  O697    1.966   .     S
Cu677  O701    1.932   .     S
Cu677  N691    2.034   .     S
Cu677  O699    1.962   .     S
Cu678  O704    1.928   .     S
Cu678  O698    1.966   .     S
Cu678  O702    1.932   .     S
Cu678  N692    2.034   .     S
Cu678  O700    1.962   .     S
H680   N695    1.042   .     S
H681   N696    1.038   .     S
H682   N696    1.042   .     S
H686   N693    1.046   .     S
H687   N693    1.046   .     S
H688   N694    1.046   .     S
H689   N694    1.046   .     S
H690   N695    1.038   .     S
C705   O741    1.302   .     A
C705   C708    1.451   .     S
C705   O744    1.298   .     A
C706   C708    1.400   .     A
C706   H729    1.083   .     S
C707   C713    1.451   .     S
C707   C719    1.403   .     A
C707   C720    1.400   .     A
C708   C718    1.403   .     A
C709   N736    1.360   .     A
C709   N737    1.431   .     S
C710   N735    1.360   .     A
C710   N738    1.431   .     S
C710   C447    1.423   1_565 S
C711   N736    1.389   .     A
C711   N739    1.431   .     S
C712   N740    1.431   .     S
C712   N735    1.389   .     A
C712   C445    1.423   1_565 S
C713   O742    1.302   .     A
C713   O743    1.298   .     A
C714   O745    1.298   .     A
C714   C716    1.408   .     S
C714   O748    1.294   .     A
C715   O747    1.294   .     A
C715   C717    1.408   .     S
C715   O746    1.298   .     A
C717   C1112   1.190   .     S
C718   H723    1.083   .     S
C719   H727    1.083   .     S
C719   C750    1.384   .     S
C720   H728    1.083   .     S
C720   C762    1.384   .     S
Cu721  O747    1.928   .     S
Cu721  Cu722   2.706   .     S
Cu721  O741    1.966   .     S
Cu721  O745    1.932   .     S
Cu721  N735    2.034   .     S
Cu721  O743    1.962   .     S
Cu722  O748    1.928   .     S
Cu722  O742    1.966   .     S
Cu722  O746    1.932   .     S
Cu722  N736    2.034   .     S
Cu722  O744    1.962   .     S
H724   N739    1.042   .     S
H725   N740    1.038   .     S
H726   N740    1.042   .     S
H730   N737    1.046   .     S
H731   N737    1.046   .     S
H732   N738    1.046   .     S
H733   N738    1.046   .     S
H734   N739    1.038   .     S
C749   O785    1.302   .     A
C749   C752    1.451   .     S
C749   O788    1.298   .     A
C750   C752    1.400   .     A
C750   H773    1.083   .     S
C751   C757    1.451   .     S
C751   C763    1.403   .     A
C751   C764    1.400   .     A
C752   C762    1.403   .     A
C753   N780    1.360   .     A
C753   N781    1.431   .     S
C754   N779    1.360   .     A
C754   N782    1.431   .     S
C754   C491    1.423   1_565 S
C755   N780    1.389   .     A
C755   N783    1.431   .     S
C756   N784    1.431   .     S
C756   N779    1.389   .     A
C756   C489    1.423   1_565 S
C757   O786    1.302   .     A
C757   O787    1.298   .     A
C758   O789    1.298   .     A
C758   C760    1.408   .     S
C758   O792    1.294   .     A
C759   O791    1.294   .     A
C759   C761    1.408   .     S
C759   O790    1.298   .     A
C761   C1156   1.190   .     S
C762   H767    1.083   .     S
C763   H771    1.083   .     S
C763   C662    1.384   1_655 S
C764   H772    1.083   .     S
C764   C674    1.384   1_655 S
Cu765  O791    1.928   .     S
Cu765  Cu766   2.706   .     S
Cu765  O785    1.966   .     S
Cu765  O789    1.932   .     S
Cu765  N779    2.034   .     S
Cu765  O787    1.962   .     S
Cu766  O792    1.928   .     S
Cu766  O786    1.966   .     S
Cu766  O790    1.932   .     S
Cu766  N780    2.034   .     S
Cu766  O788    1.962   .     S
H768   N783    1.042   .     S
H769   N784    1.038   .     S
H770   N784    1.042   .     S
H774   N781    1.046   .     S
H775   N781    1.046   .     S
H776   N782    1.046   .     S
H777   N782    1.046   .     S
H778   N783    1.038   .     S
C793   O829    1.302   .     A
C793   C796    1.451   .     S
C793   O832    1.298   .     A
C794   C796    1.400   .     A
C794   H817    1.083   .     S
C794   C895    1.384   1_455 S
C795   C801    1.451   .     S
C795   C807    1.403   .     A
C795   C808    1.400   .     A
C796   C806    1.403   .     A
C797   N824    1.360   .     A
C797   N825    1.431   .     S
C797   C1064   1.423   1_545 S
C798   N823    1.360   .     A
C798   N826    1.431   .     S
C798   C931    1.423   .     S
C799   N824    1.389   .     A
C799   N827    1.431   .     S
C799   C1062   1.423   1_545 S
C800   N828    1.431   .     S
C800   N823    1.389   .     A
C800   C929    1.423   .     S
C801   O830    1.302   .     A
C801   O831    1.298   .     A
C802   O833    1.298   .     A
C802   C804    1.408   .     S
C802   O836    1.294   .     A
C803   O835    1.294   .     A
C803   C805    1.408   .     S
C803   O834    1.298   .     A
C805   C12     1.190   1_556 S
C806   H811    1.083   .     S
C806   C896    1.384   1_455 S
C807   H815    1.083   .     S
C807   C838    1.384   .     S
C808   H816    1.083   .     S
C808   C850    1.384   .     S
Cu809  O835    1.928   .     S
Cu809  Cu810   2.706   .     S
Cu809  O829    1.966   .     S
Cu809  O833    1.932   .     S
Cu809  N823    2.034   .     S
Cu809  O831    1.962   .     S
Cu810  O836    1.928   .     S
Cu810  O830    1.966   .     S
Cu810  O834    1.932   .     S
Cu810  N824    2.034   .     S
Cu810  O832    1.962   .     S
H812   N827    1.042   .     S
H813   N828    1.038   .     S
H814   N828    1.042   .     S
H818   N825    1.046   .     S
H819   N825    1.046   .     S
H820   N826    1.046   .     S
H821   N826    1.046   .     S
H822   N827    1.038   .     S
C837   O873    1.302   .     A
C837   C840    1.451   .     S
C837   O876    1.298   .     A
C838   C840    1.400   .     A
C838   H861    1.083   .     S
C839   C845    1.451   .     S
C839   C851    1.403   .     A
C839   C852    1.400   .     A
C840   C850    1.403   .     A
C841   N868    1.360   .     A
C841   N869    1.431   .     S
C841   C1108   1.423   1_545 S
C842   N867    1.360   .     A
C842   N870    1.431   .     S
C842   C975    1.423   .     S
C843   N868    1.389   .     A
C843   N871    1.431   .     S
C843   C1106   1.423   1_545 S
C844   N872    1.431   .     S
C844   N867    1.389   .     A
C844   C973    1.423   .     S
C845   O874    1.302   .     A
C845   O875    1.298   .     A
C846   O877    1.298   .     A
C846   C848    1.408   .     S
C846   O880    1.294   .     A
C847   O879    1.294   .     A
C847   C849    1.408   .     S
C847   O878    1.298   .     A
C849   C56     1.190   1_556 S
C850   H855    1.083   .     S
C851   H859    1.083   .     S
C851   C882    1.384   .     S
C852   H860    1.083   .     S
C852   C894    1.384   .     S
Cu853  O879    1.928   .     S
Cu853  Cu854   2.706   .     S
Cu853  O873    1.966   .     S
Cu853  O877    1.932   .     S
Cu853  N867    2.034   .     S
Cu853  O875    1.962   .     S
Cu854  O880    1.928   .     S
Cu854  O874    1.966   .     S
Cu854  O878    1.932   .     S
Cu854  N868    2.034   .     S
Cu854  O876    1.962   .     S
H856   N871    1.042   .     S
H857   N872    1.038   .     S
H858   N872    1.042   .     S
H862   N869    1.046   .     S
H863   N869    1.046   .     S
H864   N870    1.046   .     S
H865   N870    1.046   .     S
H866   N871    1.038   .     S
C881   O917    1.302   .     A
C881   C884    1.451   .     S
C881   O920    1.298   .     A
C882   C884    1.400   .     A
C882   H905    1.083   .     S
C883   C889    1.451   .     S
C883   C895    1.403   .     A
C883   C896    1.400   .     A
C884   C894    1.403   .     A
C885   N912    1.360   .     A
C885   N913    1.431   .     S
C885   C1152   1.423   1_545 S
C886   N911    1.360   .     A
C886   N914    1.431   .     S
C886   C1019   1.423   .     S
C887   N912    1.389   .     A
C887   N915    1.431   .     S
C887   C1150   1.423   1_545 S
C888   N916    1.431   .     S
C888   N911    1.389   .     A
C888   C1017   1.423   .     S
C889   O918    1.302   .     A
C889   O919    1.298   .     A
C890   O921    1.298   .     A
C890   C892    1.408   .     S
C890   O924    1.294   .     A
C891   O923    1.294   .     A
C891   C893    1.408   .     S
C891   O922    1.298   .     A
C893   C100    1.190   1_556 S
C894   H899    1.083   .     S
C895   H903    1.083   .     S
C895   C794    1.384   1_655 S
C896   H904    1.083   .     S
C896   C806    1.384   1_655 S
Cu897  O923    1.928   .     S
Cu897  Cu898   2.706   .     S
Cu897  O917    1.966   .     S
Cu897  O921    1.932   .     S
Cu897  N911    2.034   .     S
Cu897  O919    1.962   .     S
Cu898  O924    1.928   .     S
Cu898  O918    1.966   .     S
Cu898  O922    1.932   .     S
Cu898  N912    2.034   .     S
Cu898  O920    1.962   .     S
H900   N915    1.042   .     S
H901   N916    1.038   .     S
H902   N916    1.042   .     S
H906   N913    1.046   .     S
H907   N913    1.046   .     S
H908   N914    1.046   .     S
H909   N914    1.046   .     S
H910   N915    1.038   .     S
C925   O961    1.302   .     A
C925   C928    1.451   .     S
C925   O964    1.298   .     A
C926   C928    1.400   .     A
C926   H949    1.083   .     S
C926   C1027   1.384   1_455 S
C927   C933    1.451   .     S
C927   C939    1.403   .     A
C927   C940    1.400   .     A
C928   C938    1.403   .     A
C929   N956    1.360   .     A
C929   N957    1.431   .     S
C930   N955    1.360   .     A
C930   N958    1.431   .     S
C930   C1063   1.423   .     S
C931   N956    1.389   .     A
C931   N959    1.431   .     S
C932   N960    1.431   .     S
C932   N955    1.389   .     A
C932   C1061   1.423   .     S
C933   O962    1.302   .     A
C933   O963    1.298   .     A
C934   O965    1.298   .     A
C934   C936    1.408   .     S
C934   O968    1.294   .     A
C935   O967    1.294   .     A
C935   C937    1.408   .     S
C935   O966    1.298   .     A
C937   C144    1.190   1_556 S
C938   H943    1.083   .     S
C938   C1028   1.384   1_455 S
C939   H947    1.083   .     S
C939   C970    1.384   .     S
C940   H948    1.083   .     S
C940   C982    1.384   .     S
Cu941  O967    1.928   .     S
Cu941  Cu942   2.706   .     S
Cu941  O961    1.966   .     S
Cu941  O965    1.932   .     S
Cu941  N955    2.034   .     S
Cu941  O963    1.962   .     S
Cu942  O968    1.928   .     S
Cu942  O962    1.966   .     S
Cu942  O966    1.932   .     S
Cu942  N956    2.034   .     S
Cu942  O964    1.962   .     S
H944   N959    1.042   .     S
H945   N960    1.038   .     S
H946   N960    1.042   .     S
H950   N957    1.046   .     S
H951   N957    1.046   .     S
H952   N958    1.046   .     S
H953   N958    1.046   .     S
H954   N959    1.038   .     S
C969   O1005   1.302   .     A
C969   C972    1.451   .     S
C969   O1008   1.298   .     A
C970   C972    1.400   .     A
C970   H993    1.083   .     S
C971   C977    1.451   .     S
C971   C983    1.403   .     A
C971   C984    1.400   .     A
C972   C982    1.403   .     A
C973   N1000   1.360   .     A
C973   N1001   1.431   .     S
C974   N999    1.360   .     A
C974   N1002   1.431   .     S
C974   C1107   1.423   .     S
C975   N1000   1.389   .     A
C975   N1003   1.431   .     S
C976   N1004   1.431   .     S
C976   N999    1.389   .     A
C976   C1105   1.423   .     S
C977   O1006   1.302   .     A
C977   O1007   1.298   .     A
C978   O1009   1.298   .     A
C978   C980    1.408   .     S
C978   O1012   1.294   .     A
C979   O1011   1.294   .     A
C979   C981    1.408   .     S
C979   O1010   1.298   .     A
C981   C188    1.190   1_556 S
C982   H987    1.083   .     S
C983   H991    1.083   .     S
C983   C1014   1.384   .     S
C984   H992    1.083   .     S
C984   C1026   1.384   .     S
Cu985  O1011   1.928   .     S
Cu985  Cu986   2.706   .     S
Cu985  O1005   1.966   .     S
Cu985  O1009   1.932   .     S
Cu985  N999    2.034   .     S
Cu985  O1007   1.962   .     S
Cu986  O1012   1.928   .     S
Cu986  O1006   1.966   .     S
Cu986  O1010   1.932   .     S
Cu986  N1000   2.034   .     S
Cu986  O1008   1.962   .     S
H988   N1003   1.042   .     S
H989   N1004   1.038   .     S
H990   N1004   1.042   .     S
H994   N1001   1.046   .     S
H995   N1001   1.046   .     S
H996   N1002   1.046   .     S
H997   N1002   1.046   .     S
H998   N1003   1.038   .     S
C1013  O1049   1.302   .     A
C1013  C1016   1.451   .     S
C1013  O1052   1.298   .     A
C1014  C1016   1.400   .     A
C1014  H1037   1.083   .     S
C1015  C1021   1.451   .     S
C1015  C1027   1.403   .     A
C1015  C1028   1.400   .     A
C1016  C1026   1.403   .     A
C1017  N1044   1.360   .     A
C1017  N1045   1.431   .     S
C1018  N1043   1.360   .     A
C1018  N1046   1.431   .     S
C1018  C1151   1.423   .     S
C1019  N1044   1.389   .     A
C1019  N1047   1.431   .     S
C1020  N1048   1.431   .     S
C1020  N1043   1.389   .     A
C1020  C1149   1.423   .     S
C1021  O1050   1.302   .     A
C1021  O1051   1.298   .     A
C1022  O1053   1.298   .     A
C1022  C1024   1.408   .     S
C1022  O1056   1.294   .     A
C1023  O1055   1.294   .     A
C1023  C1025   1.408   .     S
C1023  O1054   1.298   .     A
C1025  C232    1.190   1_556 S
C1026  H1031   1.083   .     S
C1027  H1035   1.083   .     S
C1027  C926    1.384   1_655 S
C1028  H1036   1.083   .     S
C1028  C938    1.384   1_655 S
Cu1029 O1055   1.928   .     S
Cu1029 Cu1030  2.706   .     S
Cu1029 O1049   1.966   .     S
Cu1029 O1053   1.932   .     S
Cu1029 N1043   2.034   .     S
Cu1029 O1051   1.962   .     S
Cu1030 O1056   1.928   .     S
Cu1030 O1050   1.966   .     S
Cu1030 O1054   1.932   .     S
Cu1030 N1044   2.034   .     S
Cu1030 O1052   1.962   .     S
H1032  N1047   1.042   .     S
H1033  N1048   1.038   .     S
H1034  N1048   1.042   .     S
H1038  N1045   1.046   .     S
H1039  N1045   1.046   .     S
H1040  N1046   1.046   .     S
H1041  N1046   1.046   .     S
H1042  N1047   1.038   .     S
C1057  O1093   1.302   .     A
C1057  C1060   1.451   .     S
C1057  O1096   1.298   .     A
C1058  C1060   1.400   .     A
C1058  H1081   1.083   .     S
C1058  C1159   1.384   1_455 S
C1059  C1065   1.451   .     S
C1059  C1071   1.403   .     A
C1059  C1072   1.400   .     A
C1060  C1070   1.403   .     A
C1061  N1088   1.360   .     A
C1061  N1089   1.431   .     S
C1062  N1087   1.360   .     A
C1062  N1090   1.431   .     S
C1062  C799    1.423   1_565 S
C1063  N1088   1.389   .     A
C1063  N1091   1.431   .     S
C1064  N1092   1.431   .     S
C1064  N1087   1.389   .     A
C1064  C797    1.423   1_565 S
C1065  O1094   1.302   .     A
C1065  O1095   1.298   .     A
C1066  O1097   1.298   .     A
C1066  C1068   1.408   .     S
C1066  O1100   1.294   .     A
C1067  O1099   1.294   .     A
C1067  C1069   1.408   .     S
C1067  O1098   1.298   .     A
C1069  C276    1.190   1_556 S
C1070  H1075   1.083   .     S
C1070  C1160   1.384   1_455 S
C1071  H1079   1.083   .     S
C1071  C1102   1.384   .     S
C1072  H1080   1.083   .     S
C1072  C1114   1.384   .     S
Cu1073 O1099   1.928   .     S
Cu1073 Cu1074  2.706   .     S
Cu1073 O1093   1.966   .     S
Cu1073 O1097   1.932   .     S
Cu1073 N1087   2.034   .     S
Cu1073 O1095   1.962   .     S
Cu1074 O1100   1.928   .     S
Cu1074 O1094   1.966   .     S
Cu1074 O1098   1.932   .     S
Cu1074 N1088   2.034   .     S
Cu1074 O1096   1.962   .     S
H1076  N1091   1.042   .     S
H1077  N1092   1.038   .     S
H1078  N1092   1.042   .     S
H1082  N1089   1.046   .     S
H1083  N1089   1.046   .     S
H1084  N1090   1.046   .     S
H1085  N1090   1.046   .     S
H1086  N1091   1.038   .     S
C1101  O1137   1.302   .     A
C1101  C1104   1.451   .     S
C1101  O1140   1.298   .     A
C1102  C1104   1.400   .     A
C1102  H1125   1.083   .     S
C1103  C1109   1.451   .     S
C1103  C1115   1.403   .     A
C1103  C1116   1.400   .     A
C1104  C1114   1.403   .     A
C1105  N1132   1.360   .     A
C1105  N1133   1.431   .     S
C1106  N1131   1.360   .     A
C1106  N1134   1.431   .     S
C1106  C843    1.423   1_565 S
C1107  N1132   1.389   .     A
C1107  N1135   1.431   .     S
C1108  N1136   1.431   .     S
C1108  N1131   1.389   .     A
C1108  C841    1.423   1_565 S
C1109  O1138   1.302   .     A
C1109  O1139   1.298   .     A
C1110  O1141   1.298   .     A
C1110  C1112   1.408   .     S
C1110  O1144   1.294   .     A
C1111  O1143   1.294   .     A
C1111  C1113   1.408   .     S
C1111  O1142   1.298   .     A
C1113  C320    1.190   1_556 S
C1114  H1119   1.083   .     S
C1115  H1123   1.083   .     S
C1115  C1146   1.384   .     S
C1116  H1124   1.083   .     S
C1116  C1158   1.384   .     S
Cu1117 O1143   1.928   .     S
Cu1117 Cu1118  2.706   .     S
Cu1117 O1137   1.966   .     S
Cu1117 O1141   1.932   .     S
Cu1117 N1131   2.034   .     S
Cu1117 O1139   1.962   .     S
Cu1118 O1144   1.928   .     S
Cu1118 O1138   1.966   .     S
Cu1118 O1142   1.932   .     S
Cu1118 N1132   2.034   .     S
Cu1118 O1140   1.962   .     S
H1120  N1135   1.042   .     S
H1121  N1136   1.038   .     S
H1122  N1136   1.042   .     S
H1126  N1133   1.046   .     S
H1127  N1133   1.046   .     S
H1128  N1134   1.046   .     S
H1129  N1134   1.046   .     S
H1130  N1135   1.038   .     S
C1145  O1181   1.302   .     A
C1145  C1148   1.451   .     S
C1145  O1184   1.298   .     A
C1146  C1148   1.400   .     A
C1146  H1169   1.083   .     S
C1147  C1153   1.451   .     S
C1147  C1159   1.403   .     A
C1147  C1160   1.400   .     A
C1148  C1158   1.403   .     A
C1149  N1176   1.360   .     A
C1149  N1177   1.431   .     S
C1150  N1175   1.360   .     A
C1150  N1178   1.431   .     S
C1150  C887    1.423   1_565 S
C1151  N1176   1.389   .     A
C1151  N1179   1.431   .     S
C1152  N1180   1.431   .     S
C1152  N1175   1.389   .     A
C1152  C885    1.423   1_565 S
C1153  O1182   1.302   .     A
C1153  O1183   1.298   .     A
C1154  O1185   1.298   .     A
C1154  C1156   1.408   .     S
C1154  O1188   1.294   .     A
C1155  O1187   1.294   .     A
C1155  C1157   1.408   .     S
C1155  O1186   1.298   .     A
C1157  C364    1.190   1_556 S
C1158  H1163   1.083   .     S
C1159  H1167   1.083   .     S
C1159  C1058   1.384   1_655 S
C1160  H1168   1.083   .     S
C1160  C1070   1.384   1_655 S
Cu1161 O1187   1.928   .     S
Cu1161 Cu1162  2.706   .     S
Cu1161 O1181   1.966   .     S
Cu1161 O1185   1.932   .     S
Cu1161 N1175   2.034   .     S
Cu1161 O1183   1.962   .     S
Cu1162 O1188   1.928   .     S
Cu1162 O1182   1.966   .     S
Cu1162 O1186   1.932   .     S
Cu1162 N1176   2.034   .     S
Cu1162 O1184   1.962   .     S
H1164  N1179   1.042   .     S
H1165  N1180   1.038   .     S
H1166  N1180   1.042   .     S
H1170  N1177   1.046   .     S
H1171  N1177   1.046   .     S
H1172  N1178   1.046   .     S
H1173  N1178   1.046   .     S
H1174  N1179   1.038   .     S
