data_str_m2_o1_o17_pcu_sym.91
_audit_creation_date              2020-01-03
_audit_creation_method            'Materials Studio'
_symmetry_space_group_name_H-M    'P1'
_symmetry_Int_Tables_number       1
_symmetry_cell_setting            triclinic
loop_
_symmetry_equiv_pos_as_xyz
  x,y,z
_cell_length_a                    32.6452
_cell_length_b                    28.7364
_cell_length_c                    30.1381
_cell_angle_alpha                 90.0062
_cell_angle_beta                  91.8156
_cell_angle_gamma                 91.0976
loop_
_atom_site_label
_atom_site_type_symbol
_atom_site_fract_x
_atom_site_fract_y
_atom_site_fract_z
_atom_site_U_iso_or_equiv
_atom_site_adp_type
_atom_site_occupancy
C1     C     0.08750   0.16634   0.24988   0.00000  Uiso   1.00
C2     C     0.04289   0.16597   0.25025   0.00000  Uiso   1.00
C3     C     0.14415   0.02425   0.21869   0.00000  Uiso   1.00
C4     C     0.18920   0.30908   0.28129   0.00000  Uiso   1.00
C5     C     0.18953   0.02559   0.28097   0.00000  Uiso   1.00
C6     C     0.14382   0.30774   0.21902   0.00000  Uiso   1.00
C7     C     0.16687   0.16675   0.16471   0.00000  Uiso   1.00
C8     C     0.16653   0.16661   0.33528   0.00000  Uiso   1.00
C9     C     0.20324   0.16530   0.40722   0.00000  Uiso   1.00
C10    C     0.12969   0.16670   0.09284   0.00000  Uiso   1.00
C11    C     0.16585   0.16609   0.38338   0.00000  Uiso   1.00
C12    C     0.24588   0.16691   0.24988   0.00000  Uiso   1.00
C13    C     0.16719   0.16739   0.11657   0.00000  Uiso   1.00
C14    C     0.12824   0.16622   0.40480   0.00000  Uiso   1.00
C15    C     0.20461   0.16921   0.09484   0.00000  Uiso   1.00
C16    C     0.12804   0.16843   0.45180   0.00000  Uiso   1.00
C17    C     0.20457   0.16502   0.04808   0.00000  Uiso   1.00
C18    C     0.16611   0.16635   0.47644   0.00000  Uiso   1.00
C19    C     0.16655   0.16682   0.02348   0.00000  Uiso   1.00
C20    C     0.20378   0.16367   0.45403   0.00000  Uiso   1.00
C21    C     0.12900   0.16914   0.04603   0.00000  Uiso   1.00
C22    C     0.09089   0.17255   0.47501   0.00000  Uiso   1.00
C23    C     0.09161   0.17405   0.02165   0.00000  Uiso   1.00
C24    C     0.24153   0.15909   0.02522   0.00000  Uiso   1.00
C25    C     0.24120   0.15937   0.47862   0.00000  Uiso   1.00
C26    C     0.02011   0.13268   0.22528   0.00000  Uiso   1.00
C27    C     0.31344   0.20043   0.27440   0.00000  Uiso   1.00
C28    C     0.31077   0.13277   0.22499   0.00000  Uiso   1.00
C29    C     0.02304   0.19972   0.27510   0.00000  Uiso   1.00
C30    C     0.29057   0.16694   0.24950   0.00000  Uiso   1.00
Cu31   Cu    0.16667   0.21355   0.25000   0.00000  Uiso   1.00
Cu32   Cu    0.16667   0.11978   0.25000   0.00000  Uiso   1.00
H33    H     0.24136   0.19748   0.36448   0.00000  Uiso   1.00
H34    H     0.29130   0.17895   0.06422   0.00000  Uiso   1.00
H35    H     0.03373   0.19242   0.02441   0.00000  Uiso   1.00
H36    H     0.30139   0.16106   0.47590   0.00000  Uiso   1.00
H37    H     0.03043   0.10195   0.16641   0.00000  Uiso   1.00
H38    H     0.03137   0.06579   0.21074   0.00000  Uiso   1.00
H39    H     0.30193   0.23143   0.33307   0.00000  Uiso   1.00
H40    H     0.30194   0.26756   0.28848   0.00000  Uiso   1.00
H41    H     0.26698   0.11426   0.17803   0.00000  Uiso   1.00
H42    H     0.27468   0.07429   0.21946   0.00000  Uiso   1.00
H43    H     0.03994   0.26619   0.29150   0.00000  Uiso   1.00
H44    H     0.24161   0.13831   0.36225   0.00000  Uiso   1.00
H45    H     0.03902   0.22848   0.33506   0.00000  Uiso   1.00
H46    H     0.13468   0.04129   0.15437   0.00000  Uiso   1.00
H47    H     0.09166   0.03550   0.18340   0.00000  Uiso   1.00
H48    H     0.19877   0.29204   0.34561   0.00000  Uiso   1.00
H49    H     0.24175   0.29779   0.31648   0.00000  Uiso   1.00
H50    H     0.20634   0.04169   0.34458   0.00000  Uiso   1.00
H51    H     0.24515   0.04368   0.30818   0.00000  Uiso   1.00
H52    H     0.12705   0.29164   0.15539   0.00000  Uiso   1.00
H53    H     0.08822   0.28964   0.19176   0.00000  Uiso   1.00
H54    H     0.09286   0.13200   0.13509   0.00000  Uiso   1.00
H55    H     0.09050   0.19099   0.13834   0.00000  Uiso   1.00
H56    H     0.09522   0.15236   0.35030   0.00000  Uiso   1.00
H57    H     0.23684   0.18921   0.14805   0.00000  Uiso   1.00
H58    H     0.05049   0.20419   0.43184   0.00000  Uiso   1.00
H59    H     0.04486   0.14401   0.43539   0.00000  Uiso   1.00
H60    H     0.27572   0.12132   0.07006   0.00000  Uiso   1.00
N61    N     0.16667   0.28402   0.25000   0.00000  Uiso   1.00
N62    N     0.04675   0.23244   0.30187   0.00000  Uiso   1.00
N63    N     0.12167   0.04854   0.18479   0.00000  Uiso   1.00
N64    N     0.21173   0.28478   0.31516   0.00000  Uiso   1.00
N65    N     0.21441   0.05148   0.31258   0.00000  Uiso   1.00
N66    N     0.11897   0.28184   0.18738   0.00000  Uiso   1.00
N67    N     0.16667   0.04931   0.25000   0.00000  Uiso   1.00
N68    N     0.24077   0.16706   0.38345   0.00000  Uiso   1.00
N69    N     0.09227   0.16276   0.11663   0.00000  Uiso   1.00
N70    N     0.05152   0.17501   0.45252   0.00000  Uiso   1.00
N71    N     0.27968   0.14910   0.04810   0.00000  Uiso   1.00
N72    N     0.04042   0.09875   0.19956   0.00000  Uiso   1.00
N73    N     0.29293   0.23461   0.29965   0.00000  Uiso   1.00
N74    N     0.28888   0.09824   0.19856   0.00000  Uiso   1.00
O75    O     0.10655   0.20625   0.24999   0.00000  Uiso   1.00
O76    O     0.24132   0.17558   0.11852   0.00000  Uiso   1.00
O77    O     0.05584   0.18067   0.04431   0.00000  Uiso   1.00
O78    O     0.27726   0.15354   0.45637   0.00000  Uiso   1.00
O79    O     0.22679   0.12709   0.25001   0.00000  Uiso   1.00
O80    O     0.22679   0.20625   0.25001   0.00000  Uiso   1.00
O81    O     0.10655   0.12709   0.24999   0.00000  Uiso   1.00
O82    O     0.16666   0.20627   0.18513   0.00000  Uiso   1.00
O83    O     0.16668   0.12707   0.31487   0.00000  Uiso   1.00
O84    O     0.16668   0.20627   0.31487   0.00000  Uiso   1.00
O85    O     0.16666   0.12707   0.18513   0.00000  Uiso   1.00
O86    O     0.09161   0.16517   0.38032   0.00000  Uiso   1.00
C87    C     0.42083   0.16634   0.24988   0.00000  Uiso   1.00
C88    C     0.37623   0.16597   0.25025   0.00000  Uiso   1.00
C89    C     0.47749   0.02425   0.21869   0.00000  Uiso   1.00
C90    C     0.52253   0.30908   0.28129   0.00000  Uiso   1.00
C91    C     0.52286   0.02559   0.28097   0.00000  Uiso   1.00
C92    C     0.47715   0.30774   0.21902   0.00000  Uiso   1.00
C93    C     0.50020   0.16675   0.16471   0.00000  Uiso   1.00
C94    C     0.49986   0.16661   0.33528   0.00000  Uiso   1.00
C95    C     0.53657   0.16530   0.40722   0.00000  Uiso   1.00
C96    C     0.46302   0.16670   0.09284   0.00000  Uiso   1.00
C97    C     0.49918   0.16609   0.38338   0.00000  Uiso   1.00
C98    C     0.57921   0.16691   0.24988   0.00000  Uiso   1.00
C99    C     0.50052   0.16739   0.11657   0.00000  Uiso   1.00
C100   C     0.46157   0.16622   0.40480   0.00000  Uiso   1.00
C101   C     0.53794   0.16921   0.09484   0.00000  Uiso   1.00
C102   C     0.46137   0.16843   0.45180   0.00000  Uiso   1.00
C103   C     0.53790   0.16502   0.04808   0.00000  Uiso   1.00
C104   C     0.49944   0.16635   0.47644   0.00000  Uiso   1.00
C105   C     0.49989   0.16682   0.02348   0.00000  Uiso   1.00
C106   C     0.53711   0.16367   0.45403   0.00000  Uiso   1.00
C107   C     0.46233   0.16914   0.04603   0.00000  Uiso   1.00
C108   C     0.42422   0.17255   0.47501   0.00000  Uiso   1.00
C109   C     0.42494   0.17405   0.02165   0.00000  Uiso   1.00
C110   C     0.57487   0.15909   0.02522   0.00000  Uiso   1.00
C111   C     0.57453   0.15937   0.47862   0.00000  Uiso   1.00
C112   C     0.35345   0.13268   0.22528   0.00000  Uiso   1.00
C113   C     0.64678   0.20043   0.27440   0.00000  Uiso   1.00
C114   C     0.64410   0.13277   0.22499   0.00000  Uiso   1.00
C115   C     0.35637   0.19972   0.27510   0.00000  Uiso   1.00
C116   C     0.62391   0.16694   0.24950   0.00000  Uiso   1.00
Cu117  Cu    0.50000   0.21355   0.25000   0.00000  Uiso   1.00
Cu118  Cu    0.50000   0.11978   0.25000   0.00000  Uiso   1.00
H119   H     0.57469   0.19748   0.36448   0.00000  Uiso   1.00
H120   H     0.62464   0.17895   0.06422   0.00000  Uiso   1.00
H121   H     0.36706   0.19242   0.02441   0.00000  Uiso   1.00
H122   H     0.63472   0.16106   0.47590   0.00000  Uiso   1.00
H123   H     0.36377   0.10195   0.16641   0.00000  Uiso   1.00
H124   H     0.36470   0.06579   0.21074   0.00000  Uiso   1.00
H125   H     0.63526   0.23143   0.33307   0.00000  Uiso   1.00
H126   H     0.63527   0.26756   0.28848   0.00000  Uiso   1.00
H127   H     0.60032   0.11426   0.17803   0.00000  Uiso   1.00
H128   H     0.60801   0.07429   0.21946   0.00000  Uiso   1.00
H129   H     0.37328   0.26619   0.29150   0.00000  Uiso   1.00
H130   H     0.57495   0.13831   0.36225   0.00000  Uiso   1.00
H131   H     0.37236   0.22848   0.33506   0.00000  Uiso   1.00
H132   H     0.46802   0.04129   0.15437   0.00000  Uiso   1.00
H133   H     0.42499   0.03550   0.18340   0.00000  Uiso   1.00
H134   H     0.53211   0.29204   0.34561   0.00000  Uiso   1.00
H135   H     0.57509   0.29779   0.31648   0.00000  Uiso   1.00
H136   H     0.53967   0.04169   0.34458   0.00000  Uiso   1.00
H137   H     0.57848   0.04368   0.30818   0.00000  Uiso   1.00
H138   H     0.46039   0.29164   0.15539   0.00000  Uiso   1.00
H139   H     0.42156   0.28964   0.19176   0.00000  Uiso   1.00
H140   H     0.42619   0.13200   0.13509   0.00000  Uiso   1.00
H141   H     0.42383   0.19099   0.13834   0.00000  Uiso   1.00
H142   H     0.42855   0.15236   0.35030   0.00000  Uiso   1.00
H143   H     0.57017   0.18921   0.14805   0.00000  Uiso   1.00
H144   H     0.38382   0.20419   0.43184   0.00000  Uiso   1.00
H145   H     0.37819   0.14401   0.43539   0.00000  Uiso   1.00
H146   H     0.60905   0.12132   0.07006   0.00000  Uiso   1.00
N147   N     0.50000   0.28402   0.25000   0.00000  Uiso   1.00
N148   N     0.38009   0.23244   0.30187   0.00000  Uiso   1.00
N149   N     0.45501   0.04854   0.18479   0.00000  Uiso   1.00
N150   N     0.54506   0.28478   0.31516   0.00000  Uiso   1.00
N151   N     0.54774   0.05148   0.31258   0.00000  Uiso   1.00
N152   N     0.45230   0.28184   0.18738   0.00000  Uiso   1.00
N153   N     0.50000   0.04931   0.25000   0.00000  Uiso   1.00
N154   N     0.57410   0.16706   0.38345   0.00000  Uiso   1.00
N155   N     0.42561   0.16276   0.11663   0.00000  Uiso   1.00
N156   N     0.38485   0.17501   0.45252   0.00000  Uiso   1.00
N157   N     0.61301   0.14910   0.04810   0.00000  Uiso   1.00
N158   N     0.37376   0.09875   0.19956   0.00000  Uiso   1.00
N159   N     0.62626   0.23461   0.29965   0.00000  Uiso   1.00
N160   N     0.62221   0.09824   0.19856   0.00000  Uiso   1.00
O161   O     0.43988   0.20625   0.24999   0.00000  Uiso   1.00
O162   O     0.57465   0.17558   0.11852   0.00000  Uiso   1.00
O163   O     0.38918   0.18067   0.04431   0.00000  Uiso   1.00
O164   O     0.61059   0.15354   0.45637   0.00000  Uiso   1.00
O165   O     0.56012   0.12709   0.25001   0.00000  Uiso   1.00
O166   O     0.56012   0.20625   0.25001   0.00000  Uiso   1.00
O167   O     0.43988   0.12709   0.24999   0.00000  Uiso   1.00
O168   O     0.49999   0.20627   0.18513   0.00000  Uiso   1.00
O169   O     0.50001   0.12707   0.31487   0.00000  Uiso   1.00
O170   O     0.50001   0.20627   0.31487   0.00000  Uiso   1.00
O171   O     0.49999   0.12707   0.18513   0.00000  Uiso   1.00
O172   O     0.42495   0.16517   0.38032   0.00000  Uiso   1.00
C173   C     0.75417   0.16634   0.24988   0.00000  Uiso   1.00
C174   C     0.70956   0.16597   0.25025   0.00000  Uiso   1.00
C175   C     0.81082   0.02425   0.21869   0.00000  Uiso   1.00
C176   C     0.85587   0.30908   0.28129   0.00000  Uiso   1.00
C177   C     0.85620   0.02559   0.28097   0.00000  Uiso   1.00
C178   C     0.81049   0.30774   0.21902   0.00000  Uiso   1.00
C179   C     0.83354   0.16675   0.16471   0.00000  Uiso   1.00
C180   C     0.83319   0.16661   0.33528   0.00000  Uiso   1.00
C181   C     0.86991   0.16530   0.40722   0.00000  Uiso   1.00
C182   C     0.79635   0.16670   0.09284   0.00000  Uiso   1.00
C183   C     0.83252   0.16609   0.38338   0.00000  Uiso   1.00
C184   C     0.91254   0.16691   0.24988   0.00000  Uiso   1.00
C185   C     0.83385   0.16739   0.11657   0.00000  Uiso   1.00
C186   C     0.79490   0.16622   0.40480   0.00000  Uiso   1.00
C187   C     0.87127   0.16921   0.09484   0.00000  Uiso   1.00
C188   C     0.79470   0.16843   0.45180   0.00000  Uiso   1.00
C189   C     0.87124   0.16502   0.04808   0.00000  Uiso   1.00
C190   C     0.83277   0.16635   0.47644   0.00000  Uiso   1.00
C191   C     0.83322   0.16682   0.02348   0.00000  Uiso   1.00
C192   C     0.87044   0.16367   0.45403   0.00000  Uiso   1.00
C193   C     0.79566   0.16914   0.04603   0.00000  Uiso   1.00
C194   C     0.75755   0.17255   0.47501   0.00000  Uiso   1.00
C195   C     0.75827   0.17405   0.02165   0.00000  Uiso   1.00
C196   C     0.90820   0.15909   0.02522   0.00000  Uiso   1.00
C197   C     0.90787   0.15937   0.47862   0.00000  Uiso   1.00
C198   C     0.68678   0.13268   0.22528   0.00000  Uiso   1.00
C199   C     0.98011   0.20043   0.27440   0.00000  Uiso   1.00
C200   C     0.97743   0.13277   0.22499   0.00000  Uiso   1.00
C201   C     0.68971   0.19972   0.27510   0.00000  Uiso   1.00
C202   C     0.95724   0.16694   0.24950   0.00000  Uiso   1.00
Cu203  Cu    0.83333   0.21355   0.25000   0.00000  Uiso   1.00
Cu204  Cu    0.83333   0.11978   0.25000   0.00000  Uiso   1.00
H205   H     0.90802   0.19748   0.36448   0.00000  Uiso   1.00
H206   H     0.95797   0.17895   0.06422   0.00000  Uiso   1.00
H207   H     0.70039   0.19242   0.02441   0.00000  Uiso   1.00
H208   H     0.96806   0.16106   0.47590   0.00000  Uiso   1.00
H209   H     0.69710   0.10195   0.16641   0.00000  Uiso   1.00
H210   H     0.69803   0.06579   0.21074   0.00000  Uiso   1.00
H211   H     0.96859   0.23143   0.33307   0.00000  Uiso   1.00
H212   H     0.96861   0.26756   0.28848   0.00000  Uiso   1.00
H213   H     0.93365   0.11426   0.17803   0.00000  Uiso   1.00
H214   H     0.94135   0.07429   0.21946   0.00000  Uiso   1.00
H215   H     0.70661   0.26619   0.29150   0.00000  Uiso   1.00
H216   H     0.90828   0.13831   0.36225   0.00000  Uiso   1.00
H217   H     0.70569   0.22848   0.33506   0.00000  Uiso   1.00
H218   H     0.80135   0.04129   0.15437   0.00000  Uiso   1.00
H219   H     0.75832   0.03550   0.18340   0.00000  Uiso   1.00
H220   H     0.86544   0.29204   0.34561   0.00000  Uiso   1.00
H221   H     0.90842   0.29779   0.31648   0.00000  Uiso   1.00
H222   H     0.87301   0.04169   0.34458   0.00000  Uiso   1.00
H223   H     0.91181   0.04368   0.30818   0.00000  Uiso   1.00
H224   H     0.79372   0.29164   0.15539   0.00000  Uiso   1.00
H225   H     0.75489   0.28964   0.19176   0.00000  Uiso   1.00
H226   H     0.75952   0.13200   0.13509   0.00000  Uiso   1.00
H227   H     0.75717   0.19099   0.13834   0.00000  Uiso   1.00
H228   H     0.76188   0.15236   0.35030   0.00000  Uiso   1.00
H229   H     0.90350   0.18921   0.14805   0.00000  Uiso   1.00
H230   H     0.71716   0.20419   0.43184   0.00000  Uiso   1.00
H231   H     0.71153   0.14401   0.43539   0.00000  Uiso   1.00
H232   H     0.94238   0.12132   0.07006   0.00000  Uiso   1.00
N233   N     0.83333   0.28402   0.25000   0.00000  Uiso   1.00
N234   N     0.71342   0.23244   0.30187   0.00000  Uiso   1.00
N235   N     0.78834   0.04854   0.18479   0.00000  Uiso   1.00
N236   N     0.87839   0.28478   0.31516   0.00000  Uiso   1.00
N237   N     0.88108   0.05148   0.31258   0.00000  Uiso   1.00
N238   N     0.78563   0.28184   0.18738   0.00000  Uiso   1.00
N239   N     0.83333   0.04931   0.25000   0.00000  Uiso   1.00
N240   N     0.90743   0.16706   0.38345   0.00000  Uiso   1.00
N241   N     0.75894   0.16276   0.11663   0.00000  Uiso   1.00
N242   N     0.71818   0.17501   0.45252   0.00000  Uiso   1.00
N243   N     0.94635   0.14910   0.04810   0.00000  Uiso   1.00
N244   N     0.70709   0.09875   0.19956   0.00000  Uiso   1.00
N245   N     0.95960   0.23461   0.29965   0.00000  Uiso   1.00
N246   N     0.95554   0.09824   0.19856   0.00000  Uiso   1.00
O247   O     0.77321   0.20625   0.24999   0.00000  Uiso   1.00
O248   O     0.90799   0.17558   0.11852   0.00000  Uiso   1.00
O249   O     0.72251   0.18067   0.04431   0.00000  Uiso   1.00
O250   O     0.94393   0.15354   0.45637   0.00000  Uiso   1.00
O251   O     0.89345   0.12709   0.25001   0.00000  Uiso   1.00
O252   O     0.89345   0.20625   0.25001   0.00000  Uiso   1.00
O253   O     0.77321   0.12709   0.24999   0.00000  Uiso   1.00
O254   O     0.83332   0.20627   0.18513   0.00000  Uiso   1.00
O255   O     0.83334   0.12707   0.31487   0.00000  Uiso   1.00
O256   O     0.83334   0.20627   0.31487   0.00000  Uiso   1.00
O257   O     0.83332   0.12707   0.18513   0.00000  Uiso   1.00
O258   O     0.75828   0.16517   0.38032   0.00000  Uiso   1.00
C259   C     0.08750   0.49967   0.24988   0.00000  Uiso   1.00
C260   C     0.04289   0.49931   0.25025   0.00000  Uiso   1.00
C261   C     0.14415   0.35758   0.21869   0.00000  Uiso   1.00
C262   C     0.18920   0.64241   0.28129   0.00000  Uiso   1.00
C263   C     0.18953   0.35892   0.28097   0.00000  Uiso   1.00
C264   C     0.14382   0.64108   0.21902   0.00000  Uiso   1.00
C265   C     0.16687   0.50008   0.16471   0.00000  Uiso   1.00
C266   C     0.16653   0.49995   0.33528   0.00000  Uiso   1.00
C267   C     0.20324   0.49863   0.40722   0.00000  Uiso   1.00
C268   C     0.12969   0.50003   0.09284   0.00000  Uiso   1.00
C269   C     0.16585   0.49942   0.38338   0.00000  Uiso   1.00
C270   C     0.24588   0.50024   0.24988   0.00000  Uiso   1.00
C271   C     0.16719   0.50072   0.11657   0.00000  Uiso   1.00
C272   C     0.12824   0.49956   0.40480   0.00000  Uiso   1.00
C273   C     0.20461   0.50255   0.09484   0.00000  Uiso   1.00
C274   C     0.12804   0.50176   0.45180   0.00000  Uiso   1.00
C275   C     0.20457   0.49835   0.04808   0.00000  Uiso   1.00
C276   C     0.16611   0.49968   0.47644   0.00000  Uiso   1.00
C277   C     0.16655   0.50015   0.02348   0.00000  Uiso   1.00
C278   C     0.20378   0.49701   0.45403   0.00000  Uiso   1.00
C279   C     0.12900   0.50248   0.04603   0.00000  Uiso   1.00
C280   C     0.09089   0.50588   0.47501   0.00000  Uiso   1.00
C281   C     0.09161   0.50738   0.02165   0.00000  Uiso   1.00
C282   C     0.24153   0.49243   0.02522   0.00000  Uiso   1.00
C283   C     0.24120   0.49271   0.47862   0.00000  Uiso   1.00
C284   C     0.02011   0.46601   0.22528   0.00000  Uiso   1.00
C285   C     0.31344   0.53377   0.27440   0.00000  Uiso   1.00
C286   C     0.31077   0.46611   0.22499   0.00000  Uiso   1.00
C287   C     0.02304   0.53306   0.27510   0.00000  Uiso   1.00
C288   C     0.29057   0.50027   0.24950   0.00000  Uiso   1.00
Cu289  Cu    0.16667   0.54689   0.25000   0.00000  Uiso   1.00
Cu290  Cu    0.16667   0.45311   0.25000   0.00000  Uiso   1.00
H291   H     0.24136   0.53081   0.36448   0.00000  Uiso   1.00
H292   H     0.29130   0.51228   0.06422   0.00000  Uiso   1.00
H293   H     0.03373   0.52575   0.02441   0.00000  Uiso   1.00
H294   H     0.30139   0.49439   0.47590   0.00000  Uiso   1.00
H295   H     0.03043   0.43529   0.16641   0.00000  Uiso   1.00
H296   H     0.03137   0.39912   0.21074   0.00000  Uiso   1.00
H297   H     0.30193   0.56477   0.33307   0.00000  Uiso   1.00
H298   H     0.30194   0.60089   0.28848   0.00000  Uiso   1.00
H299   H     0.26698   0.44759   0.17803   0.00000  Uiso   1.00
H300   H     0.27468   0.40763   0.21946   0.00000  Uiso   1.00
H301   H     0.03994   0.59953   0.29150   0.00000  Uiso   1.00
H302   H     0.24161   0.47165   0.36225   0.00000  Uiso   1.00
H303   H     0.03902   0.56181   0.33506   0.00000  Uiso   1.00
H304   H     0.13468   0.37463   0.15437   0.00000  Uiso   1.00
H305   H     0.09166   0.36883   0.18340   0.00000  Uiso   1.00
H306   H     0.19877   0.62537   0.34561   0.00000  Uiso   1.00
H307   H     0.24175   0.63112   0.31648   0.00000  Uiso   1.00
H308   H     0.20634   0.37502   0.34458   0.00000  Uiso   1.00
H309   H     0.24515   0.37701   0.30818   0.00000  Uiso   1.00
H310   H     0.12705   0.62497   0.15539   0.00000  Uiso   1.00
H311   H     0.08822   0.62298   0.19176   0.00000  Uiso   1.00
H312   H     0.09286   0.46534   0.13509   0.00000  Uiso   1.00
H313   H     0.09050   0.52433   0.13834   0.00000  Uiso   1.00
H314   H     0.09522   0.48569   0.35030   0.00000  Uiso   1.00
H315   H     0.23684   0.52255   0.14805   0.00000  Uiso   1.00
H316   H     0.05049   0.53752   0.43184   0.00000  Uiso   1.00
H317   H     0.04486   0.47735   0.43539   0.00000  Uiso   1.00
H318   H     0.27572   0.45466   0.07006   0.00000  Uiso   1.00
N319   N     0.16667   0.61736   0.25000   0.00000  Uiso   1.00
N320   N     0.04675   0.56577   0.30187   0.00000  Uiso   1.00
N321   N     0.12167   0.38187   0.18479   0.00000  Uiso   1.00
N322   N     0.21173   0.61811   0.31516   0.00000  Uiso   1.00
N323   N     0.21441   0.38482   0.31258   0.00000  Uiso   1.00
N324   N     0.11897   0.61518   0.18738   0.00000  Uiso   1.00
N325   N     0.16667   0.38264   0.25000   0.00000  Uiso   1.00
N326   N     0.24077   0.50040   0.38345   0.00000  Uiso   1.00
N327   N     0.09227   0.49609   0.11663   0.00000  Uiso   1.00
N328   N     0.05152   0.50834   0.45252   0.00000  Uiso   1.00
N329   N     0.27968   0.48243   0.04810   0.00000  Uiso   1.00
N330   N     0.04042   0.43208   0.19956   0.00000  Uiso   1.00
N331   N     0.29293   0.56794   0.29965   0.00000  Uiso   1.00
N332   N     0.28888   0.43157   0.19856   0.00000  Uiso   1.00
O333   O     0.10655   0.53958   0.24999   0.00000  Uiso   1.00
O334   O     0.24132   0.50891   0.11852   0.00000  Uiso   1.00
O335   O     0.05584   0.51400   0.04431   0.00000  Uiso   1.00
O336   O     0.27726   0.48687   0.45637   0.00000  Uiso   1.00
O337   O     0.22679   0.46042   0.25001   0.00000  Uiso   1.00
O338   O     0.22679   0.53958   0.25001   0.00000  Uiso   1.00
O339   O     0.10655   0.46042   0.24999   0.00000  Uiso   1.00
O340   O     0.16666   0.53960   0.18513   0.00000  Uiso   1.00
O341   O     0.16668   0.46040   0.31487   0.00000  Uiso   1.00
O342   O     0.16668   0.53960   0.31487   0.00000  Uiso   1.00
O343   O     0.16666   0.46040   0.18513   0.00000  Uiso   1.00
O344   O     0.09161   0.49850   0.38032   0.00000  Uiso   1.00
C345   C     0.42083   0.49967   0.24988   0.00000  Uiso   1.00
C346   C     0.37623   0.49931   0.25025   0.00000  Uiso   1.00
C347   C     0.47749   0.35758   0.21869   0.00000  Uiso   1.00
C348   C     0.52253   0.64241   0.28129   0.00000  Uiso   1.00
C349   C     0.52286   0.35892   0.28097   0.00000  Uiso   1.00
C350   C     0.47715   0.64108   0.21902   0.00000  Uiso   1.00
C351   C     0.50020   0.50008   0.16471   0.00000  Uiso   1.00
C352   C     0.49986   0.49995   0.33528   0.00000  Uiso   1.00
C353   C     0.53657   0.49863   0.40722   0.00000  Uiso   1.00
C354   C     0.46302   0.50003   0.09284   0.00000  Uiso   1.00
C355   C     0.49918   0.49942   0.38338   0.00000  Uiso   1.00
C356   C     0.57921   0.50024   0.24988   0.00000  Uiso   1.00
C357   C     0.50052   0.50072   0.11657   0.00000  Uiso   1.00
C358   C     0.46157   0.49956   0.40480   0.00000  Uiso   1.00
C359   C     0.53794   0.50255   0.09484   0.00000  Uiso   1.00
C360   C     0.46137   0.50176   0.45180   0.00000  Uiso   1.00
C361   C     0.53790   0.49835   0.04808   0.00000  Uiso   1.00
C362   C     0.49944   0.49968   0.47644   0.00000  Uiso   1.00
C363   C     0.49989   0.50015   0.02348   0.00000  Uiso   1.00
C364   C     0.53711   0.49701   0.45403   0.00000  Uiso   1.00
C365   C     0.46233   0.50248   0.04603   0.00000  Uiso   1.00
C366   C     0.42422   0.50588   0.47501   0.00000  Uiso   1.00
C367   C     0.42494   0.50738   0.02165   0.00000  Uiso   1.00
C368   C     0.57487   0.49243   0.02522   0.00000  Uiso   1.00
C369   C     0.57453   0.49271   0.47862   0.00000  Uiso   1.00
C370   C     0.35345   0.46601   0.22528   0.00000  Uiso   1.00
C371   C     0.64678   0.53377   0.27440   0.00000  Uiso   1.00
C372   C     0.64410   0.46611   0.22499   0.00000  Uiso   1.00
C373   C     0.35637   0.53306   0.27510   0.00000  Uiso   1.00
C374   C     0.62391   0.50027   0.24950   0.00000  Uiso   1.00
Cu375  Cu    0.50000   0.54689   0.25000   0.00000  Uiso   1.00
Cu376  Cu    0.50000   0.45311   0.25000   0.00000  Uiso   1.00
H377   H     0.57469   0.53081   0.36448   0.00000  Uiso   1.00
H378   H     0.62464   0.51228   0.06422   0.00000  Uiso   1.00
H379   H     0.36706   0.52575   0.02441   0.00000  Uiso   1.00
H380   H     0.63472   0.49439   0.47590   0.00000  Uiso   1.00
H381   H     0.36377   0.43529   0.16641   0.00000  Uiso   1.00
H382   H     0.36470   0.39912   0.21074   0.00000  Uiso   1.00
H383   H     0.63526   0.56477   0.33307   0.00000  Uiso   1.00
H384   H     0.63527   0.60089   0.28848   0.00000  Uiso   1.00
H385   H     0.60032   0.44759   0.17803   0.00000  Uiso   1.00
H386   H     0.60801   0.40763   0.21946   0.00000  Uiso   1.00
H387   H     0.37328   0.59953   0.29150   0.00000  Uiso   1.00
H388   H     0.57495   0.47165   0.36225   0.00000  Uiso   1.00
H389   H     0.37236   0.56181   0.33506   0.00000  Uiso   1.00
H390   H     0.46802   0.37463   0.15437   0.00000  Uiso   1.00
H391   H     0.42499   0.36883   0.18340   0.00000  Uiso   1.00
H392   H     0.53211   0.62537   0.34561   0.00000  Uiso   1.00
H393   H     0.57509   0.63112   0.31648   0.00000  Uiso   1.00
H394   H     0.53967   0.37502   0.34458   0.00000  Uiso   1.00
H395   H     0.57848   0.37701   0.30818   0.00000  Uiso   1.00
H396   H     0.46039   0.62497   0.15539   0.00000  Uiso   1.00
H397   H     0.42156   0.62298   0.19176   0.00000  Uiso   1.00
H398   H     0.42619   0.46534   0.13509   0.00000  Uiso   1.00
H399   H     0.42383   0.52433   0.13834   0.00000  Uiso   1.00
H400   H     0.42855   0.48569   0.35030   0.00000  Uiso   1.00
H401   H     0.57017   0.52255   0.14805   0.00000  Uiso   1.00
H402   H     0.38382   0.53752   0.43184   0.00000  Uiso   1.00
H403   H     0.37819   0.47735   0.43539   0.00000  Uiso   1.00
H404   H     0.60905   0.45466   0.07006   0.00000  Uiso   1.00
N405   N     0.50000   0.61736   0.25000   0.00000  Uiso   1.00
N406   N     0.38009   0.56577   0.30187   0.00000  Uiso   1.00
N407   N     0.45501   0.38187   0.18479   0.00000  Uiso   1.00
N408   N     0.54506   0.61811   0.31516   0.00000  Uiso   1.00
N409   N     0.54774   0.38482   0.31258   0.00000  Uiso   1.00
N410   N     0.45230   0.61518   0.18738   0.00000  Uiso   1.00
N411   N     0.50000   0.38264   0.25000   0.00000  Uiso   1.00
N412   N     0.57410   0.50040   0.38345   0.00000  Uiso   1.00
N413   N     0.42561   0.49609   0.11663   0.00000  Uiso   1.00
N414   N     0.38485   0.50834   0.45252   0.00000  Uiso   1.00
N415   N     0.61301   0.48243   0.04810   0.00000  Uiso   1.00
N416   N     0.37376   0.43208   0.19956   0.00000  Uiso   1.00
N417   N     0.62626   0.56794   0.29965   0.00000  Uiso   1.00
N418   N     0.62221   0.43157   0.19856   0.00000  Uiso   1.00
O419   O     0.43988   0.53958   0.24999   0.00000  Uiso   1.00
O420   O     0.57465   0.50891   0.11852   0.00000  Uiso   1.00
O421   O     0.38918   0.51400   0.04431   0.00000  Uiso   1.00
O422   O     0.61059   0.48687   0.45637   0.00000  Uiso   1.00
O423   O     0.56012   0.46042   0.25001   0.00000  Uiso   1.00
O424   O     0.56012   0.53958   0.25001   0.00000  Uiso   1.00
O425   O     0.43988   0.46042   0.24999   0.00000  Uiso   1.00
O426   O     0.49999   0.53960   0.18513   0.00000  Uiso   1.00
O427   O     0.50001   0.46040   0.31487   0.00000  Uiso   1.00
O428   O     0.50001   0.53960   0.31487   0.00000  Uiso   1.00
O429   O     0.49999   0.46040   0.18513   0.00000  Uiso   1.00
O430   O     0.42495   0.49850   0.38032   0.00000  Uiso   1.00
C431   C     0.75417   0.49967   0.24988   0.00000  Uiso   1.00
C432   C     0.70956   0.49931   0.25025   0.00000  Uiso   1.00
C433   C     0.81082   0.35758   0.21869   0.00000  Uiso   1.00
C434   C     0.85587   0.64241   0.28129   0.00000  Uiso   1.00
C435   C     0.85620   0.35892   0.28097   0.00000  Uiso   1.00
C436   C     0.81049   0.64108   0.21902   0.00000  Uiso   1.00
C437   C     0.83354   0.50008   0.16471   0.00000  Uiso   1.00
C438   C     0.83319   0.49995   0.33528   0.00000  Uiso   1.00
C439   C     0.86991   0.49863   0.40722   0.00000  Uiso   1.00
C440   C     0.79635   0.50003   0.09284   0.00000  Uiso   1.00
C441   C     0.83252   0.49942   0.38338   0.00000  Uiso   1.00
C442   C     0.91254   0.50024   0.24988   0.00000  Uiso   1.00
C443   C     0.83385   0.50072   0.11657   0.00000  Uiso   1.00
C444   C     0.79490   0.49956   0.40480   0.00000  Uiso   1.00
C445   C     0.87127   0.50255   0.09484   0.00000  Uiso   1.00
C446   C     0.79470   0.50176   0.45180   0.00000  Uiso   1.00
C447   C     0.87124   0.49835   0.04808   0.00000  Uiso   1.00
C448   C     0.83277   0.49968   0.47644   0.00000  Uiso   1.00
C449   C     0.83322   0.50015   0.02348   0.00000  Uiso   1.00
C450   C     0.87044   0.49701   0.45403   0.00000  Uiso   1.00
C451   C     0.79566   0.50248   0.04603   0.00000  Uiso   1.00
C452   C     0.75755   0.50588   0.47501   0.00000  Uiso   1.00
C453   C     0.75827   0.50738   0.02165   0.00000  Uiso   1.00
C454   C     0.90820   0.49243   0.02522   0.00000  Uiso   1.00
C455   C     0.90787   0.49271   0.47862   0.00000  Uiso   1.00
C456   C     0.68678   0.46601   0.22528   0.00000  Uiso   1.00
C457   C     0.98011   0.53377   0.27440   0.00000  Uiso   1.00
C458   C     0.97743   0.46611   0.22499   0.00000  Uiso   1.00
C459   C     0.68971   0.53306   0.27510   0.00000  Uiso   1.00
C460   C     0.95724   0.50027   0.24950   0.00000  Uiso   1.00
Cu461  Cu    0.83333   0.54689   0.25000   0.00000  Uiso   1.00
Cu462  Cu    0.83333   0.45311   0.25000   0.00000  Uiso   1.00
H463   H     0.90802   0.53081   0.36448   0.00000  Uiso   1.00
H464   H     0.95797   0.51228   0.06422   0.00000  Uiso   1.00
H465   H     0.70039   0.52575   0.02441   0.00000  Uiso   1.00
H466   H     0.96806   0.49439   0.47590   0.00000  Uiso   1.00
H467   H     0.69710   0.43529   0.16641   0.00000  Uiso   1.00
H468   H     0.69803   0.39912   0.21074   0.00000  Uiso   1.00
H469   H     0.96859   0.56477   0.33307   0.00000  Uiso   1.00
H470   H     0.96861   0.60089   0.28848   0.00000  Uiso   1.00
H471   H     0.93365   0.44759   0.17803   0.00000  Uiso   1.00
H472   H     0.94135   0.40763   0.21946   0.00000  Uiso   1.00
H473   H     0.70661   0.59953   0.29150   0.00000  Uiso   1.00
H474   H     0.90828   0.47165   0.36225   0.00000  Uiso   1.00
H475   H     0.70569   0.56181   0.33506   0.00000  Uiso   1.00
H476   H     0.80135   0.37463   0.15437   0.00000  Uiso   1.00
H477   H     0.75832   0.36883   0.18340   0.00000  Uiso   1.00
H478   H     0.86544   0.62537   0.34561   0.00000  Uiso   1.00
H479   H     0.90842   0.63112   0.31648   0.00000  Uiso   1.00
H480   H     0.87301   0.37502   0.34458   0.00000  Uiso   1.00
H481   H     0.91181   0.37701   0.30818   0.00000  Uiso   1.00
H482   H     0.79372   0.62497   0.15539   0.00000  Uiso   1.00
H483   H     0.75489   0.62298   0.19176   0.00000  Uiso   1.00
H484   H     0.75952   0.46534   0.13509   0.00000  Uiso   1.00
H485   H     0.75717   0.52433   0.13834   0.00000  Uiso   1.00
H486   H     0.76188   0.48569   0.35030   0.00000  Uiso   1.00
H487   H     0.90350   0.52255   0.14805   0.00000  Uiso   1.00
H488   H     0.71716   0.53752   0.43184   0.00000  Uiso   1.00
H489   H     0.71153   0.47735   0.43539   0.00000  Uiso   1.00
H490   H     0.94238   0.45466   0.07006   0.00000  Uiso   1.00
N491   N     0.83333   0.61736   0.25000   0.00000  Uiso   1.00
N492   N     0.71342   0.56577   0.30187   0.00000  Uiso   1.00
N493   N     0.78834   0.38187   0.18479   0.00000  Uiso   1.00
N494   N     0.87839   0.61811   0.31516   0.00000  Uiso   1.00
N495   N     0.88108   0.38482   0.31258   0.00000  Uiso   1.00
N496   N     0.78563   0.61518   0.18738   0.00000  Uiso   1.00
N497   N     0.83333   0.38264   0.25000   0.00000  Uiso   1.00
N498   N     0.90743   0.50040   0.38345   0.00000  Uiso   1.00
N499   N     0.75894   0.49609   0.11663   0.00000  Uiso   1.00
N500   N     0.71818   0.50834   0.45252   0.00000  Uiso   1.00
N501   N     0.94635   0.48243   0.04810   0.00000  Uiso   1.00
N502   N     0.70709   0.43208   0.19956   0.00000  Uiso   1.00
N503   N     0.95960   0.56794   0.29965   0.00000  Uiso   1.00
N504   N     0.95554   0.43157   0.19856   0.00000  Uiso   1.00
O505   O     0.77321   0.53958   0.24999   0.00000  Uiso   1.00
O506   O     0.90799   0.50891   0.11852   0.00000  Uiso   1.00
O507   O     0.72251   0.51400   0.04431   0.00000  Uiso   1.00
O508   O     0.94393   0.48687   0.45637   0.00000  Uiso   1.00
O509   O     0.89345   0.46042   0.25001   0.00000  Uiso   1.00
O510   O     0.89345   0.53958   0.25001   0.00000  Uiso   1.00
O511   O     0.77321   0.46042   0.24999   0.00000  Uiso   1.00
O512   O     0.83332   0.53960   0.18513   0.00000  Uiso   1.00
O513   O     0.83334   0.46040   0.31487   0.00000  Uiso   1.00
O514   O     0.83334   0.53960   0.31487   0.00000  Uiso   1.00
O515   O     0.83332   0.46040   0.18513   0.00000  Uiso   1.00
O516   O     0.75828   0.49850   0.38032   0.00000  Uiso   1.00
C517   C     0.08750   0.83300   0.24988   0.00000  Uiso   1.00
C518   C     0.04289   0.83264   0.25025   0.00000  Uiso   1.00
C519   C     0.14415   0.69091   0.21869   0.00000  Uiso   1.00
C520   C     0.18920   0.97575   0.28129   0.00000  Uiso   1.00
C521   C     0.18953   0.69225   0.28097   0.00000  Uiso   1.00
C522   C     0.14382   0.97441   0.21902   0.00000  Uiso   1.00
C523   C     0.16687   0.83341   0.16471   0.00000  Uiso   1.00
C524   C     0.16653   0.83328   0.33528   0.00000  Uiso   1.00
C525   C     0.20324   0.83196   0.40722   0.00000  Uiso   1.00
C526   C     0.12969   0.83337   0.09284   0.00000  Uiso   1.00
C527   C     0.16585   0.83276   0.38338   0.00000  Uiso   1.00
C528   C     0.24588   0.83357   0.24988   0.00000  Uiso   1.00
C529   C     0.16719   0.83405   0.11657   0.00000  Uiso   1.00
C530   C     0.12824   0.83289   0.40480   0.00000  Uiso   1.00
C531   C     0.20461   0.83588   0.09484   0.00000  Uiso   1.00
C532   C     0.12804   0.83510   0.45180   0.00000  Uiso   1.00
C533   C     0.20457   0.83168   0.04808   0.00000  Uiso   1.00
C534   C     0.16611   0.83302   0.47644   0.00000  Uiso   1.00
C535   C     0.16655   0.83349   0.02348   0.00000  Uiso   1.00
C536   C     0.20378   0.83034   0.45403   0.00000  Uiso   1.00
C537   C     0.12900   0.83581   0.04603   0.00000  Uiso   1.00
C538   C     0.09089   0.83921   0.47501   0.00000  Uiso   1.00
C539   C     0.09161   0.84072   0.02165   0.00000  Uiso   1.00
C540   C     0.24153   0.82576   0.02522   0.00000  Uiso   1.00
C541   C     0.24120   0.82604   0.47862   0.00000  Uiso   1.00
C542   C     0.02011   0.79935   0.22528   0.00000  Uiso   1.00
C543   C     0.31344   0.86710   0.27440   0.00000  Uiso   1.00
C544   C     0.31077   0.79944   0.22499   0.00000  Uiso   1.00
C545   C     0.02304   0.86639   0.27510   0.00000  Uiso   1.00
C546   C     0.29057   0.83360   0.24950   0.00000  Uiso   1.00
Cu547  Cu    0.16667   0.88022   0.25000   0.00000  Uiso   1.00
Cu548  Cu    0.16667   0.78645   0.25000   0.00000  Uiso   1.00
H549   H     0.24136   0.86415   0.36448   0.00000  Uiso   1.00
H550   H     0.29130   0.84561   0.06422   0.00000  Uiso   1.00
H551   H     0.03373   0.85909   0.02441   0.00000  Uiso   1.00
H552   H     0.30139   0.82773   0.47590   0.00000  Uiso   1.00
H553   H     0.03043   0.76862   0.16641   0.00000  Uiso   1.00
H554   H     0.03137   0.73246   0.21074   0.00000  Uiso   1.00
H555   H     0.30193   0.89810   0.33307   0.00000  Uiso   1.00
H556   H     0.30194   0.93423   0.28848   0.00000  Uiso   1.00
H557   H     0.26698   0.78093   0.17803   0.00000  Uiso   1.00
H558   H     0.27468   0.74096   0.21946   0.00000  Uiso   1.00
H559   H     0.03994   0.93286   0.29150   0.00000  Uiso   1.00
H560   H     0.24161   0.80498   0.36225   0.00000  Uiso   1.00
H561   H     0.03902   0.89515   0.33506   0.00000  Uiso   1.00
H562   H     0.13468   0.70796   0.15437   0.00000  Uiso   1.00
H563   H     0.09166   0.70217   0.18340   0.00000  Uiso   1.00
H564   H     0.19877   0.95870   0.34561   0.00000  Uiso   1.00
H565   H     0.24175   0.96446   0.31648   0.00000  Uiso   1.00
H566   H     0.20634   0.70836   0.34458   0.00000  Uiso   1.00
H567   H     0.24515   0.71034   0.30818   0.00000  Uiso   1.00
H568   H     0.12705   0.95830   0.15539   0.00000  Uiso   1.00
H569   H     0.08822   0.95631   0.19176   0.00000  Uiso   1.00
H570   H     0.09286   0.79867   0.13509   0.00000  Uiso   1.00
H571   H     0.09050   0.85766   0.13834   0.00000  Uiso   1.00
H572   H     0.09522   0.81902   0.35030   0.00000  Uiso   1.00
H573   H     0.23684   0.85588   0.14805   0.00000  Uiso   1.00
H574   H     0.05049   0.87086   0.43184   0.00000  Uiso   1.00
H575   H     0.04486   0.81068   0.43539   0.00000  Uiso   1.00
H576   H     0.27572   0.78799   0.07006   0.00000  Uiso   1.00
N577   N     0.16667   0.95069   0.25000   0.00000  Uiso   1.00
N578   N     0.04675   0.89910   0.30187   0.00000  Uiso   1.00
N579   N     0.12167   0.71521   0.18479   0.00000  Uiso   1.00
N580   N     0.21173   0.95144   0.31516   0.00000  Uiso   1.00
N581   N     0.21441   0.71815   0.31258   0.00000  Uiso   1.00
N582   N     0.11897   0.94851   0.18738   0.00000  Uiso   1.00
N583   N     0.16667   0.71598   0.25000   0.00000  Uiso   1.00
N584   N     0.24077   0.83373   0.38345   0.00000  Uiso   1.00
N585   N     0.09227   0.82943   0.11663   0.00000  Uiso   1.00
N586   N     0.05152   0.84167   0.45252   0.00000  Uiso   1.00
N587   N     0.27968   0.81576   0.04810   0.00000  Uiso   1.00
N588   N     0.04042   0.76542   0.19956   0.00000  Uiso   1.00
N589   N     0.29293   0.90128   0.29965   0.00000  Uiso   1.00
N590   N     0.28888   0.76490   0.19856   0.00000  Uiso   1.00
O591   O     0.10655   0.87291   0.24999   0.00000  Uiso   1.00
O592   O     0.24132   0.84225   0.11852   0.00000  Uiso   1.00
O593   O     0.05584   0.84733   0.04431   0.00000  Uiso   1.00
O594   O     0.27726   0.82021   0.45637   0.00000  Uiso   1.00
O595   O     0.22679   0.79375   0.25001   0.00000  Uiso   1.00
O596   O     0.22679   0.87291   0.25001   0.00000  Uiso   1.00
O597   O     0.10655   0.79375   0.24999   0.00000  Uiso   1.00
O598   O     0.16666   0.87293   0.18513   0.00000  Uiso   1.00
O599   O     0.16668   0.79373   0.31487   0.00000  Uiso   1.00
O600   O     0.16668   0.87293   0.31487   0.00000  Uiso   1.00
O601   O     0.16666   0.79373   0.18513   0.00000  Uiso   1.00
O602   O     0.09161   0.83184   0.38032   0.00000  Uiso   1.00
C603   C     0.42083   0.83300   0.24988   0.00000  Uiso   1.00
C604   C     0.37623   0.83264   0.25025   0.00000  Uiso   1.00
C605   C     0.47749   0.69091   0.21869   0.00000  Uiso   1.00
C606   C     0.52253   0.97575   0.28129   0.00000  Uiso   1.00
C607   C     0.52286   0.69225   0.28097   0.00000  Uiso   1.00
C608   C     0.47715   0.97441   0.21902   0.00000  Uiso   1.00
C609   C     0.50020   0.83341   0.16471   0.00000  Uiso   1.00
C610   C     0.49986   0.83328   0.33528   0.00000  Uiso   1.00
C611   C     0.53657   0.83196   0.40722   0.00000  Uiso   1.00
C612   C     0.46302   0.83337   0.09284   0.00000  Uiso   1.00
C613   C     0.49918   0.83276   0.38338   0.00000  Uiso   1.00
C614   C     0.57921   0.83357   0.24988   0.00000  Uiso   1.00
C615   C     0.50052   0.83405   0.11657   0.00000  Uiso   1.00
C616   C     0.46157   0.83289   0.40480   0.00000  Uiso   1.00
C617   C     0.53794   0.83588   0.09484   0.00000  Uiso   1.00
C618   C     0.46137   0.83510   0.45180   0.00000  Uiso   1.00
C619   C     0.53790   0.83168   0.04808   0.00000  Uiso   1.00
C620   C     0.49944   0.83302   0.47644   0.00000  Uiso   1.00
C621   C     0.49989   0.83349   0.02348   0.00000  Uiso   1.00
C622   C     0.53711   0.83034   0.45403   0.00000  Uiso   1.00
C623   C     0.46233   0.83581   0.04603   0.00000  Uiso   1.00
C624   C     0.42422   0.83921   0.47501   0.00000  Uiso   1.00
C625   C     0.42494   0.84072   0.02165   0.00000  Uiso   1.00
C626   C     0.57487   0.82576   0.02522   0.00000  Uiso   1.00
C627   C     0.57453   0.82604   0.47862   0.00000  Uiso   1.00
C628   C     0.35345   0.79935   0.22528   0.00000  Uiso   1.00
C629   C     0.64678   0.86710   0.27440   0.00000  Uiso   1.00
C630   C     0.64410   0.79944   0.22499   0.00000  Uiso   1.00
C631   C     0.35637   0.86639   0.27510   0.00000  Uiso   1.00
C632   C     0.62391   0.83360   0.24950   0.00000  Uiso   1.00
Cu633  Cu    0.50000   0.88022   0.25000   0.00000  Uiso   1.00
Cu634  Cu    0.50000   0.78645   0.25000   0.00000  Uiso   1.00
H635   H     0.57469   0.86415   0.36448   0.00000  Uiso   1.00
H636   H     0.62464   0.84561   0.06422   0.00000  Uiso   1.00
H637   H     0.36706   0.85909   0.02441   0.00000  Uiso   1.00
H638   H     0.63472   0.82773   0.47590   0.00000  Uiso   1.00
H639   H     0.36377   0.76862   0.16641   0.00000  Uiso   1.00
H640   H     0.36470   0.73246   0.21074   0.00000  Uiso   1.00
H641   H     0.63526   0.89810   0.33307   0.00000  Uiso   1.00
H642   H     0.63527   0.93423   0.28848   0.00000  Uiso   1.00
H643   H     0.60032   0.78093   0.17803   0.00000  Uiso   1.00
H644   H     0.60801   0.74096   0.21946   0.00000  Uiso   1.00
H645   H     0.37328   0.93286   0.29150   0.00000  Uiso   1.00
H646   H     0.57495   0.80498   0.36225   0.00000  Uiso   1.00
H647   H     0.37236   0.89515   0.33506   0.00000  Uiso   1.00
H648   H     0.46802   0.70796   0.15437   0.00000  Uiso   1.00
H649   H     0.42499   0.70217   0.18340   0.00000  Uiso   1.00
H650   H     0.53211   0.95870   0.34561   0.00000  Uiso   1.00
H651   H     0.57509   0.96446   0.31648   0.00000  Uiso   1.00
H652   H     0.53967   0.70836   0.34458   0.00000  Uiso   1.00
H653   H     0.57848   0.71034   0.30818   0.00000  Uiso   1.00
H654   H     0.46039   0.95830   0.15539   0.00000  Uiso   1.00
H655   H     0.42156   0.95631   0.19176   0.00000  Uiso   1.00
H656   H     0.42619   0.79867   0.13509   0.00000  Uiso   1.00
H657   H     0.42383   0.85766   0.13834   0.00000  Uiso   1.00
H658   H     0.42855   0.81902   0.35030   0.00000  Uiso   1.00
H659   H     0.57017   0.85588   0.14805   0.00000  Uiso   1.00
H660   H     0.38382   0.87086   0.43184   0.00000  Uiso   1.00
H661   H     0.37819   0.81068   0.43539   0.00000  Uiso   1.00
H662   H     0.60905   0.78799   0.07006   0.00000  Uiso   1.00
N663   N     0.50000   0.95069   0.25000   0.00000  Uiso   1.00
N664   N     0.38009   0.89910   0.30187   0.00000  Uiso   1.00
N665   N     0.45501   0.71521   0.18479   0.00000  Uiso   1.00
N666   N     0.54506   0.95144   0.31516   0.00000  Uiso   1.00
N667   N     0.54774   0.71815   0.31258   0.00000  Uiso   1.00
N668   N     0.45230   0.94851   0.18738   0.00000  Uiso   1.00
N669   N     0.50000   0.71598   0.25000   0.00000  Uiso   1.00
N670   N     0.57410   0.83373   0.38345   0.00000  Uiso   1.00
N671   N     0.42561   0.82943   0.11663   0.00000  Uiso   1.00
N672   N     0.38485   0.84167   0.45252   0.00000  Uiso   1.00
N673   N     0.61301   0.81576   0.04810   0.00000  Uiso   1.00
N674   N     0.37376   0.76542   0.19956   0.00000  Uiso   1.00
N675   N     0.62626   0.90128   0.29965   0.00000  Uiso   1.00
N676   N     0.62221   0.76490   0.19856   0.00000  Uiso   1.00
O677   O     0.43988   0.87291   0.24999   0.00000  Uiso   1.00
O678   O     0.57465   0.84225   0.11852   0.00000  Uiso   1.00
O679   O     0.38918   0.84733   0.04431   0.00000  Uiso   1.00
O680   O     0.61059   0.82021   0.45637   0.00000  Uiso   1.00
O681   O     0.56012   0.79375   0.25001   0.00000  Uiso   1.00
O682   O     0.56012   0.87291   0.25001   0.00000  Uiso   1.00
O683   O     0.43988   0.79375   0.24999   0.00000  Uiso   1.00
O684   O     0.49999   0.87293   0.18513   0.00000  Uiso   1.00
O685   O     0.50001   0.79373   0.31487   0.00000  Uiso   1.00
O686   O     0.50001   0.87293   0.31487   0.00000  Uiso   1.00
O687   O     0.49999   0.79373   0.18513   0.00000  Uiso   1.00
O688   O     0.42495   0.83184   0.38032   0.00000  Uiso   1.00
C689   C     0.75417   0.83300   0.24988   0.00000  Uiso   1.00
C690   C     0.70956   0.83264   0.25025   0.00000  Uiso   1.00
C691   C     0.81082   0.69091   0.21869   0.00000  Uiso   1.00
C692   C     0.85587   0.97575   0.28129   0.00000  Uiso   1.00
C693   C     0.85620   0.69225   0.28097   0.00000  Uiso   1.00
C694   C     0.81049   0.97441   0.21902   0.00000  Uiso   1.00
C695   C     0.83354   0.83341   0.16471   0.00000  Uiso   1.00
C696   C     0.83319   0.83328   0.33528   0.00000  Uiso   1.00
C697   C     0.86991   0.83196   0.40722   0.00000  Uiso   1.00
C698   C     0.79635   0.83337   0.09284   0.00000  Uiso   1.00
C699   C     0.83252   0.83276   0.38338   0.00000  Uiso   1.00
C700   C     0.91254   0.83357   0.24988   0.00000  Uiso   1.00
C701   C     0.83385   0.83405   0.11657   0.00000  Uiso   1.00
C702   C     0.79490   0.83289   0.40480   0.00000  Uiso   1.00
C703   C     0.87127   0.83588   0.09484   0.00000  Uiso   1.00
C704   C     0.79470   0.83510   0.45180   0.00000  Uiso   1.00
C705   C     0.87124   0.83168   0.04808   0.00000  Uiso   1.00
C706   C     0.83277   0.83302   0.47644   0.00000  Uiso   1.00
C707   C     0.83322   0.83349   0.02348   0.00000  Uiso   1.00
C708   C     0.87044   0.83034   0.45403   0.00000  Uiso   1.00
C709   C     0.79566   0.83581   0.04603   0.00000  Uiso   1.00
C710   C     0.75755   0.83921   0.47501   0.00000  Uiso   1.00
C711   C     0.75827   0.84072   0.02165   0.00000  Uiso   1.00
C712   C     0.90820   0.82576   0.02522   0.00000  Uiso   1.00
C713   C     0.90787   0.82604   0.47862   0.00000  Uiso   1.00
C714   C     0.68678   0.79935   0.22528   0.00000  Uiso   1.00
C715   C     0.98011   0.86710   0.27440   0.00000  Uiso   1.00
C716   C     0.97743   0.79944   0.22499   0.00000  Uiso   1.00
C717   C     0.68971   0.86639   0.27510   0.00000  Uiso   1.00
C718   C     0.95724   0.83360   0.24950   0.00000  Uiso   1.00
Cu719  Cu    0.83333   0.88022   0.25000   0.00000  Uiso   1.00
Cu720  Cu    0.83333   0.78645   0.25000   0.00000  Uiso   1.00
H721   H     0.90802   0.86415   0.36448   0.00000  Uiso   1.00
H722   H     0.95797   0.84561   0.06422   0.00000  Uiso   1.00
H723   H     0.70039   0.85909   0.02441   0.00000  Uiso   1.00
H724   H     0.96806   0.82773   0.47590   0.00000  Uiso   1.00
H725   H     0.69710   0.76862   0.16641   0.00000  Uiso   1.00
H726   H     0.69803   0.73246   0.21074   0.00000  Uiso   1.00
H727   H     0.96859   0.89810   0.33307   0.00000  Uiso   1.00
H728   H     0.96861   0.93423   0.28848   0.00000  Uiso   1.00
H729   H     0.93365   0.78093   0.17803   0.00000  Uiso   1.00
H730   H     0.94135   0.74096   0.21946   0.00000  Uiso   1.00
H731   H     0.70661   0.93286   0.29150   0.00000  Uiso   1.00
H732   H     0.90828   0.80498   0.36225   0.00000  Uiso   1.00
H733   H     0.70569   0.89515   0.33506   0.00000  Uiso   1.00
H734   H     0.80135   0.70796   0.15437   0.00000  Uiso   1.00
H735   H     0.75832   0.70217   0.18340   0.00000  Uiso   1.00
H736   H     0.86544   0.95870   0.34561   0.00000  Uiso   1.00
H737   H     0.90842   0.96446   0.31648   0.00000  Uiso   1.00
H738   H     0.87301   0.70836   0.34458   0.00000  Uiso   1.00
H739   H     0.91181   0.71034   0.30818   0.00000  Uiso   1.00
H740   H     0.79372   0.95830   0.15539   0.00000  Uiso   1.00
H741   H     0.75489   0.95631   0.19176   0.00000  Uiso   1.00
H742   H     0.75952   0.79867   0.13509   0.00000  Uiso   1.00
H743   H     0.75717   0.85766   0.13834   0.00000  Uiso   1.00
H744   H     0.76188   0.81902   0.35030   0.00000  Uiso   1.00
H745   H     0.90350   0.85588   0.14805   0.00000  Uiso   1.00
H746   H     0.71716   0.87086   0.43184   0.00000  Uiso   1.00
H747   H     0.71153   0.81068   0.43539   0.00000  Uiso   1.00
H748   H     0.94238   0.78799   0.07006   0.00000  Uiso   1.00
N749   N     0.83333   0.95069   0.25000   0.00000  Uiso   1.00
N750   N     0.71342   0.89910   0.30187   0.00000  Uiso   1.00
N751   N     0.78834   0.71521   0.18479   0.00000  Uiso   1.00
N752   N     0.87839   0.95144   0.31516   0.00000  Uiso   1.00
N753   N     0.88108   0.71815   0.31258   0.00000  Uiso   1.00
N754   N     0.78563   0.94851   0.18738   0.00000  Uiso   1.00
N755   N     0.83333   0.71598   0.25000   0.00000  Uiso   1.00
N756   N     0.90743   0.83373   0.38345   0.00000  Uiso   1.00
N757   N     0.75894   0.82943   0.11663   0.00000  Uiso   1.00
N758   N     0.71818   0.84167   0.45252   0.00000  Uiso   1.00
N759   N     0.94635   0.81576   0.04810   0.00000  Uiso   1.00
N760   N     0.70709   0.76542   0.19956   0.00000  Uiso   1.00
N761   N     0.95960   0.90128   0.29965   0.00000  Uiso   1.00
N762   N     0.95554   0.76490   0.19856   0.00000  Uiso   1.00
O763   O     0.77321   0.87291   0.24999   0.00000  Uiso   1.00
O764   O     0.90799   0.84225   0.11852   0.00000  Uiso   1.00
O765   O     0.72251   0.84733   0.04431   0.00000  Uiso   1.00
O766   O     0.94393   0.82021   0.45637   0.00000  Uiso   1.00
O767   O     0.89345   0.79375   0.25001   0.00000  Uiso   1.00
O768   O     0.89345   0.87291   0.25001   0.00000  Uiso   1.00
O769   O     0.77321   0.79375   0.24999   0.00000  Uiso   1.00
O770   O     0.83332   0.87293   0.18513   0.00000  Uiso   1.00
O771   O     0.83334   0.79373   0.31487   0.00000  Uiso   1.00
O772   O     0.83334   0.87293   0.31487   0.00000  Uiso   1.00
O773   O     0.83332   0.79373   0.18513   0.00000  Uiso   1.00
O774   O     0.75828   0.83184   0.38032   0.00000  Uiso   1.00
C775   C     0.08750   0.16634   0.74988   0.00000  Uiso   1.00
C776   C     0.04289   0.16597   0.75025   0.00000  Uiso   1.00
C777   C     0.14415   0.02425   0.71869   0.00000  Uiso   1.00
C778   C     0.18920   0.30908   0.78129   0.00000  Uiso   1.00
C779   C     0.18953   0.02559   0.78097   0.00000  Uiso   1.00
C780   C     0.14382   0.30774   0.71902   0.00000  Uiso   1.00
C781   C     0.16687   0.16675   0.66471   0.00000  Uiso   1.00
C782   C     0.16653   0.16661   0.83528   0.00000  Uiso   1.00
C783   C     0.20324   0.16530   0.90722   0.00000  Uiso   1.00
C784   C     0.12969   0.16670   0.59284   0.00000  Uiso   1.00
C785   C     0.16585   0.16609   0.88338   0.00000  Uiso   1.00
C786   C     0.24588   0.16691   0.74988   0.00000  Uiso   1.00
C787   C     0.16719   0.16739   0.61657   0.00000  Uiso   1.00
C788   C     0.12824   0.16622   0.90480   0.00000  Uiso   1.00
C789   C     0.20461   0.16921   0.59484   0.00000  Uiso   1.00
C790   C     0.12804   0.16843   0.95180   0.00000  Uiso   1.00
C791   C     0.20457   0.16502   0.54808   0.00000  Uiso   1.00
C792   C     0.16611   0.16635   0.97644   0.00000  Uiso   1.00
C793   C     0.16655   0.16682   0.52348   0.00000  Uiso   1.00
C794   C     0.20378   0.16367   0.95403   0.00000  Uiso   1.00
C795   C     0.12900   0.16914   0.54603   0.00000  Uiso   1.00
C796   C     0.09089   0.17255   0.97501   0.00000  Uiso   1.00
C797   C     0.09161   0.17405   0.52165   0.00000  Uiso   1.00
C798   C     0.24153   0.15909   0.52522   0.00000  Uiso   1.00
C799   C     0.24120   0.15937   0.97862   0.00000  Uiso   1.00
C800   C     0.02011   0.13268   0.72528   0.00000  Uiso   1.00
C801   C     0.31344   0.20043   0.77440   0.00000  Uiso   1.00
C802   C     0.31077   0.13277   0.72499   0.00000  Uiso   1.00
C803   C     0.02304   0.19972   0.77510   0.00000  Uiso   1.00
C804   C     0.29057   0.16694   0.74950   0.00000  Uiso   1.00
Cu805  Cu    0.16667   0.21355   0.75000   0.00000  Uiso   1.00
Cu806  Cu    0.16667   0.11978   0.75000   0.00000  Uiso   1.00
H807   H     0.24136   0.19748   0.86448   0.00000  Uiso   1.00
H808   H     0.29130   0.17895   0.56422   0.00000  Uiso   1.00
H809   H     0.03373   0.19242   0.52441   0.00000  Uiso   1.00
H810   H     0.30139   0.16106   0.97590   0.00000  Uiso   1.00
H811   H     0.03043   0.10195   0.66641   0.00000  Uiso   1.00
H812   H     0.03137   0.06579   0.71074   0.00000  Uiso   1.00
H813   H     0.30193   0.23143   0.83307   0.00000  Uiso   1.00
H814   H     0.30194   0.26756   0.78848   0.00000  Uiso   1.00
H815   H     0.26698   0.11426   0.67803   0.00000  Uiso   1.00
H816   H     0.27468   0.07429   0.71946   0.00000  Uiso   1.00
H817   H     0.03994   0.26619   0.79150   0.00000  Uiso   1.00
H818   H     0.24161   0.13831   0.86225   0.00000  Uiso   1.00
H819   H     0.03902   0.22848   0.83506   0.00000  Uiso   1.00
H820   H     0.13468   0.04129   0.65437   0.00000  Uiso   1.00
H821   H     0.09166   0.03550   0.68340   0.00000  Uiso   1.00
H822   H     0.19877   0.29204   0.84561   0.00000  Uiso   1.00
H823   H     0.24175   0.29779   0.81648   0.00000  Uiso   1.00
H824   H     0.20634   0.04169   0.84458   0.00000  Uiso   1.00
H825   H     0.24515   0.04368   0.80818   0.00000  Uiso   1.00
H826   H     0.12705   0.29164   0.65539   0.00000  Uiso   1.00
H827   H     0.08822   0.28964   0.69176   0.00000  Uiso   1.00
H828   H     0.09286   0.13200   0.63509   0.00000  Uiso   1.00
H829   H     0.09050   0.19099   0.63834   0.00000  Uiso   1.00
H830   H     0.09522   0.15236   0.85030   0.00000  Uiso   1.00
H831   H     0.23684   0.18921   0.64805   0.00000  Uiso   1.00
H832   H     0.05049   0.20419   0.93184   0.00000  Uiso   1.00
H833   H     0.04486   0.14401   0.93539   0.00000  Uiso   1.00
H834   H     0.27572   0.12132   0.57006   0.00000  Uiso   1.00
N835   N     0.16667   0.28402   0.75000   0.00000  Uiso   1.00
N836   N     0.04675   0.23244   0.80187   0.00000  Uiso   1.00
N837   N     0.12167   0.04854   0.68479   0.00000  Uiso   1.00
N838   N     0.21173   0.28478   0.81516   0.00000  Uiso   1.00
N839   N     0.21441   0.05148   0.81258   0.00000  Uiso   1.00
N840   N     0.11897   0.28184   0.68738   0.00000  Uiso   1.00
N841   N     0.16667   0.04931   0.75000   0.00000  Uiso   1.00
N842   N     0.24077   0.16706   0.88345   0.00000  Uiso   1.00
N843   N     0.09227   0.16276   0.61663   0.00000  Uiso   1.00
N844   N     0.05152   0.17501   0.95252   0.00000  Uiso   1.00
N845   N     0.27968   0.14910   0.54810   0.00000  Uiso   1.00
N846   N     0.04042   0.09875   0.69956   0.00000  Uiso   1.00
N847   N     0.29293   0.23461   0.79965   0.00000  Uiso   1.00
N848   N     0.28888   0.09824   0.69856   0.00000  Uiso   1.00
O849   O     0.10655   0.20625   0.74999   0.00000  Uiso   1.00
O850   O     0.24132   0.17558   0.61852   0.00000  Uiso   1.00
O851   O     0.05584   0.18067   0.54431   0.00000  Uiso   1.00
O852   O     0.27726   0.15354   0.95637   0.00000  Uiso   1.00
O853   O     0.22679   0.12709   0.75001   0.00000  Uiso   1.00
O854   O     0.22679   0.20625   0.75001   0.00000  Uiso   1.00
O855   O     0.10655   0.12709   0.74999   0.00000  Uiso   1.00
O856   O     0.16666   0.20627   0.68513   0.00000  Uiso   1.00
O857   O     0.16668   0.12707   0.81487   0.00000  Uiso   1.00
O858   O     0.16668   0.20627   0.81487   0.00000  Uiso   1.00
O859   O     0.16666   0.12707   0.68513   0.00000  Uiso   1.00
O860   O     0.09161   0.16517   0.88032   0.00000  Uiso   1.00
C861   C     0.42083   0.16634   0.74988   0.00000  Uiso   1.00
C862   C     0.37623   0.16597   0.75025   0.00000  Uiso   1.00
C863   C     0.47749   0.02425   0.71869   0.00000  Uiso   1.00
C864   C     0.52253   0.30908   0.78129   0.00000  Uiso   1.00
C865   C     0.52286   0.02559   0.78097   0.00000  Uiso   1.00
C866   C     0.47715   0.30774   0.71902   0.00000  Uiso   1.00
C867   C     0.50020   0.16675   0.66471   0.00000  Uiso   1.00
C868   C     0.49986   0.16661   0.83528   0.00000  Uiso   1.00
C869   C     0.53657   0.16530   0.90722   0.00000  Uiso   1.00
C870   C     0.46302   0.16670   0.59284   0.00000  Uiso   1.00
C871   C     0.49918   0.16609   0.88338   0.00000  Uiso   1.00
C872   C     0.57921   0.16691   0.74988   0.00000  Uiso   1.00
C873   C     0.50052   0.16739   0.61657   0.00000  Uiso   1.00
C874   C     0.46157   0.16622   0.90480   0.00000  Uiso   1.00
C875   C     0.53794   0.16921   0.59484   0.00000  Uiso   1.00
C876   C     0.46137   0.16843   0.95180   0.00000  Uiso   1.00
C877   C     0.53790   0.16502   0.54808   0.00000  Uiso   1.00
C878   C     0.49944   0.16635   0.97644   0.00000  Uiso   1.00
C879   C     0.49989   0.16682   0.52348   0.00000  Uiso   1.00
C880   C     0.53711   0.16367   0.95403   0.00000  Uiso   1.00
C881   C     0.46233   0.16914   0.54603   0.00000  Uiso   1.00
C882   C     0.42422   0.17255   0.97501   0.00000  Uiso   1.00
C883   C     0.42494   0.17405   0.52165   0.00000  Uiso   1.00
C884   C     0.57487   0.15909   0.52522   0.00000  Uiso   1.00
C885   C     0.57453   0.15937   0.97862   0.00000  Uiso   1.00
C886   C     0.35345   0.13268   0.72528   0.00000  Uiso   1.00
C887   C     0.64678   0.20043   0.77440   0.00000  Uiso   1.00
C888   C     0.64410   0.13277   0.72499   0.00000  Uiso   1.00
C889   C     0.35637   0.19972   0.77510   0.00000  Uiso   1.00
C890   C     0.62391   0.16694   0.74950   0.00000  Uiso   1.00
Cu891  Cu    0.50000   0.21355   0.75000   0.00000  Uiso   1.00
Cu892  Cu    0.50000   0.11978   0.75000   0.00000  Uiso   1.00
H893   H     0.57469   0.19748   0.86448   0.00000  Uiso   1.00
H894   H     0.62464   0.17895   0.56422   0.00000  Uiso   1.00
H895   H     0.36706   0.19242   0.52441   0.00000  Uiso   1.00
H896   H     0.63472   0.16106   0.97590   0.00000  Uiso   1.00
H897   H     0.36377   0.10195   0.66641   0.00000  Uiso   1.00
H898   H     0.36470   0.06579   0.71074   0.00000  Uiso   1.00
H899   H     0.63526   0.23143   0.83307   0.00000  Uiso   1.00
H900   H     0.63527   0.26756   0.78848   0.00000  Uiso   1.00
H901   H     0.60032   0.11426   0.67803   0.00000  Uiso   1.00
H902   H     0.60801   0.07429   0.71946   0.00000  Uiso   1.00
H903   H     0.37328   0.26619   0.79150   0.00000  Uiso   1.00
H904   H     0.57495   0.13831   0.86225   0.00000  Uiso   1.00
H905   H     0.37236   0.22848   0.83506   0.00000  Uiso   1.00
H906   H     0.46802   0.04129   0.65437   0.00000  Uiso   1.00
H907   H     0.42499   0.03550   0.68340   0.00000  Uiso   1.00
H908   H     0.53211   0.29204   0.84561   0.00000  Uiso   1.00
H909   H     0.57509   0.29779   0.81648   0.00000  Uiso   1.00
H910   H     0.53967   0.04169   0.84458   0.00000  Uiso   1.00
H911   H     0.57848   0.04368   0.80818   0.00000  Uiso   1.00
H912   H     0.46039   0.29164   0.65539   0.00000  Uiso   1.00
H913   H     0.42156   0.28964   0.69176   0.00000  Uiso   1.00
H914   H     0.42619   0.13200   0.63509   0.00000  Uiso   1.00
H915   H     0.42383   0.19099   0.63834   0.00000  Uiso   1.00
H916   H     0.42855   0.15236   0.85030   0.00000  Uiso   1.00
H917   H     0.57017   0.18921   0.64805   0.00000  Uiso   1.00
H918   H     0.38382   0.20419   0.93184   0.00000  Uiso   1.00
H919   H     0.37819   0.14401   0.93539   0.00000  Uiso   1.00
H920   H     0.60905   0.12132   0.57006   0.00000  Uiso   1.00
N921   N     0.50000   0.28402   0.75000   0.00000  Uiso   1.00
N922   N     0.38009   0.23244   0.80187   0.00000  Uiso   1.00
N923   N     0.45501   0.04854   0.68479   0.00000  Uiso   1.00
N924   N     0.54506   0.28478   0.81516   0.00000  Uiso   1.00
N925   N     0.54774   0.05148   0.81258   0.00000  Uiso   1.00
N926   N     0.45230   0.28184   0.68738   0.00000  Uiso   1.00
N927   N     0.50000   0.04931   0.75000   0.00000  Uiso   1.00
N928   N     0.57410   0.16706   0.88345   0.00000  Uiso   1.00
N929   N     0.42561   0.16276   0.61663   0.00000  Uiso   1.00
N930   N     0.38485   0.17501   0.95252   0.00000  Uiso   1.00
N931   N     0.61301   0.14910   0.54810   0.00000  Uiso   1.00
N932   N     0.37376   0.09875   0.69956   0.00000  Uiso   1.00
N933   N     0.62626   0.23461   0.79965   0.00000  Uiso   1.00
N934   N     0.62221   0.09824   0.69856   0.00000  Uiso   1.00
O935   O     0.43988   0.20625   0.74999   0.00000  Uiso   1.00
O936   O     0.57465   0.17558   0.61852   0.00000  Uiso   1.00
O937   O     0.38918   0.18067   0.54431   0.00000  Uiso   1.00
O938   O     0.61059   0.15354   0.95637   0.00000  Uiso   1.00
O939   O     0.56012   0.12709   0.75001   0.00000  Uiso   1.00
O940   O     0.56012   0.20625   0.75001   0.00000  Uiso   1.00
O941   O     0.43988   0.12709   0.74999   0.00000  Uiso   1.00
O942   O     0.49999   0.20627   0.68513   0.00000  Uiso   1.00
O943   O     0.50001   0.12707   0.81487   0.00000  Uiso   1.00
O944   O     0.50001   0.20627   0.81487   0.00000  Uiso   1.00
O945   O     0.49999   0.12707   0.68513   0.00000  Uiso   1.00
O946   O     0.42495   0.16517   0.88032   0.00000  Uiso   1.00
C947   C     0.75417   0.16634   0.74988   0.00000  Uiso   1.00
C948   C     0.70956   0.16597   0.75025   0.00000  Uiso   1.00
C949   C     0.81082   0.02425   0.71869   0.00000  Uiso   1.00
C950   C     0.85587   0.30908   0.78129   0.00000  Uiso   1.00
C951   C     0.85620   0.02559   0.78097   0.00000  Uiso   1.00
C952   C     0.81049   0.30774   0.71902   0.00000  Uiso   1.00
C953   C     0.83354   0.16675   0.66471   0.00000  Uiso   1.00
C954   C     0.83319   0.16661   0.83528   0.00000  Uiso   1.00
C955   C     0.86991   0.16530   0.90722   0.00000  Uiso   1.00
C956   C     0.79635   0.16670   0.59284   0.00000  Uiso   1.00
C957   C     0.83252   0.16609   0.88338   0.00000  Uiso   1.00
C958   C     0.91254   0.16691   0.74988   0.00000  Uiso   1.00
C959   C     0.83385   0.16739   0.61657   0.00000  Uiso   1.00
C960   C     0.79490   0.16622   0.90480   0.00000  Uiso   1.00
C961   C     0.87127   0.16921   0.59484   0.00000  Uiso   1.00
C962   C     0.79470   0.16843   0.95180   0.00000  Uiso   1.00
C963   C     0.87124   0.16502   0.54808   0.00000  Uiso   1.00
C964   C     0.83277   0.16635   0.97644   0.00000  Uiso   1.00
C965   C     0.83322   0.16682   0.52348   0.00000  Uiso   1.00
C966   C     0.87044   0.16367   0.95403   0.00000  Uiso   1.00
C967   C     0.79566   0.16914   0.54603   0.00000  Uiso   1.00
C968   C     0.75755   0.17255   0.97501   0.00000  Uiso   1.00
C969   C     0.75827   0.17405   0.52165   0.00000  Uiso   1.00
C970   C     0.90820   0.15909   0.52522   0.00000  Uiso   1.00
C971   C     0.90787   0.15937   0.97862   0.00000  Uiso   1.00
C972   C     0.68678   0.13268   0.72528   0.00000  Uiso   1.00
C973   C     0.98011   0.20043   0.77440   0.00000  Uiso   1.00
C974   C     0.97743   0.13277   0.72499   0.00000  Uiso   1.00
C975   C     0.68971   0.19972   0.77510   0.00000  Uiso   1.00
C976   C     0.95724   0.16694   0.74950   0.00000  Uiso   1.00
Cu977  Cu    0.83333   0.21355   0.75000   0.00000  Uiso   1.00
Cu978  Cu    0.83333   0.11978   0.75000   0.00000  Uiso   1.00
H979   H     0.90802   0.19748   0.86448   0.00000  Uiso   1.00
H980   H     0.95797   0.17895   0.56422   0.00000  Uiso   1.00
H981   H     0.70039   0.19242   0.52441   0.00000  Uiso   1.00
H982   H     0.96806   0.16106   0.97590   0.00000  Uiso   1.00
H983   H     0.69710   0.10195   0.66641   0.00000  Uiso   1.00
H984   H     0.69803   0.06579   0.71074   0.00000  Uiso   1.00
H985   H     0.96859   0.23143   0.83307   0.00000  Uiso   1.00
H986   H     0.96861   0.26756   0.78848   0.00000  Uiso   1.00
H987   H     0.93365   0.11426   0.67803   0.00000  Uiso   1.00
H988   H     0.94135   0.07429   0.71946   0.00000  Uiso   1.00
H989   H     0.70661   0.26619   0.79150   0.00000  Uiso   1.00
H990   H     0.90828   0.13831   0.86225   0.00000  Uiso   1.00
H991   H     0.70569   0.22848   0.83506   0.00000  Uiso   1.00
H992   H     0.80135   0.04129   0.65437   0.00000  Uiso   1.00
H993   H     0.75832   0.03550   0.68340   0.00000  Uiso   1.00
H994   H     0.86544   0.29204   0.84561   0.00000  Uiso   1.00
H995   H     0.90842   0.29779   0.81648   0.00000  Uiso   1.00
H996   H     0.87301   0.04169   0.84458   0.00000  Uiso   1.00
H997   H     0.91181   0.04368   0.80818   0.00000  Uiso   1.00
H998   H     0.79372   0.29164   0.65539   0.00000  Uiso   1.00
H999   H     0.75489   0.28964   0.69176   0.00000  Uiso   1.00
H1000  H     0.75952   0.13200   0.63509   0.00000  Uiso   1.00
H1001  H     0.75717   0.19099   0.63834   0.00000  Uiso   1.00
H1002  H     0.76188   0.15236   0.85030   0.00000  Uiso   1.00
H1003  H     0.90350   0.18921   0.64805   0.00000  Uiso   1.00
H1004  H     0.71716   0.20419   0.93184   0.00000  Uiso   1.00
H1005  H     0.71153   0.14401   0.93539   0.00000  Uiso   1.00
H1006  H     0.94238   0.12132   0.57006   0.00000  Uiso   1.00
N1007  N     0.83333   0.28402   0.75000   0.00000  Uiso   1.00
N1008  N     0.71342   0.23244   0.80187   0.00000  Uiso   1.00
N1009  N     0.78834   0.04854   0.68479   0.00000  Uiso   1.00
N1010  N     0.87839   0.28478   0.81516   0.00000  Uiso   1.00
N1011  N     0.88108   0.05148   0.81258   0.00000  Uiso   1.00
N1012  N     0.78563   0.28184   0.68738   0.00000  Uiso   1.00
N1013  N     0.83333   0.04931   0.75000   0.00000  Uiso   1.00
N1014  N     0.90743   0.16706   0.88345   0.00000  Uiso   1.00
N1015  N     0.75894   0.16276   0.61663   0.00000  Uiso   1.00
N1016  N     0.71818   0.17501   0.95252   0.00000  Uiso   1.00
N1017  N     0.94635   0.14910   0.54810   0.00000  Uiso   1.00
N1018  N     0.70709   0.09875   0.69956   0.00000  Uiso   1.00
N1019  N     0.95960   0.23461   0.79965   0.00000  Uiso   1.00
N1020  N     0.95554   0.09824   0.69856   0.00000  Uiso   1.00
O1021  O     0.77321   0.20625   0.74999   0.00000  Uiso   1.00
O1022  O     0.90799   0.17558   0.61852   0.00000  Uiso   1.00
O1023  O     0.72251   0.18067   0.54431   0.00000  Uiso   1.00
O1024  O     0.94393   0.15354   0.95637   0.00000  Uiso   1.00
O1025  O     0.89345   0.12709   0.75001   0.00000  Uiso   1.00
O1026  O     0.89345   0.20625   0.75001   0.00000  Uiso   1.00
O1027  O     0.77321   0.12709   0.74999   0.00000  Uiso   1.00
O1028  O     0.83332   0.20627   0.68513   0.00000  Uiso   1.00
O1029  O     0.83334   0.12707   0.81487   0.00000  Uiso   1.00
O1030  O     0.83334   0.20627   0.81487   0.00000  Uiso   1.00
O1031  O     0.83332   0.12707   0.68513   0.00000  Uiso   1.00
O1032  O     0.75828   0.16517   0.88032   0.00000  Uiso   1.00
C1033  C     0.08750   0.49967   0.74988   0.00000  Uiso   1.00
C1034  C     0.04289   0.49931   0.75025   0.00000  Uiso   1.00
C1035  C     0.14415   0.35758   0.71869   0.00000  Uiso   1.00
C1036  C     0.18920   0.64241   0.78129   0.00000  Uiso   1.00
C1037  C     0.18953   0.35892   0.78097   0.00000  Uiso   1.00
C1038  C     0.14382   0.64108   0.71902   0.00000  Uiso   1.00
C1039  C     0.16687   0.50008   0.66471   0.00000  Uiso   1.00
C1040  C     0.16653   0.49995   0.83528   0.00000  Uiso   1.00
C1041  C     0.20324   0.49863   0.90722   0.00000  Uiso   1.00
C1042  C     0.12969   0.50003   0.59284   0.00000  Uiso   1.00
C1043  C     0.16585   0.49942   0.88338   0.00000  Uiso   1.00
C1044  C     0.24588   0.50024   0.74988   0.00000  Uiso   1.00
C1045  C     0.16719   0.50072   0.61657   0.00000  Uiso   1.00
C1046  C     0.12824   0.49956   0.90480   0.00000  Uiso   1.00
C1047  C     0.20461   0.50255   0.59484   0.00000  Uiso   1.00
C1048  C     0.12804   0.50176   0.95180   0.00000  Uiso   1.00
C1049  C     0.20457   0.49835   0.54808   0.00000  Uiso   1.00
C1050  C     0.16611   0.49968   0.97644   0.00000  Uiso   1.00
C1051  C     0.16655   0.50015   0.52348   0.00000  Uiso   1.00
C1052  C     0.20378   0.49701   0.95403   0.00000  Uiso   1.00
C1053  C     0.12900   0.50248   0.54603   0.00000  Uiso   1.00
C1054  C     0.09089   0.50588   0.97501   0.00000  Uiso   1.00
C1055  C     0.09161   0.50738   0.52165   0.00000  Uiso   1.00
C1056  C     0.24153   0.49243   0.52522   0.00000  Uiso   1.00
C1057  C     0.24120   0.49271   0.97862   0.00000  Uiso   1.00
C1058  C     0.02011   0.46601   0.72528   0.00000  Uiso   1.00
C1059  C     0.31344   0.53377   0.77440   0.00000  Uiso   1.00
C1060  C     0.31077   0.46611   0.72499   0.00000  Uiso   1.00
C1061  C     0.02304   0.53306   0.77510   0.00000  Uiso   1.00
C1062  C     0.29057   0.50027   0.74950   0.00000  Uiso   1.00
Cu1063 Cu    0.16667   0.54689   0.75000   0.00000  Uiso   1.00
Cu1064 Cu    0.16667   0.45311   0.75000   0.00000  Uiso   1.00
H1065  H     0.24136   0.53081   0.86448   0.00000  Uiso   1.00
H1066  H     0.29130   0.51228   0.56422   0.00000  Uiso   1.00
H1067  H     0.03373   0.52575   0.52441   0.00000  Uiso   1.00
H1068  H     0.30139   0.49439   0.97590   0.00000  Uiso   1.00
H1069  H     0.03043   0.43529   0.66641   0.00000  Uiso   1.00
H1070  H     0.03137   0.39912   0.71074   0.00000  Uiso   1.00
H1071  H     0.30193   0.56477   0.83307   0.00000  Uiso   1.00
H1072  H     0.30194   0.60089   0.78848   0.00000  Uiso   1.00
H1073  H     0.26698   0.44759   0.67803   0.00000  Uiso   1.00
H1074  H     0.27468   0.40763   0.71946   0.00000  Uiso   1.00
H1075  H     0.03994   0.59953   0.79150   0.00000  Uiso   1.00
H1076  H     0.24161   0.47165   0.86225   0.00000  Uiso   1.00
H1077  H     0.03902   0.56181   0.83506   0.00000  Uiso   1.00
H1078  H     0.13468   0.37463   0.65437   0.00000  Uiso   1.00
H1079  H     0.09166   0.36883   0.68340   0.00000  Uiso   1.00
H1080  H     0.19877   0.62537   0.84561   0.00000  Uiso   1.00
H1081  H     0.24175   0.63112   0.81648   0.00000  Uiso   1.00
H1082  H     0.20634   0.37502   0.84458   0.00000  Uiso   1.00
H1083  H     0.24515   0.37701   0.80818   0.00000  Uiso   1.00
H1084  H     0.12705   0.62497   0.65539   0.00000  Uiso   1.00
H1085  H     0.08822   0.62298   0.69176   0.00000  Uiso   1.00
H1086  H     0.09286   0.46534   0.63509   0.00000  Uiso   1.00
H1087  H     0.09050   0.52433   0.63834   0.00000  Uiso   1.00
H1088  H     0.09522   0.48569   0.85030   0.00000  Uiso   1.00
H1089  H     0.23684   0.52255   0.64805   0.00000  Uiso   1.00
H1090  H     0.05049   0.53752   0.93184   0.00000  Uiso   1.00
H1091  H     0.04486   0.47735   0.93539   0.00000  Uiso   1.00
H1092  H     0.27572   0.45466   0.57006   0.00000  Uiso   1.00
N1093  N     0.16667   0.61736   0.75000   0.00000  Uiso   1.00
N1094  N     0.04675   0.56577   0.80187   0.00000  Uiso   1.00
N1095  N     0.12167   0.38187   0.68479   0.00000  Uiso   1.00
N1096  N     0.21173   0.61811   0.81516   0.00000  Uiso   1.00
N1097  N     0.21441   0.38482   0.81258   0.00000  Uiso   1.00
N1098  N     0.11897   0.61518   0.68738   0.00000  Uiso   1.00
N1099  N     0.16667   0.38264   0.75000   0.00000  Uiso   1.00
N1100  N     0.24077   0.50040   0.88345   0.00000  Uiso   1.00
N1101  N     0.09227   0.49609   0.61663   0.00000  Uiso   1.00
N1102  N     0.05152   0.50834   0.95252   0.00000  Uiso   1.00
N1103  N     0.27968   0.48243   0.54810   0.00000  Uiso   1.00
N1104  N     0.04042   0.43208   0.69956   0.00000  Uiso   1.00
N1105  N     0.29293   0.56794   0.79965   0.00000  Uiso   1.00
N1106  N     0.28888   0.43157   0.69856   0.00000  Uiso   1.00
O1107  O     0.10655   0.53958   0.74999   0.00000  Uiso   1.00
O1108  O     0.24132   0.50891   0.61852   0.00000  Uiso   1.00
O1109  O     0.05584   0.51400   0.54431   0.00000  Uiso   1.00
O1110  O     0.27726   0.48687   0.95637   0.00000  Uiso   1.00
O1111  O     0.22679   0.46042   0.75001   0.00000  Uiso   1.00
O1112  O     0.22679   0.53958   0.75001   0.00000  Uiso   1.00
O1113  O     0.10655   0.46042   0.74999   0.00000  Uiso   1.00
O1114  O     0.16666   0.53960   0.68513   0.00000  Uiso   1.00
O1115  O     0.16668   0.46040   0.81487   0.00000  Uiso   1.00
O1116  O     0.16668   0.53960   0.81487   0.00000  Uiso   1.00
O1117  O     0.16666   0.46040   0.68513   0.00000  Uiso   1.00
O1118  O     0.09161   0.49850   0.88032   0.00000  Uiso   1.00
C1119  C     0.42083   0.49967   0.74988   0.00000  Uiso   1.00
C1120  C     0.37623   0.49931   0.75025   0.00000  Uiso   1.00
C1121  C     0.47749   0.35758   0.71869   0.00000  Uiso   1.00
C1122  C     0.52253   0.64241   0.78129   0.00000  Uiso   1.00
C1123  C     0.52286   0.35892   0.78097   0.00000  Uiso   1.00
C1124  C     0.47715   0.64108   0.71902   0.00000  Uiso   1.00
C1125  C     0.50020   0.50008   0.66471   0.00000  Uiso   1.00
C1126  C     0.49986   0.49995   0.83528   0.00000  Uiso   1.00
C1127  C     0.53657   0.49863   0.90722   0.00000  Uiso   1.00
C1128  C     0.46302   0.50003   0.59284   0.00000  Uiso   1.00
C1129  C     0.49918   0.49942   0.88338   0.00000  Uiso   1.00
C1130  C     0.57921   0.50024   0.74988   0.00000  Uiso   1.00
C1131  C     0.50052   0.50072   0.61657   0.00000  Uiso   1.00
C1132  C     0.46157   0.49956   0.90480   0.00000  Uiso   1.00
C1133  C     0.53794   0.50255   0.59484   0.00000  Uiso   1.00
C1134  C     0.46137   0.50176   0.95180   0.00000  Uiso   1.00
C1135  C     0.53790   0.49835   0.54808   0.00000  Uiso   1.00
C1136  C     0.49944   0.49968   0.97644   0.00000  Uiso   1.00
C1137  C     0.49989   0.50015   0.52348   0.00000  Uiso   1.00
C1138  C     0.53711   0.49701   0.95403   0.00000  Uiso   1.00
C1139  C     0.46233   0.50248   0.54603   0.00000  Uiso   1.00
C1140  C     0.42422   0.50588   0.97501   0.00000  Uiso   1.00
C1141  C     0.42494   0.50738   0.52165   0.00000  Uiso   1.00
C1142  C     0.57487   0.49243   0.52522   0.00000  Uiso   1.00
C1143  C     0.57453   0.49271   0.97862   0.00000  Uiso   1.00
C1144  C     0.35345   0.46601   0.72528   0.00000  Uiso   1.00
C1145  C     0.64678   0.53377   0.77440   0.00000  Uiso   1.00
C1146  C     0.64410   0.46611   0.72499   0.00000  Uiso   1.00
C1147  C     0.35637   0.53306   0.77510   0.00000  Uiso   1.00
C1148  C     0.62391   0.50027   0.74950   0.00000  Uiso   1.00
Cu1149 Cu    0.50000   0.54689   0.75000   0.00000  Uiso   1.00
Cu1150 Cu    0.50000   0.45311   0.75000   0.00000  Uiso   1.00
H1151  H     0.57469   0.53081   0.86448   0.00000  Uiso   1.00
H1152  H     0.62464   0.51228   0.56422   0.00000  Uiso   1.00
H1153  H     0.36706   0.52575   0.52441   0.00000  Uiso   1.00
H1154  H     0.63472   0.49439   0.97590   0.00000  Uiso   1.00
H1155  H     0.36377   0.43529   0.66641   0.00000  Uiso   1.00
H1156  H     0.36470   0.39912   0.71074   0.00000  Uiso   1.00
H1157  H     0.63526   0.56477   0.83307   0.00000  Uiso   1.00
H1158  H     0.63527   0.60089   0.78848   0.00000  Uiso   1.00
H1159  H     0.60032   0.44759   0.67803   0.00000  Uiso   1.00
H1160  H     0.60801   0.40763   0.71946   0.00000  Uiso   1.00
H1161  H     0.37328   0.59953   0.79150   0.00000  Uiso   1.00
H1162  H     0.57495   0.47165   0.86225   0.00000  Uiso   1.00
H1163  H     0.37236   0.56181   0.83506   0.00000  Uiso   1.00
H1164  H     0.46802   0.37463   0.65437   0.00000  Uiso   1.00
H1165  H     0.42499   0.36883   0.68340   0.00000  Uiso   1.00
H1166  H     0.53211   0.62537   0.84561   0.00000  Uiso   1.00
H1167  H     0.57509   0.63112   0.81648   0.00000  Uiso   1.00
H1168  H     0.53967   0.37502   0.84458   0.00000  Uiso   1.00
H1169  H     0.57848   0.37701   0.80818   0.00000  Uiso   1.00
H1170  H     0.46039   0.62497   0.65539   0.00000  Uiso   1.00
H1171  H     0.42156   0.62298   0.69176   0.00000  Uiso   1.00
H1172  H     0.42619   0.46534   0.63509   0.00000  Uiso   1.00
H1173  H     0.42383   0.52433   0.63834   0.00000  Uiso   1.00
H1174  H     0.42855   0.48569   0.85030   0.00000  Uiso   1.00
H1175  H     0.57017   0.52255   0.64805   0.00000  Uiso   1.00
H1176  H     0.38382   0.53752   0.93184   0.00000  Uiso   1.00
H1177  H     0.37819   0.47735   0.93539   0.00000  Uiso   1.00
H1178  H     0.60905   0.45466   0.57006   0.00000  Uiso   1.00
N1179  N     0.50000   0.61736   0.75000   0.00000  Uiso   1.00
N1180  N     0.38009   0.56577   0.80187   0.00000  Uiso   1.00
N1181  N     0.45501   0.38187   0.68479   0.00000  Uiso   1.00
N1182  N     0.54506   0.61811   0.81516   0.00000  Uiso   1.00
N1183  N     0.54774   0.38482   0.81258   0.00000  Uiso   1.00
N1184  N     0.45230   0.61518   0.68738   0.00000  Uiso   1.00
N1185  N     0.50000   0.38264   0.75000   0.00000  Uiso   1.00
N1186  N     0.57410   0.50040   0.88345   0.00000  Uiso   1.00
N1187  N     0.42561   0.49609   0.61663   0.00000  Uiso   1.00
N1188  N     0.38485   0.50834   0.95252   0.00000  Uiso   1.00
N1189  N     0.61301   0.48243   0.54810   0.00000  Uiso   1.00
N1190  N     0.37376   0.43208   0.69956   0.00000  Uiso   1.00
N1191  N     0.62626   0.56794   0.79965   0.00000  Uiso   1.00
N1192  N     0.62221   0.43157   0.69856   0.00000  Uiso   1.00
O1193  O     0.43988   0.53958   0.74999   0.00000  Uiso   1.00
O1194  O     0.57465   0.50891   0.61852   0.00000  Uiso   1.00
O1195  O     0.38918   0.51400   0.54431   0.00000  Uiso   1.00
O1196  O     0.61059   0.48687   0.95637   0.00000  Uiso   1.00
O1197  O     0.56012   0.46042   0.75001   0.00000  Uiso   1.00
O1198  O     0.56012   0.53958   0.75001   0.00000  Uiso   1.00
O1199  O     0.43988   0.46042   0.74999   0.00000  Uiso   1.00
O1200  O     0.49999   0.53960   0.68513   0.00000  Uiso   1.00
O1201  O     0.50001   0.46040   0.81487   0.00000  Uiso   1.00
O1202  O     0.50001   0.53960   0.81487   0.00000  Uiso   1.00
O1203  O     0.49999   0.46040   0.68513   0.00000  Uiso   1.00
O1204  O     0.42495   0.49850   0.88032   0.00000  Uiso   1.00
C1205  C     0.75417   0.49967   0.74988   0.00000  Uiso   1.00
C1206  C     0.70956   0.49931   0.75025   0.00000  Uiso   1.00
C1207  C     0.81082   0.35758   0.71869   0.00000  Uiso   1.00
C1208  C     0.85587   0.64241   0.78129   0.00000  Uiso   1.00
C1209  C     0.85620   0.35892   0.78097   0.00000  Uiso   1.00
C1210  C     0.81049   0.64108   0.71902   0.00000  Uiso   1.00
C1211  C     0.83354   0.50008   0.66471   0.00000  Uiso   1.00
C1212  C     0.83319   0.49995   0.83528   0.00000  Uiso   1.00
C1213  C     0.86991   0.49863   0.90722   0.00000  Uiso   1.00
C1214  C     0.79635   0.50003   0.59284   0.00000  Uiso   1.00
C1215  C     0.83252   0.49942   0.88338   0.00000  Uiso   1.00
C1216  C     0.91254   0.50024   0.74988   0.00000  Uiso   1.00
C1217  C     0.83385   0.50072   0.61657   0.00000  Uiso   1.00
C1218  C     0.79490   0.49956   0.90480   0.00000  Uiso   1.00
C1219  C     0.87127   0.50255   0.59484   0.00000  Uiso   1.00
C1220  C     0.79470   0.50176   0.95180   0.00000  Uiso   1.00
C1221  C     0.87124   0.49835   0.54808   0.00000  Uiso   1.00
C1222  C     0.83277   0.49968   0.97644   0.00000  Uiso   1.00
C1223  C     0.83322   0.50015   0.52348   0.00000  Uiso   1.00
C1224  C     0.87044   0.49701   0.95403   0.00000  Uiso   1.00
C1225  C     0.79566   0.50248   0.54603   0.00000  Uiso   1.00
C1226  C     0.75755   0.50588   0.97501   0.00000  Uiso   1.00
C1227  C     0.75827   0.50738   0.52165   0.00000  Uiso   1.00
C1228  C     0.90820   0.49243   0.52522   0.00000  Uiso   1.00
C1229  C     0.90787   0.49271   0.97862   0.00000  Uiso   1.00
C1230  C     0.68678   0.46601   0.72528   0.00000  Uiso   1.00
C1231  C     0.98011   0.53377   0.77440   0.00000  Uiso   1.00
C1232  C     0.97743   0.46611   0.72499   0.00000  Uiso   1.00
C1233  C     0.68971   0.53306   0.77510   0.00000  Uiso   1.00
C1234  C     0.95724   0.50027   0.74950   0.00000  Uiso   1.00
Cu1235 Cu    0.83333   0.54689   0.75000   0.00000  Uiso   1.00
Cu1236 Cu    0.83333   0.45311   0.75000   0.00000  Uiso   1.00
H1237  H     0.90802   0.53081   0.86448   0.00000  Uiso   1.00
H1238  H     0.95797   0.51228   0.56422   0.00000  Uiso   1.00
H1239  H     0.70039   0.52575   0.52441   0.00000  Uiso   1.00
H1240  H     0.96806   0.49439   0.97590   0.00000  Uiso   1.00
H1241  H     0.69710   0.43529   0.66641   0.00000  Uiso   1.00
H1242  H     0.69803   0.39912   0.71074   0.00000  Uiso   1.00
H1243  H     0.96859   0.56477   0.83307   0.00000  Uiso   1.00
H1244  H     0.96861   0.60089   0.78848   0.00000  Uiso   1.00
H1245  H     0.93365   0.44759   0.67803   0.00000  Uiso   1.00
H1246  H     0.94135   0.40763   0.71946   0.00000  Uiso   1.00
H1247  H     0.70661   0.59953   0.79150   0.00000  Uiso   1.00
H1248  H     0.90828   0.47165   0.86225   0.00000  Uiso   1.00
H1249  H     0.70569   0.56181   0.83506   0.00000  Uiso   1.00
H1250  H     0.80135   0.37463   0.65437   0.00000  Uiso   1.00
H1251  H     0.75832   0.36883   0.68340   0.00000  Uiso   1.00
H1252  H     0.86544   0.62537   0.84561   0.00000  Uiso   1.00
H1253  H     0.90842   0.63112   0.81648   0.00000  Uiso   1.00
H1254  H     0.87301   0.37502   0.84458   0.00000  Uiso   1.00
H1255  H     0.91181   0.37701   0.80818   0.00000  Uiso   1.00
H1256  H     0.79372   0.62497   0.65539   0.00000  Uiso   1.00
H1257  H     0.75489   0.62298   0.69176   0.00000  Uiso   1.00
H1258  H     0.75952   0.46534   0.63509   0.00000  Uiso   1.00
H1259  H     0.75717   0.52433   0.63834   0.00000  Uiso   1.00
H1260  H     0.76188   0.48569   0.85030   0.00000  Uiso   1.00
H1261  H     0.90350   0.52255   0.64805   0.00000  Uiso   1.00
H1262  H     0.71716   0.53752   0.93184   0.00000  Uiso   1.00
H1263  H     0.71153   0.47735   0.93539   0.00000  Uiso   1.00
H1264  H     0.94238   0.45466   0.57006   0.00000  Uiso   1.00
N1265  N     0.83333   0.61736   0.75000   0.00000  Uiso   1.00
N1266  N     0.71342   0.56577   0.80187   0.00000  Uiso   1.00
N1267  N     0.78834   0.38187   0.68479   0.00000  Uiso   1.00
N1268  N     0.87839   0.61811   0.81516   0.00000  Uiso   1.00
N1269  N     0.88108   0.38482   0.81258   0.00000  Uiso   1.00
N1270  N     0.78563   0.61518   0.68738   0.00000  Uiso   1.00
N1271  N     0.83333   0.38264   0.75000   0.00000  Uiso   1.00
N1272  N     0.90743   0.50040   0.88345   0.00000  Uiso   1.00
N1273  N     0.75894   0.49609   0.61663   0.00000  Uiso   1.00
N1274  N     0.71818   0.50834   0.95252   0.00000  Uiso   1.00
N1275  N     0.94635   0.48243   0.54810   0.00000  Uiso   1.00
N1276  N     0.70709   0.43208   0.69956   0.00000  Uiso   1.00
N1277  N     0.95960   0.56794   0.79965   0.00000  Uiso   1.00
N1278  N     0.95554   0.43157   0.69856   0.00000  Uiso   1.00
O1279  O     0.77321   0.53958   0.74999   0.00000  Uiso   1.00
O1280  O     0.90799   0.50891   0.61852   0.00000  Uiso   1.00
O1281  O     0.72251   0.51400   0.54431   0.00000  Uiso   1.00
O1282  O     0.94393   0.48687   0.95637   0.00000  Uiso   1.00
O1283  O     0.89345   0.46042   0.75001   0.00000  Uiso   1.00
O1284  O     0.89345   0.53958   0.75001   0.00000  Uiso   1.00
O1285  O     0.77321   0.46042   0.74999   0.00000  Uiso   1.00
O1286  O     0.83332   0.53960   0.68513   0.00000  Uiso   1.00
O1287  O     0.83334   0.46040   0.81487   0.00000  Uiso   1.00
O1288  O     0.83334   0.53960   0.81487   0.00000  Uiso   1.00
O1289  O     0.83332   0.46040   0.68513   0.00000  Uiso   1.00
O1290  O     0.75828   0.49850   0.88032   0.00000  Uiso   1.00
C1291  C     0.08750   0.83300   0.74988   0.00000  Uiso   1.00
C1292  C     0.04289   0.83264   0.75025   0.00000  Uiso   1.00
C1293  C     0.14415   0.69091   0.71869   0.00000  Uiso   1.00
C1294  C     0.18920   0.97575   0.78129   0.00000  Uiso   1.00
C1295  C     0.18953   0.69225   0.78097   0.00000  Uiso   1.00
C1296  C     0.14382   0.97441   0.71902   0.00000  Uiso   1.00
C1297  C     0.16687   0.83341   0.66471   0.00000  Uiso   1.00
C1298  C     0.16653   0.83328   0.83528   0.00000  Uiso   1.00
C1299  C     0.20324   0.83196   0.90722   0.00000  Uiso   1.00
C1300  C     0.12969   0.83337   0.59284   0.00000  Uiso   1.00
C1301  C     0.16585   0.83276   0.88338   0.00000  Uiso   1.00
C1302  C     0.24588   0.83357   0.74988   0.00000  Uiso   1.00
C1303  C     0.16719   0.83405   0.61657   0.00000  Uiso   1.00
C1304  C     0.12824   0.83289   0.90480   0.00000  Uiso   1.00
C1305  C     0.20461   0.83588   0.59484   0.00000  Uiso   1.00
C1306  C     0.12804   0.83510   0.95180   0.00000  Uiso   1.00
C1307  C     0.20457   0.83168   0.54808   0.00000  Uiso   1.00
C1308  C     0.16611   0.83302   0.97644   0.00000  Uiso   1.00
C1309  C     0.16655   0.83349   0.52348   0.00000  Uiso   1.00
C1310  C     0.20378   0.83034   0.95403   0.00000  Uiso   1.00
C1311  C     0.12900   0.83581   0.54603   0.00000  Uiso   1.00
C1312  C     0.09089   0.83921   0.97501   0.00000  Uiso   1.00
C1313  C     0.09161   0.84072   0.52165   0.00000  Uiso   1.00
C1314  C     0.24153   0.82576   0.52522   0.00000  Uiso   1.00
C1315  C     0.24120   0.82604   0.97862   0.00000  Uiso   1.00
C1316  C     0.02011   0.79935   0.72528   0.00000  Uiso   1.00
C1317  C     0.31344   0.86710   0.77440   0.00000  Uiso   1.00
C1318  C     0.31077   0.79944   0.72499   0.00000  Uiso   1.00
C1319  C     0.02304   0.86639   0.77510   0.00000  Uiso   1.00
C1320  C     0.29057   0.83360   0.74950   0.00000  Uiso   1.00
Cu1321 Cu    0.16667   0.88022   0.75000   0.00000  Uiso   1.00
Cu1322 Cu    0.16667   0.78645   0.75000   0.00000  Uiso   1.00
H1323  H     0.24136   0.86415   0.86448   0.00000  Uiso   1.00
H1324  H     0.29130   0.84561   0.56422   0.00000  Uiso   1.00
H1325  H     0.03373   0.85909   0.52441   0.00000  Uiso   1.00
H1326  H     0.30139   0.82773   0.97590   0.00000  Uiso   1.00
H1327  H     0.03043   0.76862   0.66641   0.00000  Uiso   1.00
H1328  H     0.03137   0.73246   0.71074   0.00000  Uiso   1.00
H1329  H     0.30193   0.89810   0.83307   0.00000  Uiso   1.00
H1330  H     0.30194   0.93423   0.78848   0.00000  Uiso   1.00
H1331  H     0.26698   0.78093   0.67803   0.00000  Uiso   1.00
H1332  H     0.27468   0.74096   0.71946   0.00000  Uiso   1.00
H1333  H     0.03994   0.93286   0.79150   0.00000  Uiso   1.00
H1334  H     0.24161   0.80498   0.86225   0.00000  Uiso   1.00
H1335  H     0.03902   0.89515   0.83506   0.00000  Uiso   1.00
H1336  H     0.13468   0.70796   0.65437   0.00000  Uiso   1.00
H1337  H     0.09166   0.70217   0.68340   0.00000  Uiso   1.00
H1338  H     0.19877   0.95870   0.84561   0.00000  Uiso   1.00
H1339  H     0.24175   0.96446   0.81648   0.00000  Uiso   1.00
H1340  H     0.20634   0.70836   0.84458   0.00000  Uiso   1.00
H1341  H     0.24515   0.71034   0.80818   0.00000  Uiso   1.00
H1342  H     0.12705   0.95830   0.65539   0.00000  Uiso   1.00
H1343  H     0.08822   0.95631   0.69176   0.00000  Uiso   1.00
H1344  H     0.09286   0.79867   0.63509   0.00000  Uiso   1.00
H1345  H     0.09050   0.85766   0.63834   0.00000  Uiso   1.00
H1346  H     0.09522   0.81902   0.85030   0.00000  Uiso   1.00
H1347  H     0.23684   0.85588   0.64805   0.00000  Uiso   1.00
H1348  H     0.05049   0.87086   0.93184   0.00000  Uiso   1.00
H1349  H     0.04486   0.81068   0.93539   0.00000  Uiso   1.00
H1350  H     0.27572   0.78799   0.57006   0.00000  Uiso   1.00
N1351  N     0.16667   0.95069   0.75000   0.00000  Uiso   1.00
N1352  N     0.04675   0.89910   0.80187   0.00000  Uiso   1.00
N1353  N     0.12167   0.71521   0.68479   0.00000  Uiso   1.00
N1354  N     0.21173   0.95144   0.81516   0.00000  Uiso   1.00
N1355  N     0.21441   0.71815   0.81258   0.00000  Uiso   1.00
N1356  N     0.11897   0.94851   0.68738   0.00000  Uiso   1.00
N1357  N     0.16667   0.71598   0.75000   0.00000  Uiso   1.00
N1358  N     0.24077   0.83373   0.88345   0.00000  Uiso   1.00
N1359  N     0.09227   0.82943   0.61663   0.00000  Uiso   1.00
N1360  N     0.05152   0.84167   0.95252   0.00000  Uiso   1.00
N1361  N     0.27968   0.81576   0.54810   0.00000  Uiso   1.00
N1362  N     0.04042   0.76542   0.69956   0.00000  Uiso   1.00
N1363  N     0.29293   0.90128   0.79965   0.00000  Uiso   1.00
N1364  N     0.28888   0.76490   0.69856   0.00000  Uiso   1.00
O1365  O     0.10655   0.87291   0.74999   0.00000  Uiso   1.00
O1366  O     0.24132   0.84225   0.61852   0.00000  Uiso   1.00
O1367  O     0.05584   0.84733   0.54431   0.00000  Uiso   1.00
O1368  O     0.27726   0.82021   0.95637   0.00000  Uiso   1.00
O1369  O     0.22679   0.79375   0.75001   0.00000  Uiso   1.00
O1370  O     0.22679   0.87291   0.75001   0.00000  Uiso   1.00
O1371  O     0.10655   0.79375   0.74999   0.00000  Uiso   1.00
O1372  O     0.16666   0.87293   0.68513   0.00000  Uiso   1.00
O1373  O     0.16668   0.79373   0.81487   0.00000  Uiso   1.00
O1374  O     0.16668   0.87293   0.81487   0.00000  Uiso   1.00
O1375  O     0.16666   0.79373   0.68513   0.00000  Uiso   1.00
O1376  O     0.09161   0.83184   0.88032   0.00000  Uiso   1.00
C1377  C     0.42083   0.83300   0.74988   0.00000  Uiso   1.00
C1378  C     0.37623   0.83264   0.75025   0.00000  Uiso   1.00
C1379  C     0.47749   0.69091   0.71869   0.00000  Uiso   1.00
C1380  C     0.52253   0.97575   0.78129   0.00000  Uiso   1.00
C1381  C     0.52286   0.69225   0.78097   0.00000  Uiso   1.00
C1382  C     0.47715   0.97441   0.71902   0.00000  Uiso   1.00
C1383  C     0.50020   0.83341   0.66471   0.00000  Uiso   1.00
C1384  C     0.49986   0.83328   0.83528   0.00000  Uiso   1.00
C1385  C     0.53657   0.83196   0.90722   0.00000  Uiso   1.00
C1386  C     0.46302   0.83337   0.59284   0.00000  Uiso   1.00
C1387  C     0.49918   0.83276   0.88338   0.00000  Uiso   1.00
C1388  C     0.57921   0.83357   0.74988   0.00000  Uiso   1.00
C1389  C     0.50052   0.83405   0.61657   0.00000  Uiso   1.00
C1390  C     0.46157   0.83289   0.90480   0.00000  Uiso   1.00
C1391  C     0.53794   0.83588   0.59484   0.00000  Uiso   1.00
C1392  C     0.46137   0.83510   0.95180   0.00000  Uiso   1.00
C1393  C     0.53790   0.83168   0.54808   0.00000  Uiso   1.00
C1394  C     0.49944   0.83302   0.97644   0.00000  Uiso   1.00
C1395  C     0.49989   0.83349   0.52348   0.00000  Uiso   1.00
C1396  C     0.53711   0.83034   0.95403   0.00000  Uiso   1.00
C1397  C     0.46233   0.83581   0.54603   0.00000  Uiso   1.00
C1398  C     0.42422   0.83921   0.97501   0.00000  Uiso   1.00
C1399  C     0.42494   0.84072   0.52165   0.00000  Uiso   1.00
C1400  C     0.57487   0.82576   0.52522   0.00000  Uiso   1.00
C1401  C     0.57453   0.82604   0.97862   0.00000  Uiso   1.00
C1402  C     0.35345   0.79935   0.72528   0.00000  Uiso   1.00
C1403  C     0.64678   0.86710   0.77440   0.00000  Uiso   1.00
C1404  C     0.64410   0.79944   0.72499   0.00000  Uiso   1.00
C1405  C     0.35637   0.86639   0.77510   0.00000  Uiso   1.00
C1406  C     0.62391   0.83360   0.74950   0.00000  Uiso   1.00
Cu1407 Cu    0.50000   0.88022   0.75000   0.00000  Uiso   1.00
Cu1408 Cu    0.50000   0.78645   0.75000   0.00000  Uiso   1.00
H1409  H     0.57469   0.86415   0.86448   0.00000  Uiso   1.00
H1410  H     0.62464   0.84561   0.56422   0.00000  Uiso   1.00
H1411  H     0.36706   0.85909   0.52441   0.00000  Uiso   1.00
H1412  H     0.63472   0.82773   0.97590   0.00000  Uiso   1.00
H1413  H     0.36377   0.76862   0.66641   0.00000  Uiso   1.00
H1414  H     0.36470   0.73246   0.71074   0.00000  Uiso   1.00
H1415  H     0.63526   0.89810   0.83307   0.00000  Uiso   1.00
H1416  H     0.63527   0.93423   0.78848   0.00000  Uiso   1.00
H1417  H     0.60032   0.78093   0.67803   0.00000  Uiso   1.00
H1418  H     0.60801   0.74096   0.71946   0.00000  Uiso   1.00
H1419  H     0.37328   0.93286   0.79150   0.00000  Uiso   1.00
H1420  H     0.57495   0.80498   0.86225   0.00000  Uiso   1.00
H1421  H     0.37236   0.89515   0.83506   0.00000  Uiso   1.00
H1422  H     0.46802   0.70796   0.65437   0.00000  Uiso   1.00
H1423  H     0.42499   0.70217   0.68340   0.00000  Uiso   1.00
H1424  H     0.53211   0.95870   0.84561   0.00000  Uiso   1.00
H1425  H     0.57509   0.96446   0.81648   0.00000  Uiso   1.00
H1426  H     0.53967   0.70836   0.84458   0.00000  Uiso   1.00
H1427  H     0.57848   0.71034   0.80818   0.00000  Uiso   1.00
H1428  H     0.46039   0.95830   0.65539   0.00000  Uiso   1.00
H1429  H     0.42156   0.95631   0.69176   0.00000  Uiso   1.00
H1430  H     0.42619   0.79867   0.63509   0.00000  Uiso   1.00
H1431  H     0.42383   0.85766   0.63834   0.00000  Uiso   1.00
H1432  H     0.42855   0.81902   0.85030   0.00000  Uiso   1.00
H1433  H     0.57017   0.85588   0.64805   0.00000  Uiso   1.00
H1434  H     0.38382   0.87086   0.93184   0.00000  Uiso   1.00
H1435  H     0.37819   0.81068   0.93539   0.00000  Uiso   1.00
H1436  H     0.60905   0.78799   0.57006   0.00000  Uiso   1.00
N1437  N     0.50000   0.95069   0.75000   0.00000  Uiso   1.00
N1438  N     0.38009   0.89910   0.80187   0.00000  Uiso   1.00
N1439  N     0.45501   0.71521   0.68479   0.00000  Uiso   1.00
N1440  N     0.54506   0.95144   0.81516   0.00000  Uiso   1.00
N1441  N     0.54774   0.71815   0.81258   0.00000  Uiso   1.00
N1442  N     0.45230   0.94851   0.68738   0.00000  Uiso   1.00
N1443  N     0.50000   0.71598   0.75000   0.00000  Uiso   1.00
N1444  N     0.57410   0.83373   0.88345   0.00000  Uiso   1.00
N1445  N     0.42561   0.82943   0.61663   0.00000  Uiso   1.00
N1446  N     0.38485   0.84167   0.95252   0.00000  Uiso   1.00
N1447  N     0.61301   0.81576   0.54810   0.00000  Uiso   1.00
N1448  N     0.37376   0.76542   0.69956   0.00000  Uiso   1.00
N1449  N     0.62626   0.90128   0.79965   0.00000  Uiso   1.00
N1450  N     0.62221   0.76490   0.69856   0.00000  Uiso   1.00
O1451  O     0.43988   0.87291   0.74999   0.00000  Uiso   1.00
O1452  O     0.57465   0.84225   0.61852   0.00000  Uiso   1.00
O1453  O     0.38918   0.84733   0.54431   0.00000  Uiso   1.00
O1454  O     0.61059   0.82021   0.95637   0.00000  Uiso   1.00
O1455  O     0.56012   0.79375   0.75001   0.00000  Uiso   1.00
O1456  O     0.56012   0.87291   0.75001   0.00000  Uiso   1.00
O1457  O     0.43988   0.79375   0.74999   0.00000  Uiso   1.00
O1458  O     0.49999   0.87293   0.68513   0.00000  Uiso   1.00
O1459  O     0.50001   0.79373   0.81487   0.00000  Uiso   1.00
O1460  O     0.50001   0.87293   0.81487   0.00000  Uiso   1.00
O1461  O     0.49999   0.79373   0.68513   0.00000  Uiso   1.00
O1462  O     0.42495   0.83184   0.88032   0.00000  Uiso   1.00
C1463  C     0.75417   0.83300   0.74988   0.00000  Uiso   1.00
C1464  C     0.70956   0.83264   0.75025   0.00000  Uiso   1.00
C1465  C     0.81082   0.69091   0.71869   0.00000  Uiso   1.00
C1466  C     0.85587   0.97575   0.78129   0.00000  Uiso   1.00
C1467  C     0.85620   0.69225   0.78097   0.00000  Uiso   1.00
C1468  C     0.81049   0.97441   0.71902   0.00000  Uiso   1.00
C1469  C     0.83354   0.83341   0.66471   0.00000  Uiso   1.00
C1470  C     0.83319   0.83328   0.83528   0.00000  Uiso   1.00
C1471  C     0.86991   0.83196   0.90722   0.00000  Uiso   1.00
C1472  C     0.79635   0.83337   0.59284   0.00000  Uiso   1.00
C1473  C     0.83252   0.83276   0.88338   0.00000  Uiso   1.00
C1474  C     0.91254   0.83357   0.74988   0.00000  Uiso   1.00
C1475  C     0.83385   0.83405   0.61657   0.00000  Uiso   1.00
C1476  C     0.79490   0.83289   0.90480   0.00000  Uiso   1.00
C1477  C     0.87127   0.83588   0.59484   0.00000  Uiso   1.00
C1478  C     0.79470   0.83510   0.95180   0.00000  Uiso   1.00
C1479  C     0.87124   0.83168   0.54808   0.00000  Uiso   1.00
C1480  C     0.83277   0.83302   0.97644   0.00000  Uiso   1.00
C1481  C     0.83322   0.83349   0.52348   0.00000  Uiso   1.00
C1482  C     0.87044   0.83034   0.95403   0.00000  Uiso   1.00
C1483  C     0.79566   0.83581   0.54603   0.00000  Uiso   1.00
C1484  C     0.75755   0.83921   0.97501   0.00000  Uiso   1.00
C1485  C     0.75827   0.84072   0.52165   0.00000  Uiso   1.00
C1486  C     0.90820   0.82576   0.52522   0.00000  Uiso   1.00
C1487  C     0.90787   0.82604   0.97862   0.00000  Uiso   1.00
C1488  C     0.68678   0.79935   0.72528   0.00000  Uiso   1.00
C1489  C     0.98011   0.86710   0.77440   0.00000  Uiso   1.00
C1490  C     0.97743   0.79944   0.72499   0.00000  Uiso   1.00
C1491  C     0.68971   0.86639   0.77510   0.00000  Uiso   1.00
C1492  C     0.95724   0.83360   0.74950   0.00000  Uiso   1.00
Cu1493 Cu    0.83333   0.88022   0.75000   0.00000  Uiso   1.00
Cu1494 Cu    0.83333   0.78645   0.75000   0.00000  Uiso   1.00
H1495  H     0.90802   0.86415   0.86448   0.00000  Uiso   1.00
H1496  H     0.95797   0.84561   0.56422   0.00000  Uiso   1.00
H1497  H     0.70039   0.85909   0.52441   0.00000  Uiso   1.00
H1498  H     0.96806   0.82773   0.97590   0.00000  Uiso   1.00
H1499  H     0.69710   0.76862   0.66641   0.00000  Uiso   1.00
H1500  H     0.69803   0.73246   0.71074   0.00000  Uiso   1.00
H1501  H     0.96859   0.89810   0.83307   0.00000  Uiso   1.00
H1502  H     0.96861   0.93423   0.78848   0.00000  Uiso   1.00
H1503  H     0.93365   0.78093   0.67803   0.00000  Uiso   1.00
H1504  H     0.94135   0.74096   0.71946   0.00000  Uiso   1.00
H1505  H     0.70661   0.93286   0.79150   0.00000  Uiso   1.00
H1506  H     0.90828   0.80498   0.86225   0.00000  Uiso   1.00
H1507  H     0.70569   0.89515   0.83506   0.00000  Uiso   1.00
H1508  H     0.80135   0.70796   0.65437   0.00000  Uiso   1.00
H1509  H     0.75832   0.70217   0.68340   0.00000  Uiso   1.00
H1510  H     0.86544   0.95870   0.84561   0.00000  Uiso   1.00
H1511  H     0.90842   0.96446   0.81648   0.00000  Uiso   1.00
H1512  H     0.87301   0.70836   0.84458   0.00000  Uiso   1.00
H1513  H     0.91181   0.71034   0.80818   0.00000  Uiso   1.00
H1514  H     0.79372   0.95830   0.65539   0.00000  Uiso   1.00
H1515  H     0.75489   0.95631   0.69176   0.00000  Uiso   1.00
H1516  H     0.75952   0.79867   0.63509   0.00000  Uiso   1.00
H1517  H     0.75717   0.85766   0.63834   0.00000  Uiso   1.00
H1518  H     0.76188   0.81902   0.85030   0.00000  Uiso   1.00
H1519  H     0.90350   0.85588   0.64805   0.00000  Uiso   1.00
H1520  H     0.71716   0.87086   0.93184   0.00000  Uiso   1.00
H1521  H     0.71153   0.81068   0.93539   0.00000  Uiso   1.00
H1522  H     0.94238   0.78799   0.57006   0.00000  Uiso   1.00
N1523  N     0.83333   0.95069   0.75000   0.00000  Uiso   1.00
N1524  N     0.71342   0.89910   0.80187   0.00000  Uiso   1.00
N1525  N     0.78834   0.71521   0.68479   0.00000  Uiso   1.00
N1526  N     0.87839   0.95144   0.81516   0.00000  Uiso   1.00
N1527  N     0.88108   0.71815   0.81258   0.00000  Uiso   1.00
N1528  N     0.78563   0.94851   0.68738   0.00000  Uiso   1.00
N1529  N     0.83333   0.71598   0.75000   0.00000  Uiso   1.00
N1530  N     0.90743   0.83373   0.88345   0.00000  Uiso   1.00
N1531  N     0.75894   0.82943   0.61663   0.00000  Uiso   1.00
N1532  N     0.71818   0.84167   0.95252   0.00000  Uiso   1.00
N1533  N     0.94635   0.81576   0.54810   0.00000  Uiso   1.00
N1534  N     0.70709   0.76542   0.69956   0.00000  Uiso   1.00
N1535  N     0.95960   0.90128   0.79965   0.00000  Uiso   1.00
N1536  N     0.95554   0.76490   0.69856   0.00000  Uiso   1.00
O1537  O     0.77321   0.87291   0.74999   0.00000  Uiso   1.00
O1538  O     0.90799   0.84225   0.61852   0.00000  Uiso   1.00
O1539  O     0.72251   0.84733   0.54431   0.00000  Uiso   1.00
O1540  O     0.94393   0.82021   0.95637   0.00000  Uiso   1.00
O1541  O     0.89345   0.79375   0.75001   0.00000  Uiso   1.00
O1542  O     0.89345   0.87291   0.75001   0.00000  Uiso   1.00
O1543  O     0.77321   0.79375   0.74999   0.00000  Uiso   1.00
O1544  O     0.83332   0.87293   0.68513   0.00000  Uiso   1.00
O1545  O     0.83334   0.79373   0.81487   0.00000  Uiso   1.00
O1546  O     0.83334   0.87293   0.81487   0.00000  Uiso   1.00
O1547  O     0.83332   0.79373   0.68513   0.00000  Uiso   1.00
O1548  O     0.75828   0.83184   0.88032   0.00000  Uiso   1.00
loop_
_geom_bond_atom_site_label_1
_geom_bond_atom_site_label_2
_geom_bond_distance
_geom_bond_site_symmetry_2
_ccdc_geom_bond_type
C1     O81     1.298   .     A
C1     C2      1.456   .     S
C1     O75     1.294   .     A
C2     C29     1.406   .     A
C2     C26     1.404   .     A
C3     N67     1.373   .     A
C3     N63     1.429   .     S
C3     C522    1.432   1_545 S
C4     N61     1.373   .     A
C4     N64     1.429   .     S
C4     C263    1.432   .     S
C5     N67     1.367   .     A
C5     N65     1.431   .     S
C5     C520    1.432   1_545 S
C6     N61     1.367   .     A
C6     N66     1.431   .     S
C6     C261    1.432   .     S
C7     C13     1.451   .     S
C7     O85     1.296   .     A
C7     O82     1.292   .     A
C8     O83     1.292   .     A
C8     O84     1.295   .     A
C8     C11     1.451   .     S
C9     C20     1.411   .     A
C9     C11     1.397   .     A
C9     N68     1.439   .     S
C10    C21     1.412   .     A
C10    C13     1.398   .     A
C10    N69     1.438   .     S
C11    C14     1.405   .     A
C12    O79     1.293   .     A
C12    C30     1.460   .     S
C12    O80     1.301   .     A
C13    C15     1.404   .     A
C14    O86     1.385   .     S
C14    C16     1.418   .     A
C15    O76     1.384   .     S
C15    C17     1.414   .     A
C16    C22     1.426   .     A
C16    C18     1.429   .     A
C17    C24     1.421   .     A
C17    C19     1.427   .     A
C18    C20     1.425   .     A
C18    C793    1.417   .     S
C19    C21     1.423   .     A
C19    C792    1.417   1_554 S
C20    C25     1.416   .     A
C21    C23     1.414   .     A
C22    N70     1.437   .     S
C22    C797    1.406   .     S
C23    O77     1.387   .     S
C23    C796    1.406   1_554 S
C24    N71     1.438   .     S
C24    C799    1.404   1_554 S
C25    O78     1.386   .     S
C25    C798    1.404   .     S
C26    N72     1.431   .     S
C26    C200    1.393   1_455 S
C27    C30     1.408   .     A
C27    N73     1.432   .     S
C27    C115    1.401   .     S
C28    N74     1.438   .     S
C28    C30     1.414   .     A
C28    C112    1.393   .     S
C29    N62     1.438   .     S
C29    C199    1.401   1_455 S
Cu31   N61     2.025   .     S
Cu31   O80     1.978   .     S
Cu31   O82     1.966   .     S
Cu31   O75     1.970   .     S
Cu31   O84     1.966   .     S
Cu31   Cu32    2.695   .     S
Cu32   O81     1.978   .     S
Cu32   N67     2.025   .     S
Cu32   O83     1.966   .     S
Cu32   O79     1.970   .     S
Cu32   O85     1.966   .     S
H33    N68     1.045   .     S
H34    N71     1.045   .     S
H35    O77     0.988   .     S
H36    O78     0.989   .     S
H37    N72     1.046   .     S
H38    N72     1.046   .     S
H39    N73     1.045   .     S
H40    N73     1.045   .     S
H41    N74     1.044   .     S
H42    N74     1.045   .     S
H43    N62     1.045   .     S
H44    N68     1.046   .     S
H45    N62     1.045   .     S
H46    N63     1.045   .     S
H47    N63     1.042   .     S
H48    N64     1.045   .     S
H49    N64     1.042   .     S
H50    N65     1.045   .     S
H51    N65     1.045   .     S
H52    N66     1.045   .     S
H53    N66     1.045   .     S
H54    N69     1.044   .     S
H55    N69     1.046   .     S
H56    O86     0.988   .     S
H57    O76     0.988   .     S
H58    N70     1.045   .     S
H59    N70     1.045   .     S
H60    N71     1.046   .     S
C87    O167    1.298   .     A
C87    C88     1.456   .     S
C87    O161    1.294   .     A
C88    C115    1.406   .     A
C88    C112    1.404   .     A
C89    N153    1.373   .     A
C89    N149    1.429   .     S
C89    C608    1.432   1_545 S
C90    N147    1.373   .     A
C90    N150    1.429   .     S
C90    C349    1.432   .     S
C91    N153    1.367   .     A
C91    N151    1.431   .     S
C91    C606    1.432   1_545 S
C92    N147    1.367   .     A
C92    N152    1.431   .     S
C92    C347    1.432   .     S
C93    C99     1.451   .     S
C93    O171    1.296   .     A
C93    O168    1.292   .     A
C94    O169    1.292   .     A
C94    O170    1.295   .     A
C94    C97     1.451   .     S
C95    C106    1.411   .     A
C95    C97     1.397   .     A
C95    N154    1.439   .     S
C96    C107    1.412   .     A
C96    C99     1.398   .     A
C96    N155    1.438   .     S
C97    C100    1.405   .     A
C98    O165    1.293   .     A
C98    C116    1.460   .     S
C98    O166    1.301   .     A
C99    C101    1.404   .     A
C100   O172    1.385   .     S
C100   C102    1.418   .     A
C101   O162    1.384   .     S
C101   C103    1.414   .     A
C102   C108    1.426   .     A
C102   C104    1.429   .     A
C103   C110    1.421   .     A
C103   C105    1.427   .     A
C104   C106    1.425   .     A
C104   C879    1.417   .     S
C105   C107    1.423   .     A
C105   C878    1.417   1_554 S
C106   C111    1.416   .     A
C107   C109    1.414   .     A
C108   N156    1.437   .     S
C108   C883    1.406   .     S
C109   O163    1.387   .     S
C109   C882    1.406   1_554 S
C110   N157    1.438   .     S
C110   C885    1.404   1_554 S
C111   O164    1.386   .     S
C111   C884    1.404   .     S
C112   N158    1.431   .     S
C113   C116    1.408   .     A
C113   N159    1.432   .     S
C113   C201    1.401   .     S
C114   N160    1.438   .     S
C114   C116    1.414   .     A
C114   C198    1.393   .     S
C115   N148    1.438   .     S
Cu117  N147    2.025   .     S
Cu117  O166    1.978   .     S
Cu117  O168    1.966   .     S
Cu117  O161    1.970   .     S
Cu117  O170    1.966   .     S
Cu117  Cu118   2.695   .     S
Cu118  O167    1.978   .     S
Cu118  N153    2.025   .     S
Cu118  O169    1.966   .     S
Cu118  O165    1.970   .     S
Cu118  O171    1.966   .     S
H119   N154    1.045   .     S
H120   N157    1.045   .     S
H121   O163    0.988   .     S
H122   O164    0.989   .     S
H123   N158    1.046   .     S
H124   N158    1.046   .     S
H125   N159    1.045   .     S
H126   N159    1.045   .     S
H127   N160    1.044   .     S
H128   N160    1.045   .     S
H129   N148    1.045   .     S
H130   N154    1.046   .     S
H131   N148    1.045   .     S
H132   N149    1.045   .     S
H133   N149    1.042   .     S
H134   N150    1.045   .     S
H135   N150    1.042   .     S
H136   N151    1.045   .     S
H137   N151    1.045   .     S
H138   N152    1.045   .     S
H139   N152    1.045   .     S
H140   N155    1.044   .     S
H141   N155    1.046   .     S
H142   O172    0.988   .     S
H143   O162    0.988   .     S
H144   N156    1.045   .     S
H145   N156    1.045   .     S
H146   N157    1.046   .     S
C173   O253    1.298   .     A
C173   C174    1.456   .     S
C173   O247    1.294   .     A
C174   C201    1.406   .     A
C174   C198    1.404   .     A
C175   N239    1.373   .     A
C175   N235    1.429   .     S
C175   C694    1.432   1_545 S
C176   N233    1.373   .     A
C176   N236    1.429   .     S
C176   C435    1.432   .     S
C177   N239    1.367   .     A
C177   N237    1.431   .     S
C177   C692    1.432   1_545 S
C178   N233    1.367   .     A
C178   N238    1.431   .     S
C178   C433    1.432   .     S
C179   C185    1.451   .     S
C179   O257    1.296   .     A
C179   O254    1.292   .     A
C180   O255    1.292   .     A
C180   O256    1.295   .     A
C180   C183    1.451   .     S
C181   C192    1.411   .     A
C181   C183    1.397   .     A
C181   N240    1.439   .     S
C182   C193    1.412   .     A
C182   C185    1.398   .     A
C182   N241    1.438   .     S
C183   C186    1.405   .     A
C184   O251    1.293   .     A
C184   C202    1.460   .     S
C184   O252    1.301   .     A
C185   C187    1.404   .     A
C186   O258    1.385   .     S
C186   C188    1.418   .     A
C187   O248    1.384   .     S
C187   C189    1.414   .     A
C188   C194    1.426   .     A
C188   C190    1.429   .     A
C189   C196    1.421   .     A
C189   C191    1.427   .     A
C190   C192    1.425   .     A
C190   C965    1.417   .     S
C191   C193    1.423   .     A
C191   C964    1.417   1_554 S
C192   C197    1.416   .     A
C193   C195    1.414   .     A
C194   N242    1.437   .     S
C194   C969    1.406   .     S
C195   O249    1.387   .     S
C195   C968    1.406   1_554 S
C196   N243    1.438   .     S
C196   C971    1.404   1_554 S
C197   O250    1.386   .     S
C197   C970    1.404   .     S
C198   N244    1.431   .     S
C199   C202    1.408   .     A
C199   N245    1.432   .     S
C199   C29     1.401   1_655 S
C200   N246    1.438   .     S
C200   C202    1.414   .     A
C200   C26     1.393   1_655 S
C201   N234    1.438   .     S
Cu203  N233    2.025   .     S
Cu203  O252    1.978   .     S
Cu203  O254    1.966   .     S
Cu203  O247    1.970   .     S
Cu203  O256    1.966   .     S
Cu203  Cu204   2.695   .     S
Cu204  O253    1.978   .     S
Cu204  N239    2.025   .     S
Cu204  O255    1.966   .     S
Cu204  O251    1.970   .     S
Cu204  O257    1.966   .     S
H205   N240    1.045   .     S
H206   N243    1.045   .     S
H207   O249    0.988   .     S
H208   O250    0.989   .     S
H209   N244    1.046   .     S
H210   N244    1.046   .     S
H211   N245    1.045   .     S
H212   N245    1.045   .     S
H213   N246    1.044   .     S
H214   N246    1.045   .     S
H215   N234    1.045   .     S
H216   N240    1.046   .     S
H217   N234    1.045   .     S
H218   N235    1.045   .     S
H219   N235    1.042   .     S
H220   N236    1.045   .     S
H221   N236    1.042   .     S
H222   N237    1.045   .     S
H223   N237    1.045   .     S
H224   N238    1.045   .     S
H225   N238    1.045   .     S
H226   N241    1.044   .     S
H227   N241    1.046   .     S
H228   O258    0.988   .     S
H229   O248    0.988   .     S
H230   N242    1.045   .     S
H231   N242    1.045   .     S
H232   N243    1.046   .     S
C259   O339    1.298   .     A
C259   C260    1.456   .     S
C259   O333    1.294   .     A
C260   C287    1.406   .     A
C260   C284    1.404   .     A
C261   N325    1.373   .     A
C261   N321    1.429   .     S
C262   N319    1.373   .     A
C262   N322    1.429   .     S
C262   C521    1.432   .     S
C263   N325    1.367   .     A
C263   N323    1.431   .     S
C264   N319    1.367   .     A
C264   N324    1.431   .     S
C264   C519    1.432   .     S
C265   C271    1.451   .     S
C265   O343    1.296   .     A
C265   O340    1.292   .     A
C266   O341    1.292   .     A
C266   O342    1.295   .     A
C266   C269    1.451   .     S
C267   C278    1.411   .     A
C267   C269    1.397   .     A
C267   N326    1.439   .     S
C268   C279    1.412   .     A
C268   C271    1.398   .     A
C268   N327    1.438   .     S
C269   C272    1.405   .     A
C270   O337    1.293   .     A
C270   C288    1.460   .     S
C270   O338    1.301   .     A
C271   C273    1.404   .     A
C272   O344    1.385   .     S
C272   C274    1.418   .     A
C273   O334    1.384   .     S
C273   C275    1.414   .     A
C274   C280    1.426   .     A
C274   C276    1.429   .     A
C275   C282    1.421   .     A
C275   C277    1.427   .     A
C276   C278    1.425   .     A
C276   C1051   1.417   .     S
C277   C279    1.423   .     A
C277   C1050   1.417   1_554 S
C278   C283    1.416   .     A
C279   C281    1.414   .     A
C280   N328    1.437   .     S
C280   C1055   1.406   .     S
C281   O335    1.387   .     S
C281   C1054   1.406   1_554 S
C282   N329    1.438   .     S
C282   C1057   1.404   1_554 S
C283   O336    1.386   .     S
C283   C1056   1.404   .     S
C284   N330    1.431   .     S
C284   C458    1.393   1_455 S
C285   C288    1.408   .     A
C285   N331    1.432   .     S
C285   C373    1.401   .     S
C286   N332    1.438   .     S
C286   C288    1.414   .     A
C286   C370    1.393   .     S
C287   N320    1.438   .     S
C287   C457    1.401   1_455 S
Cu289  N319    2.025   .     S
Cu289  O338    1.978   .     S
Cu289  O340    1.966   .     S
Cu289  O333    1.970   .     S
Cu289  O342    1.966   .     S
Cu289  Cu290   2.695   .     S
Cu290  O339    1.978   .     S
Cu290  N325    2.025   .     S
Cu290  O341    1.966   .     S
Cu290  O337    1.970   .     S
Cu290  O343    1.966   .     S
H291   N326    1.045   .     S
H292   N329    1.045   .     S
H293   O335    0.988   .     S
H294   O336    0.989   .     S
H295   N330    1.046   .     S
H296   N330    1.046   .     S
H297   N331    1.045   .     S
H298   N331    1.045   .     S
H299   N332    1.044   .     S
H300   N332    1.045   .     S
H301   N320    1.045   .     S
H302   N326    1.046   .     S
H303   N320    1.045   .     S
H304   N321    1.045   .     S
H305   N321    1.042   .     S
H306   N322    1.045   .     S
H307   N322    1.042   .     S
H308   N323    1.045   .     S
H309   N323    1.045   .     S
H310   N324    1.045   .     S
H311   N324    1.045   .     S
H312   N327    1.044   .     S
H313   N327    1.046   .     S
H314   O344    0.988   .     S
H315   O334    0.988   .     S
H316   N328    1.045   .     S
H317   N328    1.045   .     S
H318   N329    1.046   .     S
C345   O425    1.298   .     A
C345   C346    1.456   .     S
C345   O419    1.294   .     A
C346   C373    1.406   .     A
C346   C370    1.404   .     A
C347   N411    1.373   .     A
C347   N407    1.429   .     S
C348   N405    1.373   .     A
C348   N408    1.429   .     S
C348   C607    1.432   .     S
C349   N411    1.367   .     A
C349   N409    1.431   .     S
C350   N405    1.367   .     A
C350   N410    1.431   .     S
C350   C605    1.432   .     S
C351   C357    1.451   .     S
C351   O429    1.296   .     A
C351   O426    1.292   .     A
C352   O427    1.292   .     A
C352   O428    1.295   .     A
C352   C355    1.451   .     S
C353   C364    1.411   .     A
C353   C355    1.397   .     A
C353   N412    1.439   .     S
C354   C365    1.412   .     A
C354   C357    1.398   .     A
C354   N413    1.438   .     S
C355   C358    1.405   .     A
C356   O423    1.293   .     A
C356   C374    1.460   .     S
C356   O424    1.301   .     A
C357   C359    1.404   .     A
C358   O430    1.385   .     S
C358   C360    1.418   .     A
C359   O420    1.384   .     S
C359   C361    1.414   .     A
C360   C366    1.426   .     A
C360   C362    1.429   .     A
C361   C368    1.421   .     A
C361   C363    1.427   .     A
C362   C364    1.425   .     A
C362   C1137   1.417   .     S
C363   C365    1.423   .     A
C363   C1136   1.417   1_554 S
C364   C369    1.416   .     A
C365   C367    1.414   .     A
C366   N414    1.437   .     S
C366   C1141   1.406   .     S
C367   O421    1.387   .     S
C367   C1140   1.406   1_554 S
C368   N415    1.438   .     S
C368   C1143   1.404   1_554 S
C369   O422    1.386   .     S
C369   C1142   1.404   .     S
C370   N416    1.431   .     S
C371   C374    1.408   .     A
C371   N417    1.432   .     S
C371   C459    1.401   .     S
C372   N418    1.438   .     S
C372   C374    1.414   .     A
C372   C456    1.393   .     S
C373   N406    1.438   .     S
Cu375  N405    2.025   .     S
Cu375  O424    1.978   .     S
Cu375  O426    1.966   .     S
Cu375  O419    1.970   .     S
Cu375  O428    1.966   .     S
Cu375  Cu376   2.695   .     S
Cu376  O425    1.978   .     S
Cu376  N411    2.025   .     S
Cu376  O427    1.966   .     S
Cu376  O423    1.970   .     S
Cu376  O429    1.966   .     S
H377   N412    1.045   .     S
H378   N415    1.045   .     S
H379   O421    0.988   .     S
H380   O422    0.989   .     S
H381   N416    1.046   .     S
H382   N416    1.046   .     S
H383   N417    1.045   .     S
H384   N417    1.045   .     S
H385   N418    1.044   .     S
H386   N418    1.045   .     S
H387   N406    1.045   .     S
H388   N412    1.046   .     S
H389   N406    1.045   .     S
H390   N407    1.045   .     S
H391   N407    1.042   .     S
H392   N408    1.045   .     S
H393   N408    1.042   .     S
H394   N409    1.045   .     S
H395   N409    1.045   .     S
H396   N410    1.045   .     S
H397   N410    1.045   .     S
H398   N413    1.044   .     S
H399   N413    1.046   .     S
H400   O430    0.988   .     S
H401   O420    0.988   .     S
H402   N414    1.045   .     S
H403   N414    1.045   .     S
H404   N415    1.046   .     S
C431   O511    1.298   .     A
C431   C432    1.456   .     S
C431   O505    1.294   .     A
C432   C459    1.406   .     A
C432   C456    1.404   .     A
C433   N497    1.373   .     A
C433   N493    1.429   .     S
C434   N491    1.373   .     A
C434   N494    1.429   .     S
C434   C693    1.432   .     S
C435   N497    1.367   .     A
C435   N495    1.431   .     S
C436   N491    1.367   .     A
C436   N496    1.431   .     S
C436   C691    1.432   .     S
C437   C443    1.451   .     S
C437   O515    1.296   .     A
C437   O512    1.292   .     A
C438   O513    1.292   .     A
C438   O514    1.295   .     A
C438   C441    1.451   .     S
C439   C450    1.411   .     A
C439   C441    1.397   .     A
C439   N498    1.439   .     S
C440   C451    1.412   .     A
C440   C443    1.398   .     A
C440   N499    1.438   .     S
C441   C444    1.405   .     A
C442   O509    1.293   .     A
C442   C460    1.460   .     S
C442   O510    1.301   .     A
C443   C445    1.404   .     A
C444   O516    1.385   .     S
C444   C446    1.418   .     A
C445   O506    1.384   .     S
C445   C447    1.414   .     A
C446   C452    1.426   .     A
C446   C448    1.429   .     A
C447   C454    1.421   .     A
C447   C449    1.427   .     A
C448   C450    1.425   .     A
C448   C1223   1.417   .     S
C449   C451    1.423   .     A
C449   C1222   1.417   1_554 S
C450   C455    1.416   .     A
C451   C453    1.414   .     A
C452   N500    1.437   .     S
C452   C1227   1.406   .     S
C453   O507    1.387   .     S
C453   C1226   1.406   1_554 S
C454   N501    1.438   .     S
C454   C1229   1.404   1_554 S
C455   O508    1.386   .     S
C455   C1228   1.404   .     S
C456   N502    1.431   .     S
C457   C460    1.408   .     A
C457   N503    1.432   .     S
C457   C287    1.401   1_655 S
C458   N504    1.438   .     S
C458   C460    1.414   .     A
C458   C284    1.393   1_655 S
C459   N492    1.438   .     S
Cu461  N491    2.025   .     S
Cu461  O510    1.978   .     S
Cu461  O512    1.966   .     S
Cu461  O505    1.970   .     S
Cu461  O514    1.966   .     S
Cu461  Cu462   2.695   .     S
Cu462  O511    1.978   .     S
Cu462  N497    2.025   .     S
Cu462  O513    1.966   .     S
Cu462  O509    1.970   .     S
Cu462  O515    1.966   .     S
H463   N498    1.045   .     S
H464   N501    1.045   .     S
H465   O507    0.988   .     S
H466   O508    0.989   .     S
H467   N502    1.046   .     S
H468   N502    1.046   .     S
H469   N503    1.045   .     S
H470   N503    1.045   .     S
H471   N504    1.044   .     S
H472   N504    1.045   .     S
H473   N492    1.045   .     S
H474   N498    1.046   .     S
H475   N492    1.045   .     S
H476   N493    1.045   .     S
H477   N493    1.042   .     S
H478   N494    1.045   .     S
H479   N494    1.042   .     S
H480   N495    1.045   .     S
H481   N495    1.045   .     S
H482   N496    1.045   .     S
H483   N496    1.045   .     S
H484   N499    1.044   .     S
H485   N499    1.046   .     S
H486   O516    0.988   .     S
H487   O506    0.988   .     S
H488   N500    1.045   .     S
H489   N500    1.045   .     S
H490   N501    1.046   .     S
C517   O597    1.298   .     A
C517   C518    1.456   .     S
C517   O591    1.294   .     A
C518   C545    1.406   .     A
C518   C542    1.404   .     A
C519   N583    1.373   .     A
C519   N579    1.429   .     S
C520   N577    1.373   .     A
C520   N580    1.429   .     S
C520   C5      1.432   1_565 S
C521   N583    1.367   .     A
C521   N581    1.431   .     S
C522   N577    1.367   .     A
C522   N582    1.431   .     S
C522   C3      1.432   1_565 S
C523   C529    1.451   .     S
C523   O601    1.296   .     A
C523   O598    1.292   .     A
C524   O599    1.292   .     A
C524   O600    1.295   .     A
C524   C527    1.451   .     S
C525   C536    1.411   .     A
C525   C527    1.397   .     A
C525   N584    1.439   .     S
C526   C537    1.412   .     A
C526   C529    1.398   .     A
C526   N585    1.438   .     S
C527   C530    1.405   .     A
C528   O595    1.293   .     A
C528   C546    1.460   .     S
C528   O596    1.301   .     A
C529   C531    1.404   .     A
C530   O602    1.385   .     S
C530   C532    1.418   .     A
C531   O592    1.384   .     S
C531   C533    1.414   .     A
C532   C538    1.426   .     A
C532   C534    1.429   .     A
C533   C540    1.421   .     A
C533   C535    1.427   .     A
C534   C536    1.425   .     A
C534   C1309   1.417   .     S
C535   C537    1.423   .     A
C535   C1308   1.417   1_554 S
C536   C541    1.416   .     A
C537   C539    1.414   .     A
C538   N586    1.437   .     S
C538   C1313   1.406   .     S
C539   O593    1.387   .     S
C539   C1312   1.406   1_554 S
C540   N587    1.438   .     S
C540   C1315   1.404   1_554 S
C541   O594    1.386   .     S
C541   C1314   1.404   .     S
C542   N588    1.431   .     S
C542   C716    1.393   1_455 S
C543   C546    1.408   .     A
C543   N589    1.432   .     S
C543   C631    1.401   .     S
C544   N590    1.438   .     S
C544   C546    1.414   .     A
C544   C628    1.393   .     S
C545   N578    1.438   .     S
C545   C715    1.401   1_455 S
Cu547  N577    2.025   .     S
Cu547  O596    1.978   .     S
Cu547  O598    1.966   .     S
Cu547  O591    1.970   .     S
Cu547  O600    1.966   .     S
Cu547  Cu548   2.695   .     S
Cu548  O597    1.978   .     S
Cu548  N583    2.025   .     S
Cu548  O599    1.966   .     S
Cu548  O595    1.970   .     S
Cu548  O601    1.966   .     S
H549   N584    1.045   .     S
H550   N587    1.045   .     S
H551   O593    0.988   .     S
H552   O594    0.989   .     S
H553   N588    1.046   .     S
H554   N588    1.046   .     S
H555   N589    1.045   .     S
H556   N589    1.045   .     S
H557   N590    1.044   .     S
H558   N590    1.045   .     S
H559   N578    1.045   .     S
H560   N584    1.046   .     S
H561   N578    1.045   .     S
H562   N579    1.045   .     S
H563   N579    1.042   .     S
H564   N580    1.045   .     S
H565   N580    1.042   .     S
H566   N581    1.045   .     S
H567   N581    1.045   .     S
H568   N582    1.045   .     S
H569   N582    1.045   .     S
H570   N585    1.044   .     S
H571   N585    1.046   .     S
H572   O602    0.988   .     S
H573   O592    0.988   .     S
H574   N586    1.045   .     S
H575   N586    1.045   .     S
H576   N587    1.046   .     S
C603   O683    1.298   .     A
C603   C604    1.456   .     S
C603   O677    1.294   .     A
C604   C631    1.406   .     A
C604   C628    1.404   .     A
C605   N669    1.373   .     A
C605   N665    1.429   .     S
C606   N663    1.373   .     A
C606   N666    1.429   .     S
C606   C91     1.432   1_565 S
C607   N669    1.367   .     A
C607   N667    1.431   .     S
C608   N663    1.367   .     A
C608   N668    1.431   .     S
C608   C89     1.432   1_565 S
C609   C615    1.451   .     S
C609   O687    1.296   .     A
C609   O684    1.292   .     A
C610   O685    1.292   .     A
C610   O686    1.295   .     A
C610   C613    1.451   .     S
C611   C622    1.411   .     A
C611   C613    1.397   .     A
C611   N670    1.439   .     S
C612   C623    1.412   .     A
C612   C615    1.398   .     A
C612   N671    1.438   .     S
C613   C616    1.405   .     A
C614   O681    1.293   .     A
C614   C632    1.460   .     S
C614   O682    1.301   .     A
C615   C617    1.404   .     A
C616   O688    1.385   .     S
C616   C618    1.418   .     A
C617   O678    1.384   .     S
C617   C619    1.414   .     A
C618   C624    1.426   .     A
C618   C620    1.429   .     A
C619   C626    1.421   .     A
C619   C621    1.427   .     A
C620   C622    1.425   .     A
C620   C1395   1.417   .     S
C621   C623    1.423   .     A
C621   C1394   1.417   1_554 S
C622   C627    1.416   .     A
C623   C625    1.414   .     A
C624   N672    1.437   .     S
C624   C1399   1.406   .     S
C625   O679    1.387   .     S
C625   C1398   1.406   1_554 S
C626   N673    1.438   .     S
C626   C1401   1.404   1_554 S
C627   O680    1.386   .     S
C627   C1400   1.404   .     S
C628   N674    1.431   .     S
C629   C632    1.408   .     A
C629   N675    1.432   .     S
C629   C717    1.401   .     S
C630   N676    1.438   .     S
C630   C632    1.414   .     A
C630   C714    1.393   .     S
C631   N664    1.438   .     S
Cu633  N663    2.025   .     S
Cu633  O682    1.978   .     S
Cu633  O684    1.966   .     S
Cu633  O677    1.970   .     S
Cu633  O686    1.966   .     S
Cu633  Cu634   2.695   .     S
Cu634  O683    1.978   .     S
Cu634  N669    2.025   .     S
Cu634  O685    1.966   .     S
Cu634  O681    1.970   .     S
Cu634  O687    1.966   .     S
H635   N670    1.045   .     S
H636   N673    1.045   .     S
H637   O679    0.988   .     S
H638   O680    0.989   .     S
H639   N674    1.046   .     S
H640   N674    1.046   .     S
H641   N675    1.045   .     S
H642   N675    1.045   .     S
H643   N676    1.044   .     S
H644   N676    1.045   .     S
H645   N664    1.045   .     S
H646   N670    1.046   .     S
H647   N664    1.045   .     S
H648   N665    1.045   .     S
H649   N665    1.042   .     S
H650   N666    1.045   .     S
H651   N666    1.042   .     S
H652   N667    1.045   .     S
H653   N667    1.045   .     S
H654   N668    1.045   .     S
H655   N668    1.045   .     S
H656   N671    1.044   .     S
H657   N671    1.046   .     S
H658   O688    0.988   .     S
H659   O678    0.988   .     S
H660   N672    1.045   .     S
H661   N672    1.045   .     S
H662   N673    1.046   .     S
C689   O769    1.298   .     A
C689   C690    1.456   .     S
C689   O763    1.294   .     A
C690   C717    1.406   .     A
C690   C714    1.404   .     A
C691   N755    1.373   .     A
C691   N751    1.429   .     S
C692   N749    1.373   .     A
C692   N752    1.429   .     S
C692   C177    1.432   1_565 S
C693   N755    1.367   .     A
C693   N753    1.431   .     S
C694   N749    1.367   .     A
C694   N754    1.431   .     S
C694   C175    1.432   1_565 S
C695   C701    1.451   .     S
C695   O773    1.296   .     A
C695   O770    1.292   .     A
C696   O771    1.292   .     A
C696   O772    1.295   .     A
C696   C699    1.451   .     S
C697   C708    1.411   .     A
C697   C699    1.397   .     A
C697   N756    1.439   .     S
C698   C709    1.412   .     A
C698   C701    1.398   .     A
C698   N757    1.438   .     S
C699   C702    1.405   .     A
C700   O767    1.293   .     A
C700   C718    1.460   .     S
C700   O768    1.301   .     A
C701   C703    1.404   .     A
C702   O774    1.385   .     S
C702   C704    1.418   .     A
C703   O764    1.384   .     S
C703   C705    1.414   .     A
C704   C710    1.426   .     A
C704   C706    1.429   .     A
C705   C712    1.421   .     A
C705   C707    1.427   .     A
C706   C708    1.425   .     A
C706   C1481   1.417   .     S
C707   C709    1.423   .     A
C707   C1480   1.417   1_554 S
C708   C713    1.416   .     A
C709   C711    1.414   .     A
C710   N758    1.437   .     S
C710   C1485   1.406   .     S
C711   O765    1.387   .     S
C711   C1484   1.406   1_554 S
C712   N759    1.438   .     S
C712   C1487   1.404   1_554 S
C713   O766    1.386   .     S
C713   C1486   1.404   .     S
C714   N760    1.431   .     S
C715   C718    1.408   .     A
C715   N761    1.432   .     S
C715   C545    1.401   1_655 S
C716   N762    1.438   .     S
C716   C718    1.414   .     A
C716   C542    1.393   1_655 S
C717   N750    1.438   .     S
Cu719  N749    2.025   .     S
Cu719  O768    1.978   .     S
Cu719  O770    1.966   .     S
Cu719  O763    1.970   .     S
Cu719  O772    1.966   .     S
Cu719  Cu720   2.695   .     S
Cu720  O769    1.978   .     S
Cu720  N755    2.025   .     S
Cu720  O771    1.966   .     S
Cu720  O767    1.970   .     S
Cu720  O773    1.966   .     S
H721   N756    1.045   .     S
H722   N759    1.045   .     S
H723   O765    0.988   .     S
H724   O766    0.989   .     S
H725   N760    1.046   .     S
H726   N760    1.046   .     S
H727   N761    1.045   .     S
H728   N761    1.045   .     S
H729   N762    1.044   .     S
H730   N762    1.045   .     S
H731   N750    1.045   .     S
H732   N756    1.046   .     S
H733   N750    1.045   .     S
H734   N751    1.045   .     S
H735   N751    1.042   .     S
H736   N752    1.045   .     S
H737   N752    1.042   .     S
H738   N753    1.045   .     S
H739   N753    1.045   .     S
H740   N754    1.045   .     S
H741   N754    1.045   .     S
H742   N757    1.044   .     S
H743   N757    1.046   .     S
H744   O774    0.988   .     S
H745   O764    0.988   .     S
H746   N758    1.045   .     S
H747   N758    1.045   .     S
H748   N759    1.046   .     S
C775   O855    1.298   .     A
C775   C776    1.456   .     S
C775   O849    1.294   .     A
C776   C803    1.406   .     A
C776   C800    1.404   .     A
C777   N841    1.373   .     A
C777   N837    1.429   .     S
C777   C1296   1.432   1_545 S
C778   N835    1.373   .     A
C778   N838    1.429   .     S
C778   C1037   1.432   .     S
C779   N841    1.367   .     A
C779   N839    1.431   .     S
C779   C1294   1.432   1_545 S
C780   N835    1.367   .     A
C780   N840    1.431   .     S
C780   C1035   1.432   .     S
C781   C787    1.451   .     S
C781   O859    1.296   .     A
C781   O856    1.292   .     A
C782   O857    1.292   .     A
C782   O858    1.295   .     A
C782   C785    1.451   .     S
C783   C794    1.411   .     A
C783   C785    1.397   .     A
C783   N842    1.439   .     S
C784   C795    1.412   .     A
C784   C787    1.398   .     A
C784   N843    1.438   .     S
C785   C788    1.405   .     A
C786   O853    1.293   .     A
C786   C804    1.460   .     S
C786   O854    1.301   .     A
C787   C789    1.404   .     A
C788   O860    1.385   .     S
C788   C790    1.418   .     A
C789   O850    1.384   .     S
C789   C791    1.414   .     A
C790   C796    1.426   .     A
C790   C792    1.429   .     A
C791   C798    1.421   .     A
C791   C793    1.427   .     A
C792   C794    1.425   .     A
C792   C19     1.417   1_556 S
C793   C795    1.423   .     A
C794   C799    1.416   .     A
C795   C797    1.414   .     A
C796   N844    1.437   .     S
C796   C23     1.406   1_556 S
C797   O851    1.387   .     S
C798   N845    1.438   .     S
C799   O852    1.386   .     S
C799   C24     1.404   1_556 S
C800   N846    1.431   .     S
C800   C974    1.393   1_455 S
C801   C804    1.408   .     A
C801   N847    1.432   .     S
C801   C889    1.401   .     S
C802   N848    1.438   .     S
C802   C804    1.414   .     A
C802   C886    1.393   .     S
C803   N836    1.438   .     S
C803   C973    1.401   1_455 S
Cu805  N835    2.025   .     S
Cu805  O854    1.978   .     S
Cu805  O856    1.966   .     S
Cu805  O849    1.970   .     S
Cu805  O858    1.966   .     S
Cu805  Cu806   2.695   .     S
Cu806  O855    1.978   .     S
Cu806  N841    2.025   .     S
Cu806  O857    1.966   .     S
Cu806  O853    1.970   .     S
Cu806  O859    1.966   .     S
H807   N842    1.045   .     S
H808   N845    1.045   .     S
H809   O851    0.988   .     S
H810   O852    0.989   .     S
H811   N846    1.046   .     S
H812   N846    1.046   .     S
H813   N847    1.045   .     S
H814   N847    1.045   .     S
H815   N848    1.044   .     S
H816   N848    1.045   .     S
H817   N836    1.045   .     S
H818   N842    1.046   .     S
H819   N836    1.045   .     S
H820   N837    1.045   .     S
H821   N837    1.042   .     S
H822   N838    1.045   .     S
H823   N838    1.042   .     S
H824   N839    1.045   .     S
H825   N839    1.045   .     S
H826   N840    1.045   .     S
H827   N840    1.045   .     S
H828   N843    1.044   .     S
H829   N843    1.046   .     S
H830   O860    0.988   .     S
H831   O850    0.988   .     S
H832   N844    1.045   .     S
H833   N844    1.045   .     S
H834   N845    1.046   .     S
C861   O941    1.298   .     A
C861   C862    1.456   .     S
C861   O935    1.294   .     A
C862   C889    1.406   .     A
C862   C886    1.404   .     A
C863   N927    1.373   .     A
C863   N923    1.429   .     S
C863   C1382   1.432   1_545 S
C864   N921    1.373   .     A
C864   N924    1.429   .     S
C864   C1123   1.432   .     S
C865   N927    1.367   .     A
C865   N925    1.431   .     S
C865   C1380   1.432   1_545 S
C866   N921    1.367   .     A
C866   N926    1.431   .     S
C866   C1121   1.432   .     S
C867   C873    1.451   .     S
C867   O945    1.296   .     A
C867   O942    1.292   .     A
C868   O943    1.292   .     A
C868   O944    1.295   .     A
C868   C871    1.451   .     S
C869   C880    1.411   .     A
C869   C871    1.397   .     A
C869   N928    1.439   .     S
C870   C881    1.412   .     A
C870   C873    1.398   .     A
C870   N929    1.438   .     S
C871   C874    1.405   .     A
C872   O939    1.293   .     A
C872   C890    1.460   .     S
C872   O940    1.301   .     A
C873   C875    1.404   .     A
C874   O946    1.385   .     S
C874   C876    1.418   .     A
C875   O936    1.384   .     S
C875   C877    1.414   .     A
C876   C882    1.426   .     A
C876   C878    1.429   .     A
C877   C884    1.421   .     A
C877   C879    1.427   .     A
C878   C880    1.425   .     A
C878   C105    1.417   1_556 S
C879   C881    1.423   .     A
C880   C885    1.416   .     A
C881   C883    1.414   .     A
C882   N930    1.437   .     S
C882   C109    1.406   1_556 S
C883   O937    1.387   .     S
C884   N931    1.438   .     S
C885   O938    1.386   .     S
C885   C110    1.404   1_556 S
C886   N932    1.431   .     S
C887   C890    1.408   .     A
C887   N933    1.432   .     S
C887   C975    1.401   .     S
C888   N934    1.438   .     S
C888   C890    1.414   .     A
C888   C972    1.393   .     S
C889   N922    1.438   .     S
Cu891  N921    2.025   .     S
Cu891  O940    1.978   .     S
Cu891  O942    1.966   .     S
Cu891  O935    1.970   .     S
Cu891  O944    1.966   .     S
Cu891  Cu892   2.695   .     S
Cu892  O941    1.978   .     S
Cu892  N927    2.025   .     S
Cu892  O943    1.966   .     S
Cu892  O939    1.970   .     S
Cu892  O945    1.966   .     S
H893   N928    1.045   .     S
H894   N931    1.045   .     S
H895   O937    0.988   .     S
H896   O938    0.989   .     S
H897   N932    1.046   .     S
H898   N932    1.046   .     S
H899   N933    1.045   .     S
H900   N933    1.045   .     S
H901   N934    1.044   .     S
H902   N934    1.045   .     S
H903   N922    1.045   .     S
H904   N928    1.046   .     S
H905   N922    1.045   .     S
H906   N923    1.045   .     S
H907   N923    1.042   .     S
H908   N924    1.045   .     S
H909   N924    1.042   .     S
H910   N925    1.045   .     S
H911   N925    1.045   .     S
H912   N926    1.045   .     S
H913   N926    1.045   .     S
H914   N929    1.044   .     S
H915   N929    1.046   .     S
H916   O946    0.988   .     S
H917   O936    0.988   .     S
H918   N930    1.045   .     S
H919   N930    1.045   .     S
H920   N931    1.046   .     S
C947   O1027   1.298   .     A
C947   C948    1.456   .     S
C947   O1021   1.294   .     A
C948   C975    1.406   .     A
C948   C972    1.404   .     A
C949   N1013   1.373   .     A
C949   N1009   1.429   .     S
C949   C1468   1.432   1_545 S
C950   N1007   1.373   .     A
C950   N1010   1.429   .     S
C950   C1209   1.432   .     S
C951   N1013   1.367   .     A
C951   N1011   1.431   .     S
C951   C1466   1.432   1_545 S
C952   N1007   1.367   .     A
C952   N1012   1.431   .     S
C952   C1207   1.432   .     S
C953   C959    1.451   .     S
C953   O1031   1.296   .     A
C953   O1028   1.292   .     A
C954   O1029   1.292   .     A
C954   O1030   1.295   .     A
C954   C957    1.451   .     S
C955   C966    1.411   .     A
C955   C957    1.397   .     A
C955   N1014   1.439   .     S
C956   C967    1.412   .     A
C956   C959    1.398   .     A
C956   N1015   1.438   .     S
C957   C960    1.405   .     A
C958   O1025   1.293   .     A
C958   C976    1.460   .     S
C958   O1026   1.301   .     A
C959   C961    1.404   .     A
C960   O1032   1.385   .     S
C960   C962    1.418   .     A
C961   O1022   1.384   .     S
C961   C963    1.414   .     A
C962   C968    1.426   .     A
C962   C964    1.429   .     A
C963   C970    1.421   .     A
C963   C965    1.427   .     A
C964   C966    1.425   .     A
C964   C191    1.417   1_556 S
C965   C967    1.423   .     A
C966   C971    1.416   .     A
C967   C969    1.414   .     A
C968   N1016   1.437   .     S
C968   C195    1.406   1_556 S
C969   O1023   1.387   .     S
C970   N1017   1.438   .     S
C971   O1024   1.386   .     S
C971   C196    1.404   1_556 S
C972   N1018   1.431   .     S
C973   C976    1.408   .     A
C973   N1019   1.432   .     S
C973   C803    1.401   1_655 S
C974   N1020   1.438   .     S
C974   C976    1.414   .     A
C974   C800    1.393   1_655 S
C975   N1008   1.438   .     S
Cu977  N1007   2.025   .     S
Cu977  O1026   1.978   .     S
Cu977  O1028   1.966   .     S
Cu977  O1021   1.970   .     S
Cu977  O1030   1.966   .     S
Cu977  Cu978   2.695   .     S
Cu978  O1027   1.978   .     S
Cu978  N1013   2.025   .     S
Cu978  O1029   1.966   .     S
Cu978  O1025   1.970   .     S
Cu978  O1031   1.966   .     S
H979   N1014   1.045   .     S
H980   N1017   1.045   .     S
H981   O1023   0.988   .     S
H982   O1024   0.989   .     S
H983   N1018   1.046   .     S
H984   N1018   1.046   .     S
H985   N1019   1.045   .     S
H986   N1019   1.045   .     S
H987   N1020   1.044   .     S
H988   N1020   1.045   .     S
H989   N1008   1.045   .     S
H990   N1014   1.046   .     S
H991   N1008   1.045   .     S
H992   N1009   1.045   .     S
H993   N1009   1.042   .     S
H994   N1010   1.045   .     S
H995   N1010   1.042   .     S
H996   N1011   1.045   .     S
H997   N1011   1.045   .     S
H998   N1012   1.045   .     S
H999   N1012   1.045   .     S
H1000  N1015   1.044   .     S
H1001  N1015   1.046   .     S
H1002  O1032   0.988   .     S
H1003  O1022   0.988   .     S
H1004  N1016   1.045   .     S
H1005  N1016   1.045   .     S
H1006  N1017   1.046   .     S
C1033  O1113   1.298   .     A
C1033  C1034   1.456   .     S
C1033  O1107   1.294   .     A
C1034  C1061   1.406   .     A
C1034  C1058   1.404   .     A
C1035  N1099   1.373   .     A
C1035  N1095   1.429   .     S
C1036  N1093   1.373   .     A
C1036  N1096   1.429   .     S
C1036  C1295   1.432   .     S
C1037  N1099   1.367   .     A
C1037  N1097   1.431   .     S
C1038  N1093   1.367   .     A
C1038  N1098   1.431   .     S
C1038  C1293   1.432   .     S
C1039  C1045   1.451   .     S
C1039  O1117   1.296   .     A
C1039  O1114   1.292   .     A
C1040  O1115   1.292   .     A
C1040  O1116   1.295   .     A
C1040  C1043   1.451   .     S
C1041  C1052   1.411   .     A
C1041  C1043   1.397   .     A
C1041  N1100   1.439   .     S
C1042  C1053   1.412   .     A
C1042  C1045   1.398   .     A
C1042  N1101   1.438   .     S
C1043  C1046   1.405   .     A
C1044  O1111   1.293   .     A
C1044  C1062   1.460   .     S
C1044  O1112   1.301   .     A
C1045  C1047   1.404   .     A
C1046  O1118   1.385   .     S
C1046  C1048   1.418   .     A
C1047  O1108   1.384   .     S
C1047  C1049   1.414   .     A
C1048  C1054   1.426   .     A
C1048  C1050   1.429   .     A
C1049  C1056   1.421   .     A
C1049  C1051   1.427   .     A
C1050  C1052   1.425   .     A
C1050  C277    1.417   1_556 S
C1051  C1053   1.423   .     A
C1052  C1057   1.416   .     A
C1053  C1055   1.414   .     A
C1054  N1102   1.437   .     S
C1054  C281    1.406   1_556 S
C1055  O1109   1.387   .     S
C1056  N1103   1.438   .     S
C1057  O1110   1.386   .     S
C1057  C282    1.404   1_556 S
C1058  N1104   1.431   .     S
C1058  C1232   1.393   1_455 S
C1059  C1062   1.408   .     A
C1059  N1105   1.432   .     S
C1059  C1147   1.401   .     S
C1060  N1106   1.438   .     S
C1060  C1062   1.414   .     A
C1060  C1144   1.393   .     S
C1061  N1094   1.438   .     S
C1061  C1231   1.401   1_455 S
Cu1063 N1093   2.025   .     S
Cu1063 O1112   1.978   .     S
Cu1063 O1114   1.966   .     S
Cu1063 O1107   1.970   .     S
Cu1063 O1116   1.966   .     S
Cu1063 Cu1064  2.695   .     S
Cu1064 O1113   1.978   .     S
Cu1064 N1099   2.025   .     S
Cu1064 O1115   1.966   .     S
Cu1064 O1111   1.970   .     S
Cu1064 O1117   1.966   .     S
H1065  N1100   1.045   .     S
H1066  N1103   1.045   .     S
H1067  O1109   0.988   .     S
H1068  O1110   0.989   .     S
H1069  N1104   1.046   .     S
H1070  N1104   1.046   .     S
H1071  N1105   1.045   .     S
H1072  N1105   1.045   .     S
H1073  N1106   1.044   .     S
H1074  N1106   1.045   .     S
H1075  N1094   1.045   .     S
H1076  N1100   1.046   .     S
H1077  N1094   1.045   .     S
H1078  N1095   1.045   .     S
H1079  N1095   1.042   .     S
H1080  N1096   1.045   .     S
H1081  N1096   1.042   .     S
H1082  N1097   1.045   .     S
H1083  N1097   1.045   .     S
H1084  N1098   1.045   .     S
H1085  N1098   1.045   .     S
H1086  N1101   1.044   .     S
H1087  N1101   1.046   .     S
H1088  O1118   0.988   .     S
H1089  O1108   0.988   .     S
H1090  N1102   1.045   .     S
H1091  N1102   1.045   .     S
H1092  N1103   1.046   .     S
C1119  O1199   1.298   .     A
C1119  C1120   1.456   .     S
C1119  O1193   1.294   .     A
C1120  C1147   1.406   .     A
C1120  C1144   1.404   .     A
C1121  N1185   1.373   .     A
C1121  N1181   1.429   .     S
C1122  N1179   1.373   .     A
C1122  N1182   1.429   .     S
C1122  C1381   1.432   .     S
C1123  N1185   1.367   .     A
C1123  N1183   1.431   .     S
C1124  N1179   1.367   .     A
C1124  N1184   1.431   .     S
C1124  C1379   1.432   .     S
C1125  C1131   1.451   .     S
C1125  O1203   1.296   .     A
C1125  O1200   1.292   .     A
C1126  O1201   1.292   .     A
C1126  O1202   1.295   .     A
C1126  C1129   1.451   .     S
C1127  C1138   1.411   .     A
C1127  C1129   1.397   .     A
C1127  N1186   1.439   .     S
C1128  C1139   1.412   .     A
C1128  C1131   1.398   .     A
C1128  N1187   1.438   .     S
C1129  C1132   1.405   .     A
C1130  O1197   1.293   .     A
C1130  C1148   1.460   .     S
C1130  O1198   1.301   .     A
C1131  C1133   1.404   .     A
C1132  O1204   1.385   .     S
C1132  C1134   1.418   .     A
C1133  O1194   1.384   .     S
C1133  C1135   1.414   .     A
C1134  C1140   1.426   .     A
C1134  C1136   1.429   .     A
C1135  C1142   1.421   .     A
C1135  C1137   1.427   .     A
C1136  C1138   1.425   .     A
C1136  C363    1.417   1_556 S
C1137  C1139   1.423   .     A
C1138  C1143   1.416   .     A
C1139  C1141   1.414   .     A
C1140  N1188   1.437   .     S
C1140  C367    1.406   1_556 S
C1141  O1195   1.387   .     S
C1142  N1189   1.438   .     S
C1143  O1196   1.386   .     S
C1143  C368    1.404   1_556 S
C1144  N1190   1.431   .     S
C1145  C1148   1.408   .     A
C1145  N1191   1.432   .     S
C1145  C1233   1.401   .     S
C1146  N1192   1.438   .     S
C1146  C1148   1.414   .     A
C1146  C1230   1.393   .     S
C1147  N1180   1.438   .     S
Cu1149 N1179   2.025   .     S
Cu1149 O1198   1.978   .     S
Cu1149 O1200   1.966   .     S
Cu1149 O1193   1.970   .     S
Cu1149 O1202   1.966   .     S
Cu1149 Cu1150  2.695   .     S
Cu1150 O1199   1.978   .     S
Cu1150 N1185   2.025   .     S
Cu1150 O1201   1.966   .     S
Cu1150 O1197   1.970   .     S
Cu1150 O1203   1.966   .     S
H1151  N1186   1.045   .     S
H1152  N1189   1.045   .     S
H1153  O1195   0.988   .     S
H1154  O1196   0.989   .     S
H1155  N1190   1.046   .     S
H1156  N1190   1.046   .     S
H1157  N1191   1.045   .     S
H1158  N1191   1.045   .     S
H1159  N1192   1.044   .     S
H1160  N1192   1.045   .     S
H1161  N1180   1.045   .     S
H1162  N1186   1.046   .     S
H1163  N1180   1.045   .     S
H1164  N1181   1.045   .     S
H1165  N1181   1.042   .     S
H1166  N1182   1.045   .     S
H1167  N1182   1.042   .     S
H1168  N1183   1.045   .     S
H1169  N1183   1.045   .     S
H1170  N1184   1.045   .     S
H1171  N1184   1.045   .     S
H1172  N1187   1.044   .     S
H1173  N1187   1.046   .     S
H1174  O1204   0.988   .     S
H1175  O1194   0.988   .     S
H1176  N1188   1.045   .     S
H1177  N1188   1.045   .     S
H1178  N1189   1.046   .     S
C1205  O1285   1.298   .     A
C1205  C1206   1.456   .     S
C1205  O1279   1.294   .     A
C1206  C1233   1.406   .     A
C1206  C1230   1.404   .     A
C1207  N1271   1.373   .     A
C1207  N1267   1.429   .     S
C1208  N1265   1.373   .     A
C1208  N1268   1.429   .     S
C1208  C1467   1.432   .     S
C1209  N1271   1.367   .     A
C1209  N1269   1.431   .     S
C1210  N1265   1.367   .     A
C1210  N1270   1.431   .     S
C1210  C1465   1.432   .     S
C1211  C1217   1.451   .     S
C1211  O1289   1.296   .     A
C1211  O1286   1.292   .     A
C1212  O1287   1.292   .     A
C1212  O1288   1.295   .     A
C1212  C1215   1.451   .     S
C1213  C1224   1.411   .     A
C1213  C1215   1.397   .     A
C1213  N1272   1.439   .     S
C1214  C1225   1.412   .     A
C1214  C1217   1.398   .     A
C1214  N1273   1.438   .     S
C1215  C1218   1.405   .     A
C1216  O1283   1.293   .     A
C1216  C1234   1.460   .     S
C1216  O1284   1.301   .     A
C1217  C1219   1.404   .     A
C1218  O1290   1.385   .     S
C1218  C1220   1.418   .     A
C1219  O1280   1.384   .     S
C1219  C1221   1.414   .     A
C1220  C1226   1.426   .     A
C1220  C1222   1.429   .     A
C1221  C1228   1.421   .     A
C1221  C1223   1.427   .     A
C1222  C1224   1.425   .     A
C1222  C449    1.417   1_556 S
C1223  C1225   1.423   .     A
C1224  C1229   1.416   .     A
C1225  C1227   1.414   .     A
C1226  N1274   1.437   .     S
C1226  C453    1.406   1_556 S
C1227  O1281   1.387   .     S
C1228  N1275   1.438   .     S
C1229  O1282   1.386   .     S
C1229  C454    1.404   1_556 S
C1230  N1276   1.431   .     S
C1231  C1234   1.408   .     A
C1231  N1277   1.432   .     S
C1231  C1061   1.401   1_655 S
C1232  N1278   1.438   .     S
C1232  C1234   1.414   .     A
C1232  C1058   1.393   1_655 S
C1233  N1266   1.438   .     S
Cu1235 N1265   2.025   .     S
Cu1235 O1284   1.978   .     S
Cu1235 O1286   1.966   .     S
Cu1235 O1279   1.970   .     S
Cu1235 O1288   1.966   .     S
Cu1235 Cu1236  2.695   .     S
Cu1236 O1285   1.978   .     S
Cu1236 N1271   2.025   .     S
Cu1236 O1287   1.966   .     S
Cu1236 O1283   1.970   .     S
Cu1236 O1289   1.966   .     S
H1237  N1272   1.045   .     S
H1238  N1275   1.045   .     S
H1239  O1281   0.988   .     S
H1240  O1282   0.989   .     S
H1241  N1276   1.046   .     S
H1242  N1276   1.046   .     S
H1243  N1277   1.045   .     S
H1244  N1277   1.045   .     S
H1245  N1278   1.044   .     S
H1246  N1278   1.045   .     S
H1247  N1266   1.045   .     S
H1248  N1272   1.046   .     S
H1249  N1266   1.045   .     S
H1250  N1267   1.045   .     S
H1251  N1267   1.042   .     S
H1252  N1268   1.045   .     S
H1253  N1268   1.042   .     S
H1254  N1269   1.045   .     S
H1255  N1269   1.045   .     S
H1256  N1270   1.045   .     S
H1257  N1270   1.045   .     S
H1258  N1273   1.044   .     S
H1259  N1273   1.046   .     S
H1260  O1290   0.988   .     S
H1261  O1280   0.988   .     S
H1262  N1274   1.045   .     S
H1263  N1274   1.045   .     S
H1264  N1275   1.046   .     S
C1291  O1371   1.298   .     A
C1291  C1292   1.456   .     S
C1291  O1365   1.294   .     A
C1292  C1319   1.406   .     A
C1292  C1316   1.404   .     A
C1293  N1357   1.373   .     A
C1293  N1353   1.429   .     S
C1294  N1351   1.373   .     A
C1294  N1354   1.429   .     S
C1294  C779    1.432   1_565 S
C1295  N1357   1.367   .     A
C1295  N1355   1.431   .     S
C1296  N1351   1.367   .     A
C1296  N1356   1.431   .     S
C1296  C777    1.432   1_565 S
C1297  C1303   1.451   .     S
C1297  O1375   1.296   .     A
C1297  O1372   1.292   .     A
C1298  O1373   1.292   .     A
C1298  O1374   1.295   .     A
C1298  C1301   1.451   .     S
C1299  C1310   1.411   .     A
C1299  C1301   1.397   .     A
C1299  N1358   1.439   .     S
C1300  C1311   1.412   .     A
C1300  C1303   1.398   .     A
C1300  N1359   1.438   .     S
C1301  C1304   1.405   .     A
C1302  O1369   1.293   .     A
C1302  C1320   1.460   .     S
C1302  O1370   1.301   .     A
C1303  C1305   1.404   .     A
C1304  O1376   1.385   .     S
C1304  C1306   1.418   .     A
C1305  O1366   1.384   .     S
C1305  C1307   1.414   .     A
C1306  C1312   1.426   .     A
C1306  C1308   1.429   .     A
C1307  C1314   1.421   .     A
C1307  C1309   1.427   .     A
C1308  C1310   1.425   .     A
C1308  C535    1.417   1_556 S
C1309  C1311   1.423   .     A
C1310  C1315   1.416   .     A
C1311  C1313   1.414   .     A
C1312  N1360   1.437   .     S
C1312  C539    1.406   1_556 S
C1313  O1367   1.387   .     S
C1314  N1361   1.438   .     S
C1315  O1368   1.386   .     S
C1315  C540    1.404   1_556 S
C1316  N1362   1.431   .     S
C1316  C1490   1.393   1_455 S
C1317  C1320   1.408   .     A
C1317  N1363   1.432   .     S
C1317  C1405   1.401   .     S
C1318  N1364   1.438   .     S
C1318  C1320   1.414   .     A
C1318  C1402   1.393   .     S
C1319  N1352   1.438   .     S
C1319  C1489   1.401   1_455 S
Cu1321 N1351   2.025   .     S
Cu1321 O1370   1.978   .     S
Cu1321 O1372   1.966   .     S
Cu1321 O1365   1.970   .     S
Cu1321 O1374   1.966   .     S
Cu1321 Cu1322  2.695   .     S
Cu1322 O1371   1.978   .     S
Cu1322 N1357   2.025   .     S
Cu1322 O1373   1.966   .     S
Cu1322 O1369   1.970   .     S
Cu1322 O1375   1.966   .     S
H1323  N1358   1.045   .     S
H1324  N1361   1.045   .     S
H1325  O1367   0.988   .     S
H1326  O1368   0.989   .     S
H1327  N1362   1.046   .     S
H1328  N1362   1.046   .     S
H1329  N1363   1.045   .     S
H1330  N1363   1.045   .     S
H1331  N1364   1.044   .     S
H1332  N1364   1.045   .     S
H1333  N1352   1.045   .     S
H1334  N1358   1.046   .     S
H1335  N1352   1.045   .     S
H1336  N1353   1.045   .     S
H1337  N1353   1.042   .     S
H1338  N1354   1.045   .     S
H1339  N1354   1.042   .     S
H1340  N1355   1.045   .     S
H1341  N1355   1.045   .     S
H1342  N1356   1.045   .     S
H1343  N1356   1.045   .     S
H1344  N1359   1.044   .     S
H1345  N1359   1.046   .     S
H1346  O1376   0.988   .     S
H1347  O1366   0.988   .     S
H1348  N1360   1.045   .     S
H1349  N1360   1.045   .     S
H1350  N1361   1.046   .     S
C1377  O1457   1.298   .     A
C1377  C1378   1.456   .     S
C1377  O1451   1.294   .     A
C1378  C1405   1.406   .     A
C1378  C1402   1.404   .     A
C1379  N1443   1.373   .     A
C1379  N1439   1.429   .     S
C1380  N1437   1.373   .     A
C1380  N1440   1.429   .     S
C1380  C865    1.432   1_565 S
C1381  N1443   1.367   .     A
C1381  N1441   1.431   .     S
C1382  N1437   1.367   .     A
C1382  N1442   1.431   .     S
C1382  C863    1.432   1_565 S
C1383  C1389   1.451   .     S
C1383  O1461   1.296   .     A
C1383  O1458   1.292   .     A
C1384  O1459   1.292   .     A
C1384  O1460   1.295   .     A
C1384  C1387   1.451   .     S
C1385  C1396   1.411   .     A
C1385  C1387   1.397   .     A
C1385  N1444   1.439   .     S
C1386  C1397   1.412   .     A
C1386  C1389   1.398   .     A
C1386  N1445   1.438   .     S
C1387  C1390   1.405   .     A
C1388  O1455   1.293   .     A
C1388  C1406   1.460   .     S
C1388  O1456   1.301   .     A
C1389  C1391   1.404   .     A
C1390  O1462   1.385   .     S
C1390  C1392   1.418   .     A
C1391  O1452   1.384   .     S
C1391  C1393   1.414   .     A
C1392  C1398   1.426   .     A
C1392  C1394   1.429   .     A
C1393  C1400   1.421   .     A
C1393  C1395   1.427   .     A
C1394  C1396   1.425   .     A
C1394  C621    1.417   1_556 S
C1395  C1397   1.423   .     A
C1396  C1401   1.416   .     A
C1397  C1399   1.414   .     A
C1398  N1446   1.437   .     S
C1398  C625    1.406   1_556 S
C1399  O1453   1.387   .     S
C1400  N1447   1.438   .     S
C1401  O1454   1.386   .     S
C1401  C626    1.404   1_556 S
C1402  N1448   1.431   .     S
C1403  C1406   1.408   .     A
C1403  N1449   1.432   .     S
C1403  C1491   1.401   .     S
C1404  N1450   1.438   .     S
C1404  C1406   1.414   .     A
C1404  C1488   1.393   .     S
C1405  N1438   1.438   .     S
Cu1407 N1437   2.025   .     S
Cu1407 O1456   1.978   .     S
Cu1407 O1458   1.966   .     S
Cu1407 O1451   1.970   .     S
Cu1407 O1460   1.966   .     S
Cu1407 Cu1408  2.695   .     S
Cu1408 O1457   1.978   .     S
Cu1408 N1443   2.025   .     S
Cu1408 O1459   1.966   .     S
Cu1408 O1455   1.970   .     S
Cu1408 O1461   1.966   .     S
H1409  N1444   1.045   .     S
H1410  N1447   1.045   .     S
H1411  O1453   0.988   .     S
H1412  O1454   0.989   .     S
H1413  N1448   1.046   .     S
H1414  N1448   1.046   .     S
H1415  N1449   1.045   .     S
H1416  N1449   1.045   .     S
H1417  N1450   1.044   .     S
H1418  N1450   1.045   .     S
H1419  N1438   1.045   .     S
H1420  N1444   1.046   .     S
H1421  N1438   1.045   .     S
H1422  N1439   1.045   .     S
H1423  N1439   1.042   .     S
H1424  N1440   1.045   .     S
H1425  N1440   1.042   .     S
H1426  N1441   1.045   .     S
H1427  N1441   1.045   .     S
H1428  N1442   1.045   .     S
H1429  N1442   1.045   .     S
H1430  N1445   1.044   .     S
H1431  N1445   1.046   .     S
H1432  O1462   0.988   .     S
H1433  O1452   0.988   .     S
H1434  N1446   1.045   .     S
H1435  N1446   1.045   .     S
H1436  N1447   1.046   .     S
C1463  O1543   1.298   .     A
C1463  C1464   1.456   .     S
C1463  O1537   1.294   .     A
C1464  C1491   1.406   .     A
C1464  C1488   1.404   .     A
C1465  N1529   1.373   .     A
C1465  N1525   1.429   .     S
C1466  N1523   1.373   .     A
C1466  N1526   1.429   .     S
C1466  C951    1.432   1_565 S
C1467  N1529   1.367   .     A
C1467  N1527   1.431   .     S
C1468  N1523   1.367   .     A
C1468  N1528   1.431   .     S
C1468  C949    1.432   1_565 S
C1469  C1475   1.451   .     S
C1469  O1547   1.296   .     A
C1469  O1544   1.292   .     A
C1470  O1545   1.292   .     A
C1470  O1546   1.295   .     A
C1470  C1473   1.451   .     S
C1471  C1482   1.411   .     A
C1471  C1473   1.397   .     A
C1471  N1530   1.439   .     S
C1472  C1483   1.412   .     A
C1472  C1475   1.398   .     A
C1472  N1531   1.438   .     S
C1473  C1476   1.405   .     A
C1474  O1541   1.293   .     A
C1474  C1492   1.460   .     S
C1474  O1542   1.301   .     A
C1475  C1477   1.404   .     A
C1476  O1548   1.385   .     S
C1476  C1478   1.418   .     A
C1477  O1538   1.384   .     S
C1477  C1479   1.414   .     A
C1478  C1484   1.426   .     A
C1478  C1480   1.429   .     A
C1479  C1486   1.421   .     A
C1479  C1481   1.427   .     A
C1480  C1482   1.425   .     A
C1480  C707    1.417   1_556 S
C1481  C1483   1.423   .     A
C1482  C1487   1.416   .     A
C1483  C1485   1.414   .     A
C1484  N1532   1.437   .     S
C1484  C711    1.406   1_556 S
C1485  O1539   1.387   .     S
C1486  N1533   1.438   .     S
C1487  O1540   1.386   .     S
C1487  C712    1.404   1_556 S
C1488  N1534   1.431   .     S
C1489  C1492   1.408   .     A
C1489  N1535   1.432   .     S
C1489  C1319   1.401   1_655 S
C1490  N1536   1.438   .     S
C1490  C1492   1.414   .     A
C1490  C1316   1.393   1_655 S
C1491  N1524   1.438   .     S
Cu1493 N1523   2.025   .     S
Cu1493 O1542   1.978   .     S
Cu1493 O1544   1.966   .     S
Cu1493 O1537   1.970   .     S
Cu1493 O1546   1.966   .     S
Cu1493 Cu1494  2.695   .     S
Cu1494 O1543   1.978   .     S
Cu1494 N1529   2.025   .     S
Cu1494 O1545   1.966   .     S
Cu1494 O1541   1.970   .     S
Cu1494 O1547   1.966   .     S
H1495  N1530   1.045   .     S
H1496  N1533   1.045   .     S
H1497  O1539   0.988   .     S
H1498  O1540   0.989   .     S
H1499  N1534   1.046   .     S
H1500  N1534   1.046   .     S
H1501  N1535   1.045   .     S
H1502  N1535   1.045   .     S
H1503  N1536   1.044   .     S
H1504  N1536   1.045   .     S
H1505  N1524   1.045   .     S
H1506  N1530   1.046   .     S
H1507  N1524   1.045   .     S
H1508  N1525   1.045   .     S
H1509  N1525   1.042   .     S
H1510  N1526   1.045   .     S
H1511  N1526   1.042   .     S
H1512  N1527   1.045   .     S
H1513  N1527   1.045   .     S
H1514  N1528   1.045   .     S
H1515  N1528   1.045   .     S
H1516  N1531   1.044   .     S
H1517  N1531   1.046   .     S
H1518  O1548   0.988   .     S
H1519  O1538   0.988   .     S
H1520  N1532   1.045   .     S
H1521  N1532   1.045   .     S
H1522  N1533   1.046   .     S
