data_str_m3_o1_o17_pcu_sym.150
_audit_creation_date              2020-01-03
_audit_creation_method            'Materials Studio'
_symmetry_space_group_name_H-M    'P1'
_symmetry_Int_Tables_number       1
_symmetry_cell_setting            triclinic
loop_
_symmetry_equiv_pos_as_xyz
  x,y,z
_cell_length_a                    32.0470
_cell_length_b                    30.0406
_cell_length_c                    29.8168
_cell_angle_alpha                 90.1974
_cell_angle_beta                  93.6707
_cell_angle_gamma                 89.8752
loop_
_atom_site_label
_atom_site_type_symbol
_atom_site_fract_x
_atom_site_fract_y
_atom_site_fract_z
_atom_site_U_iso_or_equiv
_atom_site_adp_type
_atom_site_occupancy
O1     O     0.10559   0.20487   0.25000   0.00000  Uiso   1.00
O2     O     0.22774   0.12846   0.25001   0.00000  Uiso   1.00
O3     O     0.22774   0.20487   0.25001   0.00000  Uiso   1.00
O4     O     0.10559   0.12846   0.25000   0.00000  Uiso   1.00
C5     C     0.08682   0.16670   0.24995   0.00000  Uiso   1.00
C6     C     0.24651   0.16664   0.25005   0.00000  Uiso   1.00
O7     O     0.16666   0.20489   0.18393   0.00000  Uiso   1.00
O8     O     0.16667   0.12844   0.31608   0.00000  Uiso   1.00
O9     O     0.16667   0.20489   0.31608   0.00000  Uiso   1.00
O10    O     0.16666   0.12844   0.18393   0.00000  Uiso   1.00
C11    C     0.16620   0.16659   0.16383   0.00000  Uiso   1.00
C12    C     0.16714   0.16674   0.33617   0.00000  Uiso   1.00
Zn13   Zn    0.16667   0.21771   0.25000   0.00000  Uiso   1.00
Zn14   Zn    0.16667   0.11563   0.25000   0.00000  Uiso   1.00
C15    C     0.20681   0.16232   0.40930   0.00000  Uiso   1.00
C16    C     0.12652   0.17101   0.09070   0.00000  Uiso   1.00
C17    C     0.16875   0.16694   0.38388   0.00000  Uiso   1.00
C18    C     0.16459   0.16639   0.11612   0.00000  Uiso   1.00
C19    C     0.13092   0.17162   0.40328   0.00000  Uiso   1.00
C20    C     0.20241   0.16171   0.09672   0.00000  Uiso   1.00
C21    C     0.12914   0.17122   0.44965   0.00000  Uiso   1.00
C22    C     0.20420   0.16210   0.05035   0.00000  Uiso   1.00
C23    C     0.16709   0.16670   0.47652   0.00000  Uiso   1.00
C24    C     0.16624   0.16663   0.02348   0.00000  Uiso   1.00
C25    C     0.20595   0.16222   0.45640   0.00000  Uiso   1.00
C26    C     0.12738   0.17111   0.04360   0.00000  Uiso   1.00
C27    C     0.09045   0.17534   0.46970   0.00000  Uiso   1.00
C28    C     0.24288   0.15799   0.03030   0.00000  Uiso   1.00
C29    C     0.09025   0.17544   0.01632   0.00000  Uiso   1.00
C30    C     0.24309   0.15788   0.48368   0.00000  Uiso   1.00
H31    H     0.10299   0.17522   0.38121   0.00000  Uiso   1.00
H32    H     0.23034   0.15811   0.11879   0.00000  Uiso   1.00
H33    H     0.06037   0.17861   0.03097   0.00000  Uiso   1.00
H34    H     0.27296   0.15471   0.46903   0.00000  Uiso   1.00
C35    C     0.02244   0.12927   0.26582   0.00000  Uiso   1.00
C36    C     0.31090   0.20406   0.23418   0.00000  Uiso   1.00
C37    C     0.31300   0.12925   0.26585   0.00000  Uiso   1.00
C38    C     0.02034   0.20408   0.23415   0.00000  Uiso   1.00
H39    H     0.03966   0.10039   0.27853   0.00000  Uiso   1.00
H40    H     0.29367   0.23295   0.22147   0.00000  Uiso   1.00
H41    H     0.29748   0.10039   0.27858   0.00000  Uiso   1.00
H42    H     0.03585   0.23295   0.22142   0.00000  Uiso   1.00
C43    C     0.29074   0.16663   0.25002   0.00000  Uiso   1.00
C44    C     0.04259   0.16670   0.24998   0.00000  Uiso   1.00
C45    C     0.19336   0.02390   0.27921   0.00000  Uiso   1.00
C46    C     0.13997   0.30944   0.22079   0.00000  Uiso   1.00
C47    C     0.13990   0.02387   0.22087   0.00000  Uiso   1.00
C48    C     0.19343   0.30947   0.27913   0.00000  Uiso   1.00
N49    N     0.16667   0.28573   0.25000   0.00000  Uiso   1.00
N50    N     0.16667   0.04760   0.25000   0.00000  Uiso   1.00
C51    C     0.24778   0.15777   0.38656   0.00000  Uiso   1.00
H52    H     0.26241   0.12518   0.39546   0.00000  Uiso   1.00
H53    H     0.24435   0.15931   0.34943   0.00000  Uiso   1.00
H54    H     0.26920   0.18526   0.39760   0.00000  Uiso   1.00
C55    C     0.08555   0.17556   0.11344   0.00000  Uiso   1.00
H56    H     0.07092   0.20815   0.10454   0.00000  Uiso   1.00
H57    H     0.06413   0.14807   0.10240   0.00000  Uiso   1.00
H58    H     0.08899   0.17402   0.15057   0.00000  Uiso   1.00
C59    C     0.04865   0.17924   0.44284   0.00000  Uiso   1.00
C60    C     0.03414   0.13409   0.42405   0.00000  Uiso   1.00
H61    H     0.05806   0.11855   0.40368   0.00000  Uiso   1.00
H62    H     0.02758   0.11134   0.45202   0.00000  Uiso   1.00
H63    H     0.00509   0.13849   0.40226   0.00000  Uiso   1.00
H64    H     0.02406   0.19201   0.46428   0.00000  Uiso   1.00
H65    H     0.05033   0.20403   0.41550   0.00000  Uiso   1.00
C66    C     0.28468   0.15407   0.05716   0.00000  Uiso   1.00
C67    C     0.29920   0.19922   0.07595   0.00000  Uiso   1.00
H68    H     0.30578   0.22196   0.04798   0.00000  Uiso   1.00
H69    H     0.27528   0.21478   0.09630   0.00000  Uiso   1.00
H70    H     0.32824   0.19481   0.09776   0.00000  Uiso   1.00
H71    H     0.28300   0.12929   0.08450   0.00000  Uiso   1.00
H72    H     0.30926   0.14130   0.03572   0.00000  Uiso   1.00
C73    C     0.22325   0.04748   0.31261   0.00000  Uiso   1.00
H74    H     0.22286   0.08346   0.31016   0.00000  Uiso   1.00
H75    H     0.21555   0.03939   0.34741   0.00000  Uiso   1.00
H76    H     0.25591   0.03735   0.30751   0.00000  Uiso   1.00
C77    C     0.11008   0.28585   0.18739   0.00000  Uiso   1.00
H78    H     0.11048   0.24987   0.18984   0.00000  Uiso   1.00
H79    H     0.07743   0.29599   0.19249   0.00000  Uiso   1.00
H80    H     0.11778   0.29394   0.15259   0.00000  Uiso   1.00
C81    C     0.10935   0.04744   0.18818   0.00000  Uiso   1.00
H82    H     0.11084   0.08346   0.18946   0.00000  Uiso   1.00
H83    H     0.11530   0.03797   0.15315   0.00000  Uiso   1.00
H84    H     0.07680   0.03868   0.19523   0.00000  Uiso   1.00
C85    C     0.22398   0.28590   0.31182   0.00000  Uiso   1.00
H86    H     0.22250   0.24987   0.31054   0.00000  Uiso   1.00
H87    H     0.25653   0.29466   0.30477   0.00000  Uiso   1.00
H88    H     0.21803   0.29536   0.34685   0.00000  Uiso   1.00
O89    O     0.43892   0.20487   0.25000   0.00000  Uiso   1.00
O90    O     0.56108   0.12846   0.25001   0.00000  Uiso   1.00
O91    O     0.56108   0.20487   0.25001   0.00000  Uiso   1.00
O92    O     0.43892   0.12846   0.25000   0.00000  Uiso   1.00
C93    C     0.42015   0.16670   0.24995   0.00000  Uiso   1.00
C94    C     0.57985   0.16664   0.25005   0.00000  Uiso   1.00
O95    O     0.49999   0.20489   0.18393   0.00000  Uiso   1.00
O96    O     0.50001   0.12844   0.31608   0.00000  Uiso   1.00
O97    O     0.50001   0.20489   0.31608   0.00000  Uiso   1.00
O98    O     0.49999   0.12844   0.18393   0.00000  Uiso   1.00
C99    C     0.49953   0.16659   0.16383   0.00000  Uiso   1.00
C100   C     0.50047   0.16674   0.33617   0.00000  Uiso   1.00
Zn101  Zn    0.50000   0.21771   0.25000   0.00000  Uiso   1.00
Zn102  Zn    0.50000   0.11563   0.25000   0.00000  Uiso   1.00
C103   C     0.54014   0.16232   0.40930   0.00000  Uiso   1.00
C104   C     0.45986   0.17101   0.09070   0.00000  Uiso   1.00
C105   C     0.50208   0.16694   0.38388   0.00000  Uiso   1.00
C106   C     0.49792   0.16639   0.11612   0.00000  Uiso   1.00
C107   C     0.46425   0.17162   0.40328   0.00000  Uiso   1.00
C108   C     0.53575   0.16171   0.09672   0.00000  Uiso   1.00
C109   C     0.46247   0.17122   0.44965   0.00000  Uiso   1.00
C110   C     0.53753   0.16210   0.05035   0.00000  Uiso   1.00
C111   C     0.50043   0.16670   0.47652   0.00000  Uiso   1.00
C112   C     0.49957   0.16663   0.02348   0.00000  Uiso   1.00
C113   C     0.53928   0.16222   0.45640   0.00000  Uiso   1.00
C114   C     0.46072   0.17111   0.04360   0.00000  Uiso   1.00
C115   C     0.42378   0.17534   0.46970   0.00000  Uiso   1.00
C116   C     0.57622   0.15799   0.03030   0.00000  Uiso   1.00
C117   C     0.42358   0.17544   0.01632   0.00000  Uiso   1.00
C118   C     0.57642   0.15788   0.48368   0.00000  Uiso   1.00
H119   H     0.43632   0.17522   0.38121   0.00000  Uiso   1.00
H120   H     0.56368   0.15811   0.11879   0.00000  Uiso   1.00
H121   H     0.39371   0.17861   0.03097   0.00000  Uiso   1.00
H122   H     0.60629   0.15471   0.46903   0.00000  Uiso   1.00
C123   C     0.35577   0.12927   0.26582   0.00000  Uiso   1.00
C124   C     0.64423   0.20406   0.23418   0.00000  Uiso   1.00
C125   C     0.64633   0.12925   0.26585   0.00000  Uiso   1.00
C126   C     0.35367   0.20408   0.23415   0.00000  Uiso   1.00
H127   H     0.37300   0.10039   0.27853   0.00000  Uiso   1.00
H128   H     0.62700   0.23295   0.22147   0.00000  Uiso   1.00
H129   H     0.63081   0.10039   0.27858   0.00000  Uiso   1.00
H130   H     0.36919   0.23295   0.22142   0.00000  Uiso   1.00
C131   C     0.62408   0.16663   0.25002   0.00000  Uiso   1.00
C132   C     0.37592   0.16670   0.24998   0.00000  Uiso   1.00
C133   C     0.52669   0.02390   0.27921   0.00000  Uiso   1.00
C134   C     0.47331   0.30944   0.22079   0.00000  Uiso   1.00
C135   C     0.47324   0.02387   0.22087   0.00000  Uiso   1.00
C136   C     0.52676   0.30947   0.27913   0.00000  Uiso   1.00
N137   N     0.50000   0.28573   0.25000   0.00000  Uiso   1.00
N138   N     0.50000   0.04760   0.25000   0.00000  Uiso   1.00
C139   C     0.58112   0.15777   0.38656   0.00000  Uiso   1.00
H140   H     0.59574   0.12518   0.39546   0.00000  Uiso   1.00
H141   H     0.57768   0.15931   0.34943   0.00000  Uiso   1.00
H142   H     0.60254   0.18526   0.39760   0.00000  Uiso   1.00
C143   C     0.41888   0.17556   0.11344   0.00000  Uiso   1.00
H144   H     0.40425   0.20815   0.10454   0.00000  Uiso   1.00
H145   H     0.39747   0.14807   0.10240   0.00000  Uiso   1.00
H146   H     0.42232   0.17402   0.15057   0.00000  Uiso   1.00
C147   C     0.38198   0.17924   0.44284   0.00000  Uiso   1.00
C148   C     0.36747   0.13409   0.42405   0.00000  Uiso   1.00
H149   H     0.39139   0.11855   0.40368   0.00000  Uiso   1.00
H150   H     0.36092   0.11134   0.45202   0.00000  Uiso   1.00
H151   H     0.33843   0.13849   0.40226   0.00000  Uiso   1.00
H152   H     0.35740   0.19201   0.46428   0.00000  Uiso   1.00
H153   H     0.38366   0.20403   0.41550   0.00000  Uiso   1.00
C154   C     0.61801   0.15407   0.05716   0.00000  Uiso   1.00
C155   C     0.63253   0.19922   0.07595   0.00000  Uiso   1.00
H156   H     0.63912   0.22196   0.04798   0.00000  Uiso   1.00
H157   H     0.60861   0.21478   0.09630   0.00000  Uiso   1.00
H158   H     0.66157   0.19481   0.09776   0.00000  Uiso   1.00
H159   H     0.61633   0.12929   0.08450   0.00000  Uiso   1.00
H160   H     0.64260   0.14130   0.03572   0.00000  Uiso   1.00
C161   C     0.55658   0.04748   0.31261   0.00000  Uiso   1.00
H162   H     0.55619   0.08346   0.31016   0.00000  Uiso   1.00
H163   H     0.54889   0.03939   0.34741   0.00000  Uiso   1.00
H164   H     0.58924   0.03735   0.30751   0.00000  Uiso   1.00
C165   C     0.44342   0.28585   0.18739   0.00000  Uiso   1.00
H166   H     0.44381   0.24987   0.18984   0.00000  Uiso   1.00
H167   H     0.41076   0.29599   0.19249   0.00000  Uiso   1.00
H168   H     0.45111   0.29394   0.15259   0.00000  Uiso   1.00
C169   C     0.44268   0.04744   0.18818   0.00000  Uiso   1.00
H170   H     0.44417   0.08346   0.18946   0.00000  Uiso   1.00
H171   H     0.44863   0.03797   0.15315   0.00000  Uiso   1.00
H172   H     0.41014   0.03868   0.19523   0.00000  Uiso   1.00
C173   C     0.55732   0.28590   0.31182   0.00000  Uiso   1.00
H174   H     0.55583   0.24987   0.31054   0.00000  Uiso   1.00
H175   H     0.58986   0.29466   0.30477   0.00000  Uiso   1.00
H176   H     0.55137   0.29536   0.34685   0.00000  Uiso   1.00
O177   O     0.77226   0.20487   0.25000   0.00000  Uiso   1.00
O178   O     0.89441   0.12846   0.25001   0.00000  Uiso   1.00
O179   O     0.89441   0.20487   0.25001   0.00000  Uiso   1.00
O180   O     0.77226   0.12846   0.25000   0.00000  Uiso   1.00
C181   C     0.75349   0.16670   0.24995   0.00000  Uiso   1.00
C182   C     0.91318   0.16664   0.25005   0.00000  Uiso   1.00
O183   O     0.83333   0.20489   0.18393   0.00000  Uiso   1.00
O184   O     0.83334   0.12844   0.31608   0.00000  Uiso   1.00
O185   O     0.83334   0.20489   0.31608   0.00000  Uiso   1.00
O186   O     0.83333   0.12844   0.18393   0.00000  Uiso   1.00
C187   C     0.83286   0.16659   0.16383   0.00000  Uiso   1.00
C188   C     0.83380   0.16674   0.33617   0.00000  Uiso   1.00
Zn189  Zn    0.83333   0.21771   0.25000   0.00000  Uiso   1.00
Zn190  Zn    0.83333   0.11563   0.25000   0.00000  Uiso   1.00
C191   C     0.87348   0.16232   0.40930   0.00000  Uiso   1.00
C192   C     0.79319   0.17101   0.09070   0.00000  Uiso   1.00
C193   C     0.83541   0.16694   0.38388   0.00000  Uiso   1.00
C194   C     0.83126   0.16639   0.11612   0.00000  Uiso   1.00
C195   C     0.79759   0.17162   0.40328   0.00000  Uiso   1.00
C196   C     0.86908   0.16171   0.09672   0.00000  Uiso   1.00
C197   C     0.79580   0.17122   0.44965   0.00000  Uiso   1.00
C198   C     0.87086   0.16210   0.05035   0.00000  Uiso   1.00
C199   C     0.83376   0.16670   0.47652   0.00000  Uiso   1.00
C200   C     0.83291   0.16663   0.02348   0.00000  Uiso   1.00
C201   C     0.87261   0.16222   0.45640   0.00000  Uiso   1.00
C202   C     0.79405   0.17111   0.04360   0.00000  Uiso   1.00
C203   C     0.75711   0.17534   0.46970   0.00000  Uiso   1.00
C204   C     0.90955   0.15799   0.03030   0.00000  Uiso   1.00
C205   C     0.75691   0.17544   0.01632   0.00000  Uiso   1.00
C206   C     0.90975   0.15788   0.48368   0.00000  Uiso   1.00
H207   H     0.76966   0.17522   0.38121   0.00000  Uiso   1.00
H208   H     0.89701   0.15811   0.11879   0.00000  Uiso   1.00
H209   H     0.72704   0.17861   0.03097   0.00000  Uiso   1.00
H210   H     0.93963   0.15471   0.46903   0.00000  Uiso   1.00
C211   C     0.68910   0.12927   0.26582   0.00000  Uiso   1.00
C212   C     0.97756   0.20406   0.23418   0.00000  Uiso   1.00
C213   C     0.97966   0.12925   0.26585   0.00000  Uiso   1.00
C214   C     0.68700   0.20408   0.23415   0.00000  Uiso   1.00
H215   H     0.70633   0.10039   0.27853   0.00000  Uiso   1.00
H216   H     0.96034   0.23295   0.22147   0.00000  Uiso   1.00
H217   H     0.96415   0.10039   0.27858   0.00000  Uiso   1.00
H218   H     0.70252   0.23295   0.22142   0.00000  Uiso   1.00
C219   C     0.95741   0.16663   0.25002   0.00000  Uiso   1.00
C220   C     0.70926   0.16670   0.24998   0.00000  Uiso   1.00
C221   C     0.86003   0.02390   0.27921   0.00000  Uiso   1.00
C222   C     0.80664   0.30944   0.22079   0.00000  Uiso   1.00
C223   C     0.80657   0.02387   0.22087   0.00000  Uiso   1.00
C224   C     0.86010   0.30947   0.27913   0.00000  Uiso   1.00
N225   N     0.83333   0.28573   0.25000   0.00000  Uiso   1.00
N226   N     0.83333   0.04760   0.25000   0.00000  Uiso   1.00
C227   C     0.91445   0.15777   0.38656   0.00000  Uiso   1.00
H228   H     0.92908   0.12518   0.39546   0.00000  Uiso   1.00
H229   H     0.91101   0.15931   0.34943   0.00000  Uiso   1.00
H230   H     0.93587   0.18526   0.39760   0.00000  Uiso   1.00
C231   C     0.75222   0.17556   0.11344   0.00000  Uiso   1.00
H232   H     0.73759   0.20815   0.10454   0.00000  Uiso   1.00
H233   H     0.73080   0.14807   0.10240   0.00000  Uiso   1.00
H234   H     0.75565   0.17402   0.15057   0.00000  Uiso   1.00
C235   C     0.71532   0.17924   0.44284   0.00000  Uiso   1.00
C236   C     0.70081   0.13409   0.42405   0.00000  Uiso   1.00
H237   H     0.72473   0.11855   0.40368   0.00000  Uiso   1.00
H238   H     0.69425   0.11134   0.45202   0.00000  Uiso   1.00
H239   H     0.67176   0.13849   0.40226   0.00000  Uiso   1.00
H240   H     0.69073   0.19201   0.46428   0.00000  Uiso   1.00
H241   H     0.71700   0.20403   0.41550   0.00000  Uiso   1.00
C242   C     0.95135   0.15407   0.05716   0.00000  Uiso   1.00
C243   C     0.96587   0.19922   0.07595   0.00000  Uiso   1.00
H244   H     0.97245   0.22196   0.04798   0.00000  Uiso   1.00
H245   H     0.94194   0.21478   0.09630   0.00000  Uiso   1.00
H246   H     0.99490   0.19481   0.09776   0.00000  Uiso   1.00
H247   H     0.94966   0.12929   0.08450   0.00000  Uiso   1.00
H248   H     0.97593   0.14130   0.03572   0.00000  Uiso   1.00
C249   C     0.88992   0.04748   0.31261   0.00000  Uiso   1.00
H250   H     0.88952   0.08346   0.31016   0.00000  Uiso   1.00
H251   H     0.88222   0.03939   0.34741   0.00000  Uiso   1.00
H252   H     0.92257   0.03735   0.30751   0.00000  Uiso   1.00
C253   C     0.77675   0.28585   0.18739   0.00000  Uiso   1.00
H254   H     0.77714   0.24987   0.18984   0.00000  Uiso   1.00
H255   H     0.74409   0.29599   0.19249   0.00000  Uiso   1.00
H256   H     0.78445   0.29394   0.15259   0.00000  Uiso   1.00
C257   C     0.77602   0.04744   0.18818   0.00000  Uiso   1.00
H258   H     0.77750   0.08346   0.18946   0.00000  Uiso   1.00
H259   H     0.78197   0.03797   0.15315   0.00000  Uiso   1.00
H260   H     0.74347   0.03868   0.19523   0.00000  Uiso   1.00
C261   C     0.89065   0.28590   0.31182   0.00000  Uiso   1.00
H262   H     0.88916   0.24987   0.31054   0.00000  Uiso   1.00
H263   H     0.92320   0.29466   0.30477   0.00000  Uiso   1.00
H264   H     0.88470   0.29536   0.34685   0.00000  Uiso   1.00
O265   O     0.10559   0.53821   0.25000   0.00000  Uiso   1.00
O266   O     0.22774   0.46179   0.25001   0.00000  Uiso   1.00
O267   O     0.22774   0.53821   0.25001   0.00000  Uiso   1.00
O268   O     0.10559   0.46179   0.25000   0.00000  Uiso   1.00
C269   C     0.08682   0.50003   0.24995   0.00000  Uiso   1.00
C270   C     0.24651   0.49997   0.25005   0.00000  Uiso   1.00
O271   O     0.16666   0.53823   0.18393   0.00000  Uiso   1.00
O272   O     0.16667   0.46177   0.31608   0.00000  Uiso   1.00
O273   O     0.16667   0.53823   0.31608   0.00000  Uiso   1.00
O274   O     0.16666   0.46177   0.18393   0.00000  Uiso   1.00
C275   C     0.16620   0.49992   0.16383   0.00000  Uiso   1.00
C276   C     0.16714   0.50008   0.33617   0.00000  Uiso   1.00
Zn277  Zn    0.16667   0.55104   0.25000   0.00000  Uiso   1.00
Zn278  Zn    0.16667   0.44896   0.25000   0.00000  Uiso   1.00
C279   C     0.20681   0.49565   0.40930   0.00000  Uiso   1.00
C280   C     0.12652   0.50434   0.09070   0.00000  Uiso   1.00
C281   C     0.16875   0.50028   0.38388   0.00000  Uiso   1.00
C282   C     0.16459   0.49972   0.11612   0.00000  Uiso   1.00
C283   C     0.13092   0.50495   0.40328   0.00000  Uiso   1.00
C284   C     0.20241   0.49504   0.09672   0.00000  Uiso   1.00
C285   C     0.12914   0.50456   0.44965   0.00000  Uiso   1.00
C286   C     0.20420   0.49544   0.05035   0.00000  Uiso   1.00
C287   C     0.16709   0.50003   0.47652   0.00000  Uiso   1.00
C288   C     0.16624   0.49997   0.02348   0.00000  Uiso   1.00
C289   C     0.20595   0.49555   0.45640   0.00000  Uiso   1.00
C290   C     0.12738   0.50444   0.04360   0.00000  Uiso   1.00
C291   C     0.09045   0.50867   0.46970   0.00000  Uiso   1.00
C292   C     0.24288   0.49132   0.03030   0.00000  Uiso   1.00
C293   C     0.09025   0.50877   0.01632   0.00000  Uiso   1.00
C294   C     0.24309   0.49122   0.48368   0.00000  Uiso   1.00
H295   H     0.10299   0.50856   0.38121   0.00000  Uiso   1.00
H296   H     0.23034   0.49144   0.11879   0.00000  Uiso   1.00
H297   H     0.06037   0.51194   0.03097   0.00000  Uiso   1.00
H298   H     0.27296   0.48805   0.46903   0.00000  Uiso   1.00
C299   C     0.02244   0.46261   0.26582   0.00000  Uiso   1.00
C300   C     0.31090   0.53739   0.23418   0.00000  Uiso   1.00
C301   C     0.31300   0.46259   0.26585   0.00000  Uiso   1.00
C302   C     0.02034   0.53741   0.23415   0.00000  Uiso   1.00
H303   H     0.03966   0.43372   0.27853   0.00000  Uiso   1.00
H304   H     0.29367   0.56628   0.22147   0.00000  Uiso   1.00
H305   H     0.29748   0.43372   0.27858   0.00000  Uiso   1.00
H306   H     0.03585   0.56628   0.22142   0.00000  Uiso   1.00
C307   C     0.29074   0.49996   0.25002   0.00000  Uiso   1.00
C308   C     0.04259   0.50004   0.24998   0.00000  Uiso   1.00
C309   C     0.19336   0.35723   0.27921   0.00000  Uiso   1.00
C310   C     0.13997   0.64277   0.22079   0.00000  Uiso   1.00
C311   C     0.13990   0.35720   0.22087   0.00000  Uiso   1.00
C312   C     0.19343   0.64280   0.27913   0.00000  Uiso   1.00
N313   N     0.16667   0.61907   0.25000   0.00000  Uiso   1.00
N314   N     0.16667   0.38093   0.25000   0.00000  Uiso   1.00
C315   C     0.24778   0.49110   0.38656   0.00000  Uiso   1.00
H316   H     0.26241   0.45852   0.39546   0.00000  Uiso   1.00
H317   H     0.24435   0.49265   0.34943   0.00000  Uiso   1.00
H318   H     0.26920   0.51859   0.39760   0.00000  Uiso   1.00
C319   C     0.08555   0.50889   0.11344   0.00000  Uiso   1.00
H320   H     0.07092   0.54148   0.10454   0.00000  Uiso   1.00
H321   H     0.06413   0.48141   0.10240   0.00000  Uiso   1.00
H322   H     0.08899   0.50736   0.15057   0.00000  Uiso   1.00
C323   C     0.04865   0.51258   0.44284   0.00000  Uiso   1.00
C324   C     0.03414   0.46743   0.42405   0.00000  Uiso   1.00
H325   H     0.05806   0.45188   0.40368   0.00000  Uiso   1.00
H326   H     0.02758   0.44467   0.45202   0.00000  Uiso   1.00
H327   H     0.00509   0.47182   0.40226   0.00000  Uiso   1.00
H328   H     0.02406   0.52534   0.46428   0.00000  Uiso   1.00
H329   H     0.05033   0.53736   0.41550   0.00000  Uiso   1.00
C330   C     0.28468   0.48740   0.05716   0.00000  Uiso   1.00
C331   C     0.29920   0.53255   0.07595   0.00000  Uiso   1.00
H332   H     0.30578   0.55529   0.04798   0.00000  Uiso   1.00
H333   H     0.27528   0.54811   0.09630   0.00000  Uiso   1.00
H334   H     0.32824   0.52815   0.09776   0.00000  Uiso   1.00
H335   H     0.28300   0.46262   0.08450   0.00000  Uiso   1.00
H336   H     0.30926   0.47463   0.03572   0.00000  Uiso   1.00
C337   C     0.22325   0.38082   0.31261   0.00000  Uiso   1.00
H338   H     0.22286   0.41680   0.31016   0.00000  Uiso   1.00
H339   H     0.21555   0.37272   0.34741   0.00000  Uiso   1.00
H340   H     0.25591   0.37068   0.30751   0.00000  Uiso   1.00
C341   C     0.11008   0.61918   0.18739   0.00000  Uiso   1.00
H342   H     0.11048   0.58320   0.18984   0.00000  Uiso   1.00
H343   H     0.07743   0.62932   0.19249   0.00000  Uiso   1.00
H344   H     0.11778   0.62728   0.15259   0.00000  Uiso   1.00
C345   C     0.10935   0.38077   0.18818   0.00000  Uiso   1.00
H346   H     0.11084   0.41680   0.18946   0.00000  Uiso   1.00
H347   H     0.11530   0.37130   0.15315   0.00000  Uiso   1.00
H348   H     0.07680   0.37201   0.19523   0.00000  Uiso   1.00
C349   C     0.22398   0.61923   0.31182   0.00000  Uiso   1.00
H350   H     0.22250   0.58320   0.31054   0.00000  Uiso   1.00
H351   H     0.25653   0.62799   0.30477   0.00000  Uiso   1.00
H352   H     0.21803   0.62870   0.34685   0.00000  Uiso   1.00
O353   O     0.43892   0.53821   0.25000   0.00000  Uiso   1.00
O354   O     0.56108   0.46179   0.25001   0.00000  Uiso   1.00
O355   O     0.56108   0.53821   0.25001   0.00000  Uiso   1.00
O356   O     0.43892   0.46179   0.25000   0.00000  Uiso   1.00
C357   C     0.42015   0.50003   0.24995   0.00000  Uiso   1.00
C358   C     0.57985   0.49997   0.25005   0.00000  Uiso   1.00
O359   O     0.49999   0.53823   0.18393   0.00000  Uiso   1.00
O360   O     0.50001   0.46177   0.31608   0.00000  Uiso   1.00
O361   O     0.50001   0.53823   0.31608   0.00000  Uiso   1.00
O362   O     0.49999   0.46177   0.18393   0.00000  Uiso   1.00
C363   C     0.49953   0.49992   0.16383   0.00000  Uiso   1.00
C364   C     0.50047   0.50008   0.33617   0.00000  Uiso   1.00
Zn365  Zn    0.50000   0.55104   0.25000   0.00000  Uiso   1.00
Zn366  Zn    0.50000   0.44896   0.25000   0.00000  Uiso   1.00
C367   C     0.54014   0.49565   0.40930   0.00000  Uiso   1.00
C368   C     0.45986   0.50434   0.09070   0.00000  Uiso   1.00
C369   C     0.50208   0.50028   0.38388   0.00000  Uiso   1.00
C370   C     0.49792   0.49972   0.11612   0.00000  Uiso   1.00
C371   C     0.46425   0.50495   0.40328   0.00000  Uiso   1.00
C372   C     0.53575   0.49504   0.09672   0.00000  Uiso   1.00
C373   C     0.46247   0.50456   0.44965   0.00000  Uiso   1.00
C374   C     0.53753   0.49544   0.05035   0.00000  Uiso   1.00
C375   C     0.50043   0.50003   0.47652   0.00000  Uiso   1.00
C376   C     0.49957   0.49997   0.02348   0.00000  Uiso   1.00
C377   C     0.53928   0.49555   0.45640   0.00000  Uiso   1.00
C378   C     0.46072   0.50444   0.04360   0.00000  Uiso   1.00
C379   C     0.42378   0.50867   0.46970   0.00000  Uiso   1.00
C380   C     0.57622   0.49132   0.03030   0.00000  Uiso   1.00
C381   C     0.42358   0.50877   0.01632   0.00000  Uiso   1.00
C382   C     0.57642   0.49122   0.48368   0.00000  Uiso   1.00
H383   H     0.43632   0.50856   0.38121   0.00000  Uiso   1.00
H384   H     0.56368   0.49144   0.11879   0.00000  Uiso   1.00
H385   H     0.39371   0.51194   0.03097   0.00000  Uiso   1.00
H386   H     0.60629   0.48805   0.46903   0.00000  Uiso   1.00
C387   C     0.35577   0.46261   0.26582   0.00000  Uiso   1.00
C388   C     0.64423   0.53739   0.23418   0.00000  Uiso   1.00
C389   C     0.64633   0.46259   0.26585   0.00000  Uiso   1.00
C390   C     0.35367   0.53741   0.23415   0.00000  Uiso   1.00
H391   H     0.37300   0.43372   0.27853   0.00000  Uiso   1.00
H392   H     0.62700   0.56628   0.22147   0.00000  Uiso   1.00
H393   H     0.63081   0.43372   0.27858   0.00000  Uiso   1.00
H394   H     0.36919   0.56628   0.22142   0.00000  Uiso   1.00
C395   C     0.62408   0.49996   0.25002   0.00000  Uiso   1.00
C396   C     0.37592   0.50004   0.24998   0.00000  Uiso   1.00
C397   C     0.52669   0.35723   0.27921   0.00000  Uiso   1.00
C398   C     0.47331   0.64277   0.22079   0.00000  Uiso   1.00
C399   C     0.47324   0.35720   0.22087   0.00000  Uiso   1.00
C400   C     0.52676   0.64280   0.27913   0.00000  Uiso   1.00
N401   N     0.50000   0.61907   0.25000   0.00000  Uiso   1.00
N402   N     0.50000   0.38093   0.25000   0.00000  Uiso   1.00
C403   C     0.58112   0.49110   0.38656   0.00000  Uiso   1.00
H404   H     0.59574   0.45852   0.39546   0.00000  Uiso   1.00
H405   H     0.57768   0.49265   0.34943   0.00000  Uiso   1.00
H406   H     0.60254   0.51859   0.39760   0.00000  Uiso   1.00
C407   C     0.41888   0.50889   0.11344   0.00000  Uiso   1.00
H408   H     0.40425   0.54148   0.10454   0.00000  Uiso   1.00
H409   H     0.39747   0.48141   0.10240   0.00000  Uiso   1.00
H410   H     0.42232   0.50736   0.15057   0.00000  Uiso   1.00
C411   C     0.38198   0.51258   0.44284   0.00000  Uiso   1.00
C412   C     0.36747   0.46743   0.42405   0.00000  Uiso   1.00
H413   H     0.39139   0.45188   0.40368   0.00000  Uiso   1.00
H414   H     0.36092   0.44467   0.45202   0.00000  Uiso   1.00
H415   H     0.33843   0.47182   0.40226   0.00000  Uiso   1.00
H416   H     0.35740   0.52534   0.46428   0.00000  Uiso   1.00
H417   H     0.38366   0.53736   0.41550   0.00000  Uiso   1.00
C418   C     0.61801   0.48740   0.05716   0.00000  Uiso   1.00
C419   C     0.63253   0.53255   0.07595   0.00000  Uiso   1.00
H420   H     0.63912   0.55529   0.04798   0.00000  Uiso   1.00
H421   H     0.60861   0.54811   0.09630   0.00000  Uiso   1.00
H422   H     0.66157   0.52815   0.09776   0.00000  Uiso   1.00
H423   H     0.61633   0.46262   0.08450   0.00000  Uiso   1.00
H424   H     0.64260   0.47463   0.03572   0.00000  Uiso   1.00
C425   C     0.55658   0.38082   0.31261   0.00000  Uiso   1.00
H426   H     0.55619   0.41680   0.31016   0.00000  Uiso   1.00
H427   H     0.54889   0.37272   0.34741   0.00000  Uiso   1.00
H428   H     0.58924   0.37068   0.30751   0.00000  Uiso   1.00
C429   C     0.44342   0.61918   0.18739   0.00000  Uiso   1.00
H430   H     0.44381   0.58320   0.18984   0.00000  Uiso   1.00
H431   H     0.41076   0.62932   0.19249   0.00000  Uiso   1.00
H432   H     0.45111   0.62728   0.15259   0.00000  Uiso   1.00
C433   C     0.44268   0.38077   0.18818   0.00000  Uiso   1.00
H434   H     0.44417   0.41680   0.18946   0.00000  Uiso   1.00
H435   H     0.44863   0.37130   0.15315   0.00000  Uiso   1.00
H436   H     0.41014   0.37201   0.19523   0.00000  Uiso   1.00
C437   C     0.55732   0.61923   0.31182   0.00000  Uiso   1.00
H438   H     0.55583   0.58320   0.31054   0.00000  Uiso   1.00
H439   H     0.58986   0.62799   0.30477   0.00000  Uiso   1.00
H440   H     0.55137   0.62870   0.34685   0.00000  Uiso   1.00
O441   O     0.77226   0.53821   0.25000   0.00000  Uiso   1.00
O442   O     0.89441   0.46179   0.25001   0.00000  Uiso   1.00
O443   O     0.89441   0.53821   0.25001   0.00000  Uiso   1.00
O444   O     0.77226   0.46179   0.25000   0.00000  Uiso   1.00
C445   C     0.75349   0.50003   0.24995   0.00000  Uiso   1.00
C446   C     0.91318   0.49997   0.25005   0.00000  Uiso   1.00
O447   O     0.83333   0.53823   0.18393   0.00000  Uiso   1.00
O448   O     0.83334   0.46177   0.31608   0.00000  Uiso   1.00
O449   O     0.83334   0.53823   0.31608   0.00000  Uiso   1.00
O450   O     0.83333   0.46177   0.18393   0.00000  Uiso   1.00
C451   C     0.83286   0.49992   0.16383   0.00000  Uiso   1.00
C452   C     0.83380   0.50008   0.33617   0.00000  Uiso   1.00
Zn453  Zn    0.83333   0.55104   0.25000   0.00000  Uiso   1.00
Zn454  Zn    0.83333   0.44896   0.25000   0.00000  Uiso   1.00
C455   C     0.87348   0.49565   0.40930   0.00000  Uiso   1.00
C456   C     0.79319   0.50434   0.09070   0.00000  Uiso   1.00
C457   C     0.83541   0.50028   0.38388   0.00000  Uiso   1.00
C458   C     0.83126   0.49972   0.11612   0.00000  Uiso   1.00
C459   C     0.79759   0.50495   0.40328   0.00000  Uiso   1.00
C460   C     0.86908   0.49504   0.09672   0.00000  Uiso   1.00
C461   C     0.79580   0.50456   0.44965   0.00000  Uiso   1.00
C462   C     0.87086   0.49544   0.05035   0.00000  Uiso   1.00
C463   C     0.83376   0.50003   0.47652   0.00000  Uiso   1.00
C464   C     0.83291   0.49997   0.02348   0.00000  Uiso   1.00
C465   C     0.87261   0.49555   0.45640   0.00000  Uiso   1.00
C466   C     0.79405   0.50444   0.04360   0.00000  Uiso   1.00
C467   C     0.75711   0.50867   0.46970   0.00000  Uiso   1.00
C468   C     0.90955   0.49132   0.03030   0.00000  Uiso   1.00
C469   C     0.75691   0.50877   0.01632   0.00000  Uiso   1.00
C470   C     0.90975   0.49122   0.48368   0.00000  Uiso   1.00
H471   H     0.76966   0.50856   0.38121   0.00000  Uiso   1.00
H472   H     0.89701   0.49144   0.11879   0.00000  Uiso   1.00
H473   H     0.72704   0.51194   0.03097   0.00000  Uiso   1.00
H474   H     0.93963   0.48805   0.46903   0.00000  Uiso   1.00
C475   C     0.68910   0.46261   0.26582   0.00000  Uiso   1.00
C476   C     0.97756   0.53739   0.23418   0.00000  Uiso   1.00
C477   C     0.97966   0.46259   0.26585   0.00000  Uiso   1.00
C478   C     0.68700   0.53741   0.23415   0.00000  Uiso   1.00
H479   H     0.70633   0.43372   0.27853   0.00000  Uiso   1.00
H480   H     0.96034   0.56628   0.22147   0.00000  Uiso   1.00
H481   H     0.96415   0.43372   0.27858   0.00000  Uiso   1.00
H482   H     0.70252   0.56628   0.22142   0.00000  Uiso   1.00
C483   C     0.95741   0.49996   0.25002   0.00000  Uiso   1.00
C484   C     0.70926   0.50004   0.24998   0.00000  Uiso   1.00
C485   C     0.86003   0.35723   0.27921   0.00000  Uiso   1.00
C486   C     0.80664   0.64277   0.22079   0.00000  Uiso   1.00
C487   C     0.80657   0.35720   0.22087   0.00000  Uiso   1.00
C488   C     0.86010   0.64280   0.27913   0.00000  Uiso   1.00
N489   N     0.83333   0.61907   0.25000   0.00000  Uiso   1.00
N490   N     0.83333   0.38093   0.25000   0.00000  Uiso   1.00
C491   C     0.91445   0.49110   0.38656   0.00000  Uiso   1.00
H492   H     0.92908   0.45852   0.39546   0.00000  Uiso   1.00
H493   H     0.91101   0.49265   0.34943   0.00000  Uiso   1.00
H494   H     0.93587   0.51859   0.39760   0.00000  Uiso   1.00
C495   C     0.75222   0.50889   0.11344   0.00000  Uiso   1.00
H496   H     0.73759   0.54148   0.10454   0.00000  Uiso   1.00
H497   H     0.73080   0.48141   0.10240   0.00000  Uiso   1.00
H498   H     0.75565   0.50736   0.15057   0.00000  Uiso   1.00
C499   C     0.71532   0.51258   0.44284   0.00000  Uiso   1.00
C500   C     0.70081   0.46743   0.42405   0.00000  Uiso   1.00
H501   H     0.72473   0.45188   0.40368   0.00000  Uiso   1.00
H502   H     0.69425   0.44467   0.45202   0.00000  Uiso   1.00
H503   H     0.67176   0.47182   0.40226   0.00000  Uiso   1.00
H504   H     0.69073   0.52534   0.46428   0.00000  Uiso   1.00
H505   H     0.71700   0.53736   0.41550   0.00000  Uiso   1.00
C506   C     0.95135   0.48740   0.05716   0.00000  Uiso   1.00
C507   C     0.96587   0.53255   0.07595   0.00000  Uiso   1.00
H508   H     0.97245   0.55529   0.04798   0.00000  Uiso   1.00
H509   H     0.94194   0.54811   0.09630   0.00000  Uiso   1.00
H510   H     0.99490   0.52815   0.09776   0.00000  Uiso   1.00
H511   H     0.94966   0.46262   0.08450   0.00000  Uiso   1.00
H512   H     0.97593   0.47463   0.03572   0.00000  Uiso   1.00
C513   C     0.88992   0.38082   0.31261   0.00000  Uiso   1.00
H514   H     0.88952   0.41680   0.31016   0.00000  Uiso   1.00
H515   H     0.88222   0.37272   0.34741   0.00000  Uiso   1.00
H516   H     0.92257   0.37068   0.30751   0.00000  Uiso   1.00
C517   C     0.77675   0.61918   0.18739   0.00000  Uiso   1.00
H518   H     0.77714   0.58320   0.18984   0.00000  Uiso   1.00
H519   H     0.74409   0.62932   0.19249   0.00000  Uiso   1.00
H520   H     0.78445   0.62728   0.15259   0.00000  Uiso   1.00
C521   C     0.77602   0.38077   0.18818   0.00000  Uiso   1.00
H522   H     0.77750   0.41680   0.18946   0.00000  Uiso   1.00
H523   H     0.78197   0.37130   0.15315   0.00000  Uiso   1.00
H524   H     0.74347   0.37201   0.19523   0.00000  Uiso   1.00
C525   C     0.89065   0.61923   0.31182   0.00000  Uiso   1.00
H526   H     0.88916   0.58320   0.31054   0.00000  Uiso   1.00
H527   H     0.92320   0.62799   0.30477   0.00000  Uiso   1.00
H528   H     0.88470   0.62870   0.34685   0.00000  Uiso   1.00
O529   O     0.10559   0.87154   0.25000   0.00000  Uiso   1.00
O530   O     0.22774   0.79513   0.25001   0.00000  Uiso   1.00
O531   O     0.22774   0.87154   0.25001   0.00000  Uiso   1.00
O532   O     0.10559   0.79513   0.25000   0.00000  Uiso   1.00
C533   C     0.08682   0.83336   0.24995   0.00000  Uiso   1.00
C534   C     0.24651   0.83330   0.25005   0.00000  Uiso   1.00
O535   O     0.16666   0.87156   0.18393   0.00000  Uiso   1.00
O536   O     0.16667   0.79511   0.31608   0.00000  Uiso   1.00
O537   O     0.16667   0.87156   0.31608   0.00000  Uiso   1.00
O538   O     0.16666   0.79511   0.18393   0.00000  Uiso   1.00
C539   C     0.16620   0.83326   0.16383   0.00000  Uiso   1.00
C540   C     0.16714   0.83341   0.33617   0.00000  Uiso   1.00
Zn541  Zn    0.16667   0.88437   0.25000   0.00000  Uiso   1.00
Zn542  Zn    0.16667   0.78229   0.25000   0.00000  Uiso   1.00
C543   C     0.20681   0.82899   0.40930   0.00000  Uiso   1.00
C544   C     0.12652   0.83768   0.09070   0.00000  Uiso   1.00
C545   C     0.16875   0.83361   0.38388   0.00000  Uiso   1.00
C546   C     0.16459   0.83306   0.11612   0.00000  Uiso   1.00
C547   C     0.13092   0.83829   0.40328   0.00000  Uiso   1.00
C548   C     0.20241   0.82838   0.09672   0.00000  Uiso   1.00
C549   C     0.12914   0.83789   0.44965   0.00000  Uiso   1.00
C550   C     0.20420   0.82877   0.05035   0.00000  Uiso   1.00
C551   C     0.16709   0.83336   0.47652   0.00000  Uiso   1.00
C552   C     0.16624   0.83330   0.02348   0.00000  Uiso   1.00
C553   C     0.20595   0.82889   0.45640   0.00000  Uiso   1.00
C554   C     0.12738   0.83777   0.04360   0.00000  Uiso   1.00
C555   C     0.09045   0.84200   0.46970   0.00000  Uiso   1.00
C556   C     0.24288   0.82465   0.03030   0.00000  Uiso   1.00
C557   C     0.09025   0.84211   0.01632   0.00000  Uiso   1.00
C558   C     0.24309   0.82455   0.48368   0.00000  Uiso   1.00
H559   H     0.10299   0.84189   0.38121   0.00000  Uiso   1.00
H560   H     0.23034   0.82478   0.11879   0.00000  Uiso   1.00
H561   H     0.06037   0.84527   0.03097   0.00000  Uiso   1.00
H562   H     0.27296   0.82138   0.46903   0.00000  Uiso   1.00
C563   C     0.02244   0.79594   0.26582   0.00000  Uiso   1.00
C564   C     0.31090   0.87073   0.23418   0.00000  Uiso   1.00
C565   C     0.31300   0.79592   0.26585   0.00000  Uiso   1.00
C566   C     0.02034   0.87075   0.23415   0.00000  Uiso   1.00
H567   H     0.03966   0.76705   0.27853   0.00000  Uiso   1.00
H568   H     0.29367   0.89961   0.22147   0.00000  Uiso   1.00
H569   H     0.29748   0.76705   0.27858   0.00000  Uiso   1.00
H570   H     0.03585   0.89961   0.22142   0.00000  Uiso   1.00
C571   C     0.29074   0.83330   0.25002   0.00000  Uiso   1.00
C572   C     0.04259   0.83337   0.24998   0.00000  Uiso   1.00
C573   C     0.19336   0.69056   0.27921   0.00000  Uiso   1.00
C574   C     0.13997   0.97610   0.22079   0.00000  Uiso   1.00
C575   C     0.13990   0.69053   0.22087   0.00000  Uiso   1.00
C576   C     0.19343   0.97613   0.27913   0.00000  Uiso   1.00
N577   N     0.16667   0.95240   0.25000   0.00000  Uiso   1.00
N578   N     0.16667   0.71427   0.25000   0.00000  Uiso   1.00
C579   C     0.24778   0.82444   0.38656   0.00000  Uiso   1.00
H580   H     0.26241   0.79185   0.39546   0.00000  Uiso   1.00
H581   H     0.24435   0.82598   0.34943   0.00000  Uiso   1.00
H582   H     0.26920   0.85192   0.39760   0.00000  Uiso   1.00
C583   C     0.08555   0.84223   0.11344   0.00000  Uiso   1.00
H584   H     0.07092   0.87481   0.10454   0.00000  Uiso   1.00
H585   H     0.06413   0.81474   0.10240   0.00000  Uiso   1.00
H586   H     0.08899   0.84069   0.15057   0.00000  Uiso   1.00
C587   C     0.04865   0.84591   0.44284   0.00000  Uiso   1.00
C588   C     0.03414   0.80076   0.42405   0.00000  Uiso   1.00
H589   H     0.05806   0.78522   0.40368   0.00000  Uiso   1.00
H590   H     0.02758   0.77800   0.45202   0.00000  Uiso   1.00
H591   H     0.00509   0.80515   0.40226   0.00000  Uiso   1.00
H592   H     0.02406   0.85867   0.46428   0.00000  Uiso   1.00
H593   H     0.05033   0.87069   0.41550   0.00000  Uiso   1.00
C594   C     0.28468   0.82074   0.05716   0.00000  Uiso   1.00
C595   C     0.29920   0.86588   0.07595   0.00000  Uiso   1.00
H596   H     0.30578   0.88863   0.04798   0.00000  Uiso   1.00
H597   H     0.27528   0.88145   0.09630   0.00000  Uiso   1.00
H598   H     0.32824   0.86148   0.09776   0.00000  Uiso   1.00
H599   H     0.28300   0.79596   0.08450   0.00000  Uiso   1.00
H600   H     0.30926   0.80797   0.03572   0.00000  Uiso   1.00
C601   C     0.22325   0.71415   0.31261   0.00000  Uiso   1.00
H602   H     0.22286   0.75013   0.31016   0.00000  Uiso   1.00
H603   H     0.21555   0.70606   0.34741   0.00000  Uiso   1.00
H604   H     0.25591   0.70401   0.30751   0.00000  Uiso   1.00
C605   C     0.11008   0.95252   0.18739   0.00000  Uiso   1.00
H606   H     0.11048   0.91654   0.18984   0.00000  Uiso   1.00
H607   H     0.07743   0.96265   0.19249   0.00000  Uiso   1.00
H608   H     0.11778   0.96061   0.15259   0.00000  Uiso   1.00
C609   C     0.10935   0.71411   0.18818   0.00000  Uiso   1.00
H610   H     0.11084   0.75013   0.18946   0.00000  Uiso   1.00
H611   H     0.11530   0.70464   0.15315   0.00000  Uiso   1.00
H612   H     0.07680   0.70535   0.19523   0.00000  Uiso   1.00
C613   C     0.22398   0.95256   0.31182   0.00000  Uiso   1.00
H614   H     0.22250   0.91654   0.31054   0.00000  Uiso   1.00
H615   H     0.25653   0.96132   0.30477   0.00000  Uiso   1.00
H616   H     0.21803   0.96203   0.34685   0.00000  Uiso   1.00
O617   O     0.43892   0.87154   0.25000   0.00000  Uiso   1.00
O618   O     0.56108   0.79513   0.25001   0.00000  Uiso   1.00
O619   O     0.56108   0.87154   0.25001   0.00000  Uiso   1.00
O620   O     0.43892   0.79513   0.25000   0.00000  Uiso   1.00
C621   C     0.42015   0.83336   0.24995   0.00000  Uiso   1.00
C622   C     0.57985   0.83330   0.25005   0.00000  Uiso   1.00
O623   O     0.49999   0.87156   0.18393   0.00000  Uiso   1.00
O624   O     0.50001   0.79511   0.31608   0.00000  Uiso   1.00
O625   O     0.50001   0.87156   0.31608   0.00000  Uiso   1.00
O626   O     0.49999   0.79511   0.18393   0.00000  Uiso   1.00
C627   C     0.49953   0.83326   0.16383   0.00000  Uiso   1.00
C628   C     0.50047   0.83341   0.33617   0.00000  Uiso   1.00
Zn629  Zn    0.50000   0.88437   0.25000   0.00000  Uiso   1.00
Zn630  Zn    0.50000   0.78229   0.25000   0.00000  Uiso   1.00
C631   C     0.54014   0.82899   0.40930   0.00000  Uiso   1.00
C632   C     0.45986   0.83768   0.09070   0.00000  Uiso   1.00
C633   C     0.50208   0.83361   0.38388   0.00000  Uiso   1.00
C634   C     0.49792   0.83306   0.11612   0.00000  Uiso   1.00
C635   C     0.46425   0.83829   0.40328   0.00000  Uiso   1.00
C636   C     0.53575   0.82838   0.09672   0.00000  Uiso   1.00
C637   C     0.46247   0.83789   0.44965   0.00000  Uiso   1.00
C638   C     0.53753   0.82877   0.05035   0.00000  Uiso   1.00
C639   C     0.50043   0.83336   0.47652   0.00000  Uiso   1.00
C640   C     0.49957   0.83330   0.02348   0.00000  Uiso   1.00
C641   C     0.53928   0.82889   0.45640   0.00000  Uiso   1.00
C642   C     0.46072   0.83777   0.04360   0.00000  Uiso   1.00
C643   C     0.42378   0.84200   0.46970   0.00000  Uiso   1.00
C644   C     0.57622   0.82465   0.03030   0.00000  Uiso   1.00
C645   C     0.42358   0.84211   0.01632   0.00000  Uiso   1.00
C646   C     0.57642   0.82455   0.48368   0.00000  Uiso   1.00
H647   H     0.43632   0.84189   0.38121   0.00000  Uiso   1.00
H648   H     0.56368   0.82478   0.11879   0.00000  Uiso   1.00
H649   H     0.39371   0.84527   0.03097   0.00000  Uiso   1.00
H650   H     0.60629   0.82138   0.46903   0.00000  Uiso   1.00
C651   C     0.35577   0.79594   0.26582   0.00000  Uiso   1.00
C652   C     0.64423   0.87073   0.23418   0.00000  Uiso   1.00
C653   C     0.64633   0.79592   0.26585   0.00000  Uiso   1.00
C654   C     0.35367   0.87075   0.23415   0.00000  Uiso   1.00
H655   H     0.37300   0.76705   0.27853   0.00000  Uiso   1.00
H656   H     0.62700   0.89961   0.22147   0.00000  Uiso   1.00
H657   H     0.63081   0.76705   0.27858   0.00000  Uiso   1.00
H658   H     0.36919   0.89961   0.22142   0.00000  Uiso   1.00
C659   C     0.62408   0.83330   0.25002   0.00000  Uiso   1.00
C660   C     0.37592   0.83337   0.24998   0.00000  Uiso   1.00
C661   C     0.52669   0.69056   0.27921   0.00000  Uiso   1.00
C662   C     0.47331   0.97610   0.22079   0.00000  Uiso   1.00
C663   C     0.47324   0.69053   0.22087   0.00000  Uiso   1.00
C664   C     0.52676   0.97613   0.27913   0.00000  Uiso   1.00
N665   N     0.50000   0.95240   0.25000   0.00000  Uiso   1.00
N666   N     0.50000   0.71427   0.25000   0.00000  Uiso   1.00
C667   C     0.58112   0.82444   0.38656   0.00000  Uiso   1.00
H668   H     0.59574   0.79185   0.39546   0.00000  Uiso   1.00
H669   H     0.57768   0.82598   0.34943   0.00000  Uiso   1.00
H670   H     0.60254   0.85192   0.39760   0.00000  Uiso   1.00
C671   C     0.41888   0.84223   0.11344   0.00000  Uiso   1.00
H672   H     0.40425   0.87481   0.10454   0.00000  Uiso   1.00
H673   H     0.39747   0.81474   0.10240   0.00000  Uiso   1.00
H674   H     0.42232   0.84069   0.15057   0.00000  Uiso   1.00
C675   C     0.38198   0.84591   0.44284   0.00000  Uiso   1.00
C676   C     0.36747   0.80076   0.42405   0.00000  Uiso   1.00
H677   H     0.39139   0.78522   0.40368   0.00000  Uiso   1.00
H678   H     0.36092   0.77800   0.45202   0.00000  Uiso   1.00
H679   H     0.33843   0.80515   0.40226   0.00000  Uiso   1.00
H680   H     0.35740   0.85867   0.46428   0.00000  Uiso   1.00
H681   H     0.38366   0.87069   0.41550   0.00000  Uiso   1.00
C682   C     0.61801   0.82074   0.05716   0.00000  Uiso   1.00
C683   C     0.63253   0.86588   0.07595   0.00000  Uiso   1.00
H684   H     0.63912   0.88863   0.04798   0.00000  Uiso   1.00
H685   H     0.60861   0.88145   0.09630   0.00000  Uiso   1.00
H686   H     0.66157   0.86148   0.09776   0.00000  Uiso   1.00
H687   H     0.61633   0.79596   0.08450   0.00000  Uiso   1.00
H688   H     0.64260   0.80797   0.03572   0.00000  Uiso   1.00
C689   C     0.55658   0.71415   0.31261   0.00000  Uiso   1.00
H690   H     0.55619   0.75013   0.31016   0.00000  Uiso   1.00
H691   H     0.54889   0.70606   0.34741   0.00000  Uiso   1.00
H692   H     0.58924   0.70401   0.30751   0.00000  Uiso   1.00
C693   C     0.44342   0.95252   0.18739   0.00000  Uiso   1.00
H694   H     0.44381   0.91654   0.18984   0.00000  Uiso   1.00
H695   H     0.41076   0.96265   0.19249   0.00000  Uiso   1.00
H696   H     0.45111   0.96061   0.15259   0.00000  Uiso   1.00
C697   C     0.44268   0.71411   0.18818   0.00000  Uiso   1.00
H698   H     0.44417   0.75013   0.18946   0.00000  Uiso   1.00
H699   H     0.44863   0.70464   0.15315   0.00000  Uiso   1.00
H700   H     0.41014   0.70535   0.19523   0.00000  Uiso   1.00
C701   C     0.55732   0.95256   0.31182   0.00000  Uiso   1.00
H702   H     0.55583   0.91654   0.31054   0.00000  Uiso   1.00
H703   H     0.58986   0.96132   0.30477   0.00000  Uiso   1.00
H704   H     0.55137   0.96203   0.34685   0.00000  Uiso   1.00
O705   O     0.77226   0.87154   0.25000   0.00000  Uiso   1.00
O706   O     0.89441   0.79513   0.25001   0.00000  Uiso   1.00
O707   O     0.89441   0.87154   0.25001   0.00000  Uiso   1.00
O708   O     0.77226   0.79513   0.25000   0.00000  Uiso   1.00
C709   C     0.75349   0.83336   0.24995   0.00000  Uiso   1.00
C710   C     0.91318   0.83330   0.25005   0.00000  Uiso   1.00
O711   O     0.83333   0.87156   0.18393   0.00000  Uiso   1.00
O712   O     0.83334   0.79511   0.31608   0.00000  Uiso   1.00
O713   O     0.83334   0.87156   0.31608   0.00000  Uiso   1.00
O714   O     0.83333   0.79511   0.18393   0.00000  Uiso   1.00
C715   C     0.83286   0.83326   0.16383   0.00000  Uiso   1.00
C716   C     0.83380   0.83341   0.33617   0.00000  Uiso   1.00
Zn717  Zn    0.83333   0.88437   0.25000   0.00000  Uiso   1.00
Zn718  Zn    0.83333   0.78229   0.25000   0.00000  Uiso   1.00
C719   C     0.87348   0.82899   0.40930   0.00000  Uiso   1.00
C720   C     0.79319   0.83768   0.09070   0.00000  Uiso   1.00
C721   C     0.83541   0.83361   0.38388   0.00000  Uiso   1.00
C722   C     0.83126   0.83306   0.11612   0.00000  Uiso   1.00
C723   C     0.79759   0.83829   0.40328   0.00000  Uiso   1.00
C724   C     0.86908   0.82838   0.09672   0.00000  Uiso   1.00
C725   C     0.79580   0.83789   0.44965   0.00000  Uiso   1.00
C726   C     0.87086   0.82877   0.05035   0.00000  Uiso   1.00
C727   C     0.83376   0.83336   0.47652   0.00000  Uiso   1.00
C728   C     0.83291   0.83330   0.02348   0.00000  Uiso   1.00
C729   C     0.87261   0.82889   0.45640   0.00000  Uiso   1.00
C730   C     0.79405   0.83777   0.04360   0.00000  Uiso   1.00
C731   C     0.75711   0.84200   0.46970   0.00000  Uiso   1.00
C732   C     0.90955   0.82465   0.03030   0.00000  Uiso   1.00
C733   C     0.75691   0.84211   0.01632   0.00000  Uiso   1.00
C734   C     0.90975   0.82455   0.48368   0.00000  Uiso   1.00
H735   H     0.76966   0.84189   0.38121   0.00000  Uiso   1.00
H736   H     0.89701   0.82478   0.11879   0.00000  Uiso   1.00
H737   H     0.72704   0.84527   0.03097   0.00000  Uiso   1.00
H738   H     0.93963   0.82138   0.46903   0.00000  Uiso   1.00
C739   C     0.68910   0.79594   0.26582   0.00000  Uiso   1.00
C740   C     0.97756   0.87073   0.23418   0.00000  Uiso   1.00
C741   C     0.97966   0.79592   0.26585   0.00000  Uiso   1.00
C742   C     0.68700   0.87075   0.23415   0.00000  Uiso   1.00
H743   H     0.70633   0.76705   0.27853   0.00000  Uiso   1.00
H744   H     0.96034   0.89961   0.22147   0.00000  Uiso   1.00
H745   H     0.96415   0.76705   0.27858   0.00000  Uiso   1.00
H746   H     0.70252   0.89961   0.22142   0.00000  Uiso   1.00
C747   C     0.95741   0.83330   0.25002   0.00000  Uiso   1.00
C748   C     0.70926   0.83337   0.24998   0.00000  Uiso   1.00
C749   C     0.86003   0.69056   0.27921   0.00000  Uiso   1.00
C750   C     0.80664   0.97610   0.22079   0.00000  Uiso   1.00
C751   C     0.80657   0.69053   0.22087   0.00000  Uiso   1.00
C752   C     0.86010   0.97613   0.27913   0.00000  Uiso   1.00
N753   N     0.83333   0.95240   0.25000   0.00000  Uiso   1.00
N754   N     0.83333   0.71427   0.25000   0.00000  Uiso   1.00
C755   C     0.91445   0.82444   0.38656   0.00000  Uiso   1.00
H756   H     0.92908   0.79185   0.39546   0.00000  Uiso   1.00
H757   H     0.91101   0.82598   0.34943   0.00000  Uiso   1.00
H758   H     0.93587   0.85192   0.39760   0.00000  Uiso   1.00
C759   C     0.75222   0.84223   0.11344   0.00000  Uiso   1.00
H760   H     0.73759   0.87481   0.10454   0.00000  Uiso   1.00
H761   H     0.73080   0.81474   0.10240   0.00000  Uiso   1.00
H762   H     0.75565   0.84069   0.15057   0.00000  Uiso   1.00
C763   C     0.71532   0.84591   0.44284   0.00000  Uiso   1.00
C764   C     0.70081   0.80076   0.42405   0.00000  Uiso   1.00
H765   H     0.72473   0.78522   0.40368   0.00000  Uiso   1.00
H766   H     0.69425   0.77800   0.45202   0.00000  Uiso   1.00
H767   H     0.67176   0.80515   0.40226   0.00000  Uiso   1.00
H768   H     0.69073   0.85867   0.46428   0.00000  Uiso   1.00
H769   H     0.71700   0.87069   0.41550   0.00000  Uiso   1.00
C770   C     0.95135   0.82074   0.05716   0.00000  Uiso   1.00
C771   C     0.96587   0.86588   0.07595   0.00000  Uiso   1.00
H772   H     0.97245   0.88863   0.04798   0.00000  Uiso   1.00
H773   H     0.94194   0.88145   0.09630   0.00000  Uiso   1.00
H774   H     0.99490   0.86148   0.09776   0.00000  Uiso   1.00
H775   H     0.94966   0.79596   0.08450   0.00000  Uiso   1.00
H776   H     0.97593   0.80797   0.03572   0.00000  Uiso   1.00
C777   C     0.88992   0.71415   0.31261   0.00000  Uiso   1.00
H778   H     0.88952   0.75013   0.31016   0.00000  Uiso   1.00
H779   H     0.88222   0.70606   0.34741   0.00000  Uiso   1.00
H780   H     0.92257   0.70401   0.30751   0.00000  Uiso   1.00
C781   C     0.77675   0.95252   0.18739   0.00000  Uiso   1.00
H782   H     0.77714   0.91654   0.18984   0.00000  Uiso   1.00
H783   H     0.74409   0.96265   0.19249   0.00000  Uiso   1.00
H784   H     0.78445   0.96061   0.15259   0.00000  Uiso   1.00
C785   C     0.77602   0.71411   0.18818   0.00000  Uiso   1.00
H786   H     0.77750   0.75013   0.18946   0.00000  Uiso   1.00
H787   H     0.78197   0.70464   0.15315   0.00000  Uiso   1.00
H788   H     0.74347   0.70535   0.19523   0.00000  Uiso   1.00
C789   C     0.89065   0.95256   0.31182   0.00000  Uiso   1.00
H790   H     0.88916   0.91654   0.31054   0.00000  Uiso   1.00
H791   H     0.92320   0.96132   0.30477   0.00000  Uiso   1.00
H792   H     0.88470   0.96203   0.34685   0.00000  Uiso   1.00
O793   O     0.10559   0.20487   0.75000   0.00000  Uiso   1.00
O794   O     0.22774   0.12846   0.75001   0.00000  Uiso   1.00
O795   O     0.22774   0.20487   0.75001   0.00000  Uiso   1.00
O796   O     0.10559   0.12846   0.75000   0.00000  Uiso   1.00
C797   C     0.08682   0.16670   0.74995   0.00000  Uiso   1.00
C798   C     0.24651   0.16664   0.75005   0.00000  Uiso   1.00
O799   O     0.16666   0.20489   0.68393   0.00000  Uiso   1.00
O800   O     0.16667   0.12844   0.81608   0.00000  Uiso   1.00
O801   O     0.16667   0.20489   0.81608   0.00000  Uiso   1.00
O802   O     0.16666   0.12844   0.68393   0.00000  Uiso   1.00
C803   C     0.16620   0.16659   0.66383   0.00000  Uiso   1.00
C804   C     0.16714   0.16674   0.83617   0.00000  Uiso   1.00
Zn805  Zn    0.16667   0.21771   0.75000   0.00000  Uiso   1.00
Zn806  Zn    0.16667   0.11563   0.75000   0.00000  Uiso   1.00
C807   C     0.20681   0.16232   0.90930   0.00000  Uiso   1.00
C808   C     0.12652   0.17101   0.59070   0.00000  Uiso   1.00
C809   C     0.16875   0.16694   0.88388   0.00000  Uiso   1.00
C810   C     0.16459   0.16639   0.61612   0.00000  Uiso   1.00
C811   C     0.13092   0.17162   0.90328   0.00000  Uiso   1.00
C812   C     0.20241   0.16171   0.59672   0.00000  Uiso   1.00
C813   C     0.12914   0.17122   0.94965   0.00000  Uiso   1.00
C814   C     0.20420   0.16210   0.55035   0.00000  Uiso   1.00
C815   C     0.16709   0.16670   0.97652   0.00000  Uiso   1.00
C816   C     0.16624   0.16663   0.52348   0.00000  Uiso   1.00
C817   C     0.20595   0.16222   0.95640   0.00000  Uiso   1.00
C818   C     0.12738   0.17111   0.54360   0.00000  Uiso   1.00
C819   C     0.09045   0.17534   0.96970   0.00000  Uiso   1.00
C820   C     0.24288   0.15799   0.53030   0.00000  Uiso   1.00
C821   C     0.09025   0.17544   0.51632   0.00000  Uiso   1.00
C822   C     0.24309   0.15788   0.98368   0.00000  Uiso   1.00
H823   H     0.10299   0.17522   0.88121   0.00000  Uiso   1.00
H824   H     0.23034   0.15811   0.61879   0.00000  Uiso   1.00
H825   H     0.06037   0.17861   0.53097   0.00000  Uiso   1.00
H826   H     0.27296   0.15471   0.96903   0.00000  Uiso   1.00
C827   C     0.02244   0.12927   0.76582   0.00000  Uiso   1.00
C828   C     0.31090   0.20406   0.73418   0.00000  Uiso   1.00
C829   C     0.31300   0.12925   0.76585   0.00000  Uiso   1.00
C830   C     0.02034   0.20408   0.73415   0.00000  Uiso   1.00
H831   H     0.03966   0.10039   0.77853   0.00000  Uiso   1.00
H832   H     0.29367   0.23295   0.72147   0.00000  Uiso   1.00
H833   H     0.29748   0.10039   0.77858   0.00000  Uiso   1.00
H834   H     0.03585   0.23295   0.72142   0.00000  Uiso   1.00
C835   C     0.29074   0.16663   0.75002   0.00000  Uiso   1.00
C836   C     0.04259   0.16670   0.74998   0.00000  Uiso   1.00
C837   C     0.19336   0.02390   0.77921   0.00000  Uiso   1.00
C838   C     0.13997   0.30944   0.72079   0.00000  Uiso   1.00
C839   C     0.13990   0.02387   0.72087   0.00000  Uiso   1.00
C840   C     0.19343   0.30947   0.77913   0.00000  Uiso   1.00
N841   N     0.16667   0.28573   0.75000   0.00000  Uiso   1.00
N842   N     0.16667   0.04760   0.75000   0.00000  Uiso   1.00
C843   C     0.24778   0.15777   0.88656   0.00000  Uiso   1.00
H844   H     0.26241   0.12518   0.89546   0.00000  Uiso   1.00
H845   H     0.24435   0.15931   0.84943   0.00000  Uiso   1.00
H846   H     0.26920   0.18526   0.89760   0.00000  Uiso   1.00
C847   C     0.08555   0.17556   0.61344   0.00000  Uiso   1.00
H848   H     0.07092   0.20815   0.60454   0.00000  Uiso   1.00
H849   H     0.06413   0.14807   0.60240   0.00000  Uiso   1.00
H850   H     0.08899   0.17402   0.65057   0.00000  Uiso   1.00
C851   C     0.04865   0.17924   0.94284   0.00000  Uiso   1.00
C852   C     0.03414   0.13409   0.92405   0.00000  Uiso   1.00
H853   H     0.05806   0.11855   0.90368   0.00000  Uiso   1.00
H854   H     0.02758   0.11134   0.95202   0.00000  Uiso   1.00
H855   H     0.00509   0.13849   0.90226   0.00000  Uiso   1.00
H856   H     0.02406   0.19201   0.96428   0.00000  Uiso   1.00
H857   H     0.05033   0.20403   0.91550   0.00000  Uiso   1.00
C858   C     0.28468   0.15407   0.55716   0.00000  Uiso   1.00
C859   C     0.29920   0.19922   0.57595   0.00000  Uiso   1.00
H860   H     0.30578   0.22196   0.54798   0.00000  Uiso   1.00
H861   H     0.27528   0.21478   0.59630   0.00000  Uiso   1.00
H862   H     0.32824   0.19481   0.59776   0.00000  Uiso   1.00
H863   H     0.28300   0.12929   0.58450   0.00000  Uiso   1.00
H864   H     0.30926   0.14130   0.53572   0.00000  Uiso   1.00
C865   C     0.22325   0.04748   0.81261   0.00000  Uiso   1.00
H866   H     0.22286   0.08346   0.81016   0.00000  Uiso   1.00
H867   H     0.21555   0.03939   0.84741   0.00000  Uiso   1.00
H868   H     0.25591   0.03735   0.80751   0.00000  Uiso   1.00
C869   C     0.11008   0.28585   0.68739   0.00000  Uiso   1.00
H870   H     0.11048   0.24987   0.68984   0.00000  Uiso   1.00
H871   H     0.07743   0.29599   0.69249   0.00000  Uiso   1.00
H872   H     0.11778   0.29394   0.65259   0.00000  Uiso   1.00
C873   C     0.10935   0.04744   0.68818   0.00000  Uiso   1.00
H874   H     0.11084   0.08346   0.68946   0.00000  Uiso   1.00
H875   H     0.11530   0.03797   0.65315   0.00000  Uiso   1.00
H876   H     0.07680   0.03868   0.69523   0.00000  Uiso   1.00
C877   C     0.22398   0.28590   0.81182   0.00000  Uiso   1.00
H878   H     0.22250   0.24987   0.81054   0.00000  Uiso   1.00
H879   H     0.25653   0.29466   0.80477   0.00000  Uiso   1.00
H880   H     0.21803   0.29536   0.84685   0.00000  Uiso   1.00
O881   O     0.43892   0.20487   0.75000   0.00000  Uiso   1.00
O882   O     0.56108   0.12846   0.75001   0.00000  Uiso   1.00
O883   O     0.56108   0.20487   0.75001   0.00000  Uiso   1.00
O884   O     0.43892   0.12846   0.75000   0.00000  Uiso   1.00
C885   C     0.42015   0.16670   0.74995   0.00000  Uiso   1.00
C886   C     0.57985   0.16664   0.75005   0.00000  Uiso   1.00
O887   O     0.49999   0.20489   0.68393   0.00000  Uiso   1.00
O888   O     0.50001   0.12844   0.81608   0.00000  Uiso   1.00
O889   O     0.50001   0.20489   0.81608   0.00000  Uiso   1.00
O890   O     0.49999   0.12844   0.68393   0.00000  Uiso   1.00
C891   C     0.49953   0.16659   0.66383   0.00000  Uiso   1.00
C892   C     0.50047   0.16674   0.83617   0.00000  Uiso   1.00
Zn893  Zn    0.50000   0.21771   0.75000   0.00000  Uiso   1.00
Zn894  Zn    0.50000   0.11563   0.75000   0.00000  Uiso   1.00
C895   C     0.54014   0.16232   0.90930   0.00000  Uiso   1.00
C896   C     0.45986   0.17101   0.59070   0.00000  Uiso   1.00
C897   C     0.50208   0.16694   0.88388   0.00000  Uiso   1.00
C898   C     0.49792   0.16639   0.61612   0.00000  Uiso   1.00
C899   C     0.46425   0.17162   0.90328   0.00000  Uiso   1.00
C900   C     0.53575   0.16171   0.59672   0.00000  Uiso   1.00
C901   C     0.46247   0.17122   0.94965   0.00000  Uiso   1.00
C902   C     0.53753   0.16210   0.55035   0.00000  Uiso   1.00
C903   C     0.50043   0.16670   0.97652   0.00000  Uiso   1.00
C904   C     0.49957   0.16663   0.52348   0.00000  Uiso   1.00
C905   C     0.53928   0.16222   0.95640   0.00000  Uiso   1.00
C906   C     0.46072   0.17111   0.54360   0.00000  Uiso   1.00
C907   C     0.42378   0.17534   0.96970   0.00000  Uiso   1.00
C908   C     0.57622   0.15799   0.53030   0.00000  Uiso   1.00
C909   C     0.42358   0.17544   0.51632   0.00000  Uiso   1.00
C910   C     0.57642   0.15788   0.98368   0.00000  Uiso   1.00
H911   H     0.43632   0.17522   0.88121   0.00000  Uiso   1.00
H912   H     0.56368   0.15811   0.61879   0.00000  Uiso   1.00
H913   H     0.39371   0.17861   0.53097   0.00000  Uiso   1.00
H914   H     0.60629   0.15471   0.96903   0.00000  Uiso   1.00
C915   C     0.35577   0.12927   0.76582   0.00000  Uiso   1.00
C916   C     0.64423   0.20406   0.73418   0.00000  Uiso   1.00
C917   C     0.64633   0.12925   0.76585   0.00000  Uiso   1.00
C918   C     0.35367   0.20408   0.73415   0.00000  Uiso   1.00
H919   H     0.37300   0.10039   0.77853   0.00000  Uiso   1.00
H920   H     0.62700   0.23295   0.72147   0.00000  Uiso   1.00
H921   H     0.63081   0.10039   0.77858   0.00000  Uiso   1.00
H922   H     0.36919   0.23295   0.72142   0.00000  Uiso   1.00
C923   C     0.62408   0.16663   0.75002   0.00000  Uiso   1.00
C924   C     0.37592   0.16670   0.74998   0.00000  Uiso   1.00
C925   C     0.52669   0.02390   0.77921   0.00000  Uiso   1.00
C926   C     0.47331   0.30944   0.72079   0.00000  Uiso   1.00
C927   C     0.47324   0.02387   0.72087   0.00000  Uiso   1.00
C928   C     0.52676   0.30947   0.77913   0.00000  Uiso   1.00
N929   N     0.50000   0.28573   0.75000   0.00000  Uiso   1.00
N930   N     0.50000   0.04760   0.75000   0.00000  Uiso   1.00
C931   C     0.58112   0.15777   0.88656   0.00000  Uiso   1.00
H932   H     0.59574   0.12518   0.89546   0.00000  Uiso   1.00
H933   H     0.57768   0.15931   0.84943   0.00000  Uiso   1.00
H934   H     0.60254   0.18526   0.89760   0.00000  Uiso   1.00
C935   C     0.41888   0.17556   0.61344   0.00000  Uiso   1.00
H936   H     0.40425   0.20815   0.60454   0.00000  Uiso   1.00
H937   H     0.39747   0.14807   0.60240   0.00000  Uiso   1.00
H938   H     0.42232   0.17402   0.65057   0.00000  Uiso   1.00
C939   C     0.38198   0.17924   0.94284   0.00000  Uiso   1.00
C940   C     0.36747   0.13409   0.92405   0.00000  Uiso   1.00
H941   H     0.39139   0.11855   0.90368   0.00000  Uiso   1.00
H942   H     0.36092   0.11134   0.95202   0.00000  Uiso   1.00
H943   H     0.33843   0.13849   0.90226   0.00000  Uiso   1.00
H944   H     0.35740   0.19201   0.96428   0.00000  Uiso   1.00
H945   H     0.38366   0.20403   0.91550   0.00000  Uiso   1.00
C946   C     0.61801   0.15407   0.55716   0.00000  Uiso   1.00
C947   C     0.63253   0.19922   0.57595   0.00000  Uiso   1.00
H948   H     0.63912   0.22196   0.54798   0.00000  Uiso   1.00
H949   H     0.60861   0.21478   0.59630   0.00000  Uiso   1.00
H950   H     0.66157   0.19481   0.59776   0.00000  Uiso   1.00
H951   H     0.61633   0.12929   0.58450   0.00000  Uiso   1.00
H952   H     0.64260   0.14130   0.53572   0.00000  Uiso   1.00
C953   C     0.55658   0.04748   0.81261   0.00000  Uiso   1.00
H954   H     0.55619   0.08346   0.81016   0.00000  Uiso   1.00
H955   H     0.54889   0.03939   0.84741   0.00000  Uiso   1.00
H956   H     0.58924   0.03735   0.80751   0.00000  Uiso   1.00
C957   C     0.44342   0.28585   0.68739   0.00000  Uiso   1.00
H958   H     0.44381   0.24987   0.68984   0.00000  Uiso   1.00
H959   H     0.41076   0.29599   0.69249   0.00000  Uiso   1.00
H960   H     0.45111   0.29394   0.65259   0.00000  Uiso   1.00
C961   C     0.44268   0.04744   0.68818   0.00000  Uiso   1.00
H962   H     0.44417   0.08346   0.68946   0.00000  Uiso   1.00
H963   H     0.44863   0.03797   0.65315   0.00000  Uiso   1.00
H964   H     0.41014   0.03868   0.69523   0.00000  Uiso   1.00
C965   C     0.55732   0.28590   0.81182   0.00000  Uiso   1.00
H966   H     0.55583   0.24987   0.81054   0.00000  Uiso   1.00
H967   H     0.58986   0.29466   0.80477   0.00000  Uiso   1.00
H968   H     0.55137   0.29536   0.84685   0.00000  Uiso   1.00
O969   O     0.77226   0.20487   0.75000   0.00000  Uiso   1.00
O970   O     0.89441   0.12846   0.75001   0.00000  Uiso   1.00
O971   O     0.89441   0.20487   0.75001   0.00000  Uiso   1.00
O972   O     0.77226   0.12846   0.75000   0.00000  Uiso   1.00
C973   C     0.75349   0.16670   0.74995   0.00000  Uiso   1.00
C974   C     0.91318   0.16664   0.75005   0.00000  Uiso   1.00
O975   O     0.83333   0.20489   0.68393   0.00000  Uiso   1.00
O976   O     0.83334   0.12844   0.81608   0.00000  Uiso   1.00
O977   O     0.83334   0.20489   0.81608   0.00000  Uiso   1.00
O978   O     0.83333   0.12844   0.68393   0.00000  Uiso   1.00
C979   C     0.83286   0.16659   0.66383   0.00000  Uiso   1.00
C980   C     0.83380   0.16674   0.83617   0.00000  Uiso   1.00
Zn981  Zn    0.83333   0.21771   0.75000   0.00000  Uiso   1.00
Zn982  Zn    0.83333   0.11563   0.75000   0.00000  Uiso   1.00
C983   C     0.87348   0.16232   0.90930   0.00000  Uiso   1.00
C984   C     0.79319   0.17101   0.59070   0.00000  Uiso   1.00
C985   C     0.83541   0.16694   0.88388   0.00000  Uiso   1.00
C986   C     0.83126   0.16639   0.61612   0.00000  Uiso   1.00
C987   C     0.79759   0.17162   0.90328   0.00000  Uiso   1.00
C988   C     0.86908   0.16171   0.59672   0.00000  Uiso   1.00
C989   C     0.79580   0.17122   0.94965   0.00000  Uiso   1.00
C990   C     0.87086   0.16210   0.55035   0.00000  Uiso   1.00
C991   C     0.83376   0.16670   0.97652   0.00000  Uiso   1.00
C992   C     0.83291   0.16663   0.52348   0.00000  Uiso   1.00
C993   C     0.87261   0.16222   0.95640   0.00000  Uiso   1.00
C994   C     0.79405   0.17111   0.54360   0.00000  Uiso   1.00
C995   C     0.75711   0.17534   0.96970   0.00000  Uiso   1.00
C996   C     0.90955   0.15799   0.53030   0.00000  Uiso   1.00
C997   C     0.75691   0.17544   0.51632   0.00000  Uiso   1.00
C998   C     0.90975   0.15788   0.98368   0.00000  Uiso   1.00
H999   H     0.76966   0.17522   0.88121   0.00000  Uiso   1.00
H1000  H     0.89701   0.15811   0.61879   0.00000  Uiso   1.00
H1001  H     0.72704   0.17861   0.53097   0.00000  Uiso   1.00
H1002  H     0.93963   0.15471   0.96903   0.00000  Uiso   1.00
C1003  C     0.68910   0.12927   0.76582   0.00000  Uiso   1.00
C1004  C     0.97756   0.20406   0.73418   0.00000  Uiso   1.00
C1005  C     0.97966   0.12925   0.76585   0.00000  Uiso   1.00
C1006  C     0.68700   0.20408   0.73415   0.00000  Uiso   1.00
H1007  H     0.70633   0.10039   0.77853   0.00000  Uiso   1.00
H1008  H     0.96034   0.23295   0.72147   0.00000  Uiso   1.00
H1009  H     0.96415   0.10039   0.77858   0.00000  Uiso   1.00
H1010  H     0.70252   0.23295   0.72142   0.00000  Uiso   1.00
C1011  C     0.95741   0.16663   0.75002   0.00000  Uiso   1.00
C1012  C     0.70926   0.16670   0.74998   0.00000  Uiso   1.00
C1013  C     0.86003   0.02390   0.77921   0.00000  Uiso   1.00
C1014  C     0.80664   0.30944   0.72079   0.00000  Uiso   1.00
C1015  C     0.80657   0.02387   0.72087   0.00000  Uiso   1.00
C1016  C     0.86010   0.30947   0.77913   0.00000  Uiso   1.00
N1017  N     0.83333   0.28573   0.75000   0.00000  Uiso   1.00
N1018  N     0.83333   0.04760   0.75000   0.00000  Uiso   1.00
C1019  C     0.91445   0.15777   0.88656   0.00000  Uiso   1.00
H1020  H     0.92908   0.12518   0.89546   0.00000  Uiso   1.00
H1021  H     0.91101   0.15931   0.84943   0.00000  Uiso   1.00
H1022  H     0.93587   0.18526   0.89760   0.00000  Uiso   1.00
C1023  C     0.75222   0.17556   0.61344   0.00000  Uiso   1.00
H1024  H     0.73759   0.20815   0.60454   0.00000  Uiso   1.00
H1025  H     0.73080   0.14807   0.60240   0.00000  Uiso   1.00
H1026  H     0.75565   0.17402   0.65057   0.00000  Uiso   1.00
C1027  C     0.71532   0.17924   0.94284   0.00000  Uiso   1.00
C1028  C     0.70081   0.13409   0.92405   0.00000  Uiso   1.00
H1029  H     0.72473   0.11855   0.90368   0.00000  Uiso   1.00
H1030  H     0.69425   0.11134   0.95202   0.00000  Uiso   1.00
H1031  H     0.67176   0.13849   0.90226   0.00000  Uiso   1.00
H1032  H     0.69073   0.19201   0.96428   0.00000  Uiso   1.00
H1033  H     0.71700   0.20403   0.91550   0.00000  Uiso   1.00
C1034  C     0.95135   0.15407   0.55716   0.00000  Uiso   1.00
C1035  C     0.96587   0.19922   0.57595   0.00000  Uiso   1.00
H1036  H     0.97245   0.22196   0.54798   0.00000  Uiso   1.00
H1037  H     0.94194   0.21478   0.59630   0.00000  Uiso   1.00
H1038  H     0.99490   0.19481   0.59776   0.00000  Uiso   1.00
H1039  H     0.94966   0.12929   0.58450   0.00000  Uiso   1.00
H1040  H     0.97593   0.14130   0.53572   0.00000  Uiso   1.00
C1041  C     0.88992   0.04748   0.81261   0.00000  Uiso   1.00
H1042  H     0.88952   0.08346   0.81016   0.00000  Uiso   1.00
H1043  H     0.88222   0.03939   0.84741   0.00000  Uiso   1.00
H1044  H     0.92257   0.03735   0.80751   0.00000  Uiso   1.00
C1045  C     0.77675   0.28585   0.68739   0.00000  Uiso   1.00
H1046  H     0.77714   0.24987   0.68984   0.00000  Uiso   1.00
H1047  H     0.74409   0.29599   0.69249   0.00000  Uiso   1.00
H1048  H     0.78445   0.29394   0.65259   0.00000  Uiso   1.00
C1049  C     0.77602   0.04744   0.68818   0.00000  Uiso   1.00
H1050  H     0.77750   0.08346   0.68946   0.00000  Uiso   1.00
H1051  H     0.78197   0.03797   0.65315   0.00000  Uiso   1.00
H1052  H     0.74347   0.03868   0.69523   0.00000  Uiso   1.00
C1053  C     0.89065   0.28590   0.81182   0.00000  Uiso   1.00
H1054  H     0.88916   0.24987   0.81054   0.00000  Uiso   1.00
H1055  H     0.92320   0.29466   0.80477   0.00000  Uiso   1.00
H1056  H     0.88470   0.29536   0.84685   0.00000  Uiso   1.00
O1057  O     0.10559   0.53821   0.75000   0.00000  Uiso   1.00
O1058  O     0.22774   0.46179   0.75001   0.00000  Uiso   1.00
O1059  O     0.22774   0.53821   0.75001   0.00000  Uiso   1.00
O1060  O     0.10559   0.46179   0.75000   0.00000  Uiso   1.00
C1061  C     0.08682   0.50003   0.74995   0.00000  Uiso   1.00
C1062  C     0.24651   0.49997   0.75005   0.00000  Uiso   1.00
O1063  O     0.16666   0.53823   0.68393   0.00000  Uiso   1.00
O1064  O     0.16667   0.46177   0.81608   0.00000  Uiso   1.00
O1065  O     0.16667   0.53823   0.81608   0.00000  Uiso   1.00
O1066  O     0.16666   0.46177   0.68393   0.00000  Uiso   1.00
C1067  C     0.16620   0.49992   0.66383   0.00000  Uiso   1.00
C1068  C     0.16714   0.50008   0.83617   0.00000  Uiso   1.00
Zn1069 Zn    0.16667   0.55104   0.75000   0.00000  Uiso   1.00
Zn1070 Zn    0.16667   0.44896   0.75000   0.00000  Uiso   1.00
C1071  C     0.20681   0.49565   0.90930   0.00000  Uiso   1.00
C1072  C     0.12652   0.50434   0.59070   0.00000  Uiso   1.00
C1073  C     0.16875   0.50028   0.88388   0.00000  Uiso   1.00
C1074  C     0.16459   0.49972   0.61612   0.00000  Uiso   1.00
C1075  C     0.13092   0.50495   0.90328   0.00000  Uiso   1.00
C1076  C     0.20241   0.49504   0.59672   0.00000  Uiso   1.00
C1077  C     0.12914   0.50456   0.94965   0.00000  Uiso   1.00
C1078  C     0.20420   0.49544   0.55035   0.00000  Uiso   1.00
C1079  C     0.16709   0.50003   0.97652   0.00000  Uiso   1.00
C1080  C     0.16624   0.49997   0.52348   0.00000  Uiso   1.00
C1081  C     0.20595   0.49555   0.95640   0.00000  Uiso   1.00
C1082  C     0.12738   0.50444   0.54360   0.00000  Uiso   1.00
C1083  C     0.09045   0.50867   0.96970   0.00000  Uiso   1.00
C1084  C     0.24288   0.49132   0.53030   0.00000  Uiso   1.00
C1085  C     0.09025   0.50877   0.51632   0.00000  Uiso   1.00
C1086  C     0.24309   0.49122   0.98368   0.00000  Uiso   1.00
H1087  H     0.10299   0.50856   0.88121   0.00000  Uiso   1.00
H1088  H     0.23034   0.49144   0.61879   0.00000  Uiso   1.00
H1089  H     0.06037   0.51194   0.53097   0.00000  Uiso   1.00
H1090  H     0.27296   0.48805   0.96903   0.00000  Uiso   1.00
C1091  C     0.02244   0.46261   0.76582   0.00000  Uiso   1.00
C1092  C     0.31090   0.53739   0.73418   0.00000  Uiso   1.00
C1093  C     0.31300   0.46259   0.76585   0.00000  Uiso   1.00
C1094  C     0.02034   0.53741   0.73415   0.00000  Uiso   1.00
H1095  H     0.03966   0.43372   0.77853   0.00000  Uiso   1.00
H1096  H     0.29367   0.56628   0.72147   0.00000  Uiso   1.00
H1097  H     0.29748   0.43372   0.77858   0.00000  Uiso   1.00
H1098  H     0.03585   0.56628   0.72142   0.00000  Uiso   1.00
C1099  C     0.29074   0.49996   0.75002   0.00000  Uiso   1.00
C1100  C     0.04259   0.50004   0.74998   0.00000  Uiso   1.00
C1101  C     0.19336   0.35723   0.77921   0.00000  Uiso   1.00
C1102  C     0.13997   0.64277   0.72079   0.00000  Uiso   1.00
C1103  C     0.13990   0.35720   0.72087   0.00000  Uiso   1.00
C1104  C     0.19343   0.64280   0.77913   0.00000  Uiso   1.00
N1105  N     0.16667   0.61907   0.75000   0.00000  Uiso   1.00
N1106  N     0.16667   0.38093   0.75000   0.00000  Uiso   1.00
C1107  C     0.24778   0.49110   0.88656   0.00000  Uiso   1.00
H1108  H     0.26241   0.45852   0.89546   0.00000  Uiso   1.00
H1109  H     0.24435   0.49265   0.84943   0.00000  Uiso   1.00
H1110  H     0.26920   0.51859   0.89760   0.00000  Uiso   1.00
C1111  C     0.08555   0.50889   0.61344   0.00000  Uiso   1.00
H1112  H     0.07092   0.54148   0.60454   0.00000  Uiso   1.00
H1113  H     0.06413   0.48141   0.60240   0.00000  Uiso   1.00
H1114  H     0.08899   0.50736   0.65057   0.00000  Uiso   1.00
C1115  C     0.04865   0.51258   0.94284   0.00000  Uiso   1.00
C1116  C     0.03414   0.46743   0.92405   0.00000  Uiso   1.00
H1117  H     0.05806   0.45188   0.90368   0.00000  Uiso   1.00
H1118  H     0.02758   0.44467   0.95202   0.00000  Uiso   1.00
H1119  H     0.00509   0.47182   0.90226   0.00000  Uiso   1.00
H1120  H     0.02406   0.52534   0.96428   0.00000  Uiso   1.00
H1121  H     0.05033   0.53736   0.91550   0.00000  Uiso   1.00
C1122  C     0.28468   0.48740   0.55716   0.00000  Uiso   1.00
C1123  C     0.29920   0.53255   0.57595   0.00000  Uiso   1.00
H1124  H     0.30578   0.55529   0.54798   0.00000  Uiso   1.00
H1125  H     0.27528   0.54811   0.59630   0.00000  Uiso   1.00
H1126  H     0.32824   0.52815   0.59776   0.00000  Uiso   1.00
H1127  H     0.28300   0.46262   0.58450   0.00000  Uiso   1.00
H1128  H     0.30926   0.47463   0.53572   0.00000  Uiso   1.00
C1129  C     0.22325   0.38082   0.81261   0.00000  Uiso   1.00
H1130  H     0.22286   0.41680   0.81016   0.00000  Uiso   1.00
H1131  H     0.21555   0.37272   0.84741   0.00000  Uiso   1.00
H1132  H     0.25591   0.37068   0.80751   0.00000  Uiso   1.00
C1133  C     0.11008   0.61918   0.68739   0.00000  Uiso   1.00
H1134  H     0.11048   0.58320   0.68984   0.00000  Uiso   1.00
H1135  H     0.07743   0.62932   0.69249   0.00000  Uiso   1.00
H1136  H     0.11778   0.62728   0.65259   0.00000  Uiso   1.00
C1137  C     0.10935   0.38077   0.68818   0.00000  Uiso   1.00
H1138  H     0.11084   0.41680   0.68946   0.00000  Uiso   1.00
H1139  H     0.11530   0.37130   0.65315   0.00000  Uiso   1.00
H1140  H     0.07680   0.37201   0.69523   0.00000  Uiso   1.00
C1141  C     0.22398   0.61923   0.81182   0.00000  Uiso   1.00
H1142  H     0.22250   0.58320   0.81054   0.00000  Uiso   1.00
H1143  H     0.25653   0.62799   0.80477   0.00000  Uiso   1.00
H1144  H     0.21803   0.62870   0.84685   0.00000  Uiso   1.00
O1145  O     0.43892   0.53821   0.75000   0.00000  Uiso   1.00
O1146  O     0.56108   0.46179   0.75001   0.00000  Uiso   1.00
O1147  O     0.56108   0.53821   0.75001   0.00000  Uiso   1.00
O1148  O     0.43892   0.46179   0.75000   0.00000  Uiso   1.00
C1149  C     0.42015   0.50003   0.74995   0.00000  Uiso   1.00
C1150  C     0.57985   0.49997   0.75005   0.00000  Uiso   1.00
O1151  O     0.49999   0.53823   0.68393   0.00000  Uiso   1.00
O1152  O     0.50001   0.46177   0.81608   0.00000  Uiso   1.00
O1153  O     0.50001   0.53823   0.81608   0.00000  Uiso   1.00
O1154  O     0.49999   0.46177   0.68393   0.00000  Uiso   1.00
C1155  C     0.49953   0.49992   0.66383   0.00000  Uiso   1.00
C1156  C     0.50047   0.50008   0.83617   0.00000  Uiso   1.00
Zn1157 Zn    0.50000   0.55104   0.75000   0.00000  Uiso   1.00
Zn1158 Zn    0.50000   0.44896   0.75000   0.00000  Uiso   1.00
C1159  C     0.54014   0.49565   0.90930   0.00000  Uiso   1.00
C1160  C     0.45986   0.50434   0.59070   0.00000  Uiso   1.00
C1161  C     0.50208   0.50028   0.88388   0.00000  Uiso   1.00
C1162  C     0.49792   0.49972   0.61612   0.00000  Uiso   1.00
C1163  C     0.46425   0.50495   0.90328   0.00000  Uiso   1.00
C1164  C     0.53575   0.49504   0.59672   0.00000  Uiso   1.00
C1165  C     0.46247   0.50456   0.94965   0.00000  Uiso   1.00
C1166  C     0.53753   0.49544   0.55035   0.00000  Uiso   1.00
C1167  C     0.50043   0.50003   0.97652   0.00000  Uiso   1.00
C1168  C     0.49957   0.49997   0.52348   0.00000  Uiso   1.00
C1169  C     0.53928   0.49555   0.95640   0.00000  Uiso   1.00
C1170  C     0.46072   0.50444   0.54360   0.00000  Uiso   1.00
C1171  C     0.42378   0.50867   0.96970   0.00000  Uiso   1.00
C1172  C     0.57622   0.49132   0.53030   0.00000  Uiso   1.00
C1173  C     0.42358   0.50877   0.51632   0.00000  Uiso   1.00
C1174  C     0.57642   0.49122   0.98368   0.00000  Uiso   1.00
H1175  H     0.43632   0.50856   0.88121   0.00000  Uiso   1.00
H1176  H     0.56368   0.49144   0.61879   0.00000  Uiso   1.00
H1177  H     0.39371   0.51194   0.53097   0.00000  Uiso   1.00
H1178  H     0.60629   0.48805   0.96903   0.00000  Uiso   1.00
C1179  C     0.35577   0.46261   0.76582   0.00000  Uiso   1.00
C1180  C     0.64423   0.53739   0.73418   0.00000  Uiso   1.00
C1181  C     0.64633   0.46259   0.76585   0.00000  Uiso   1.00
C1182  C     0.35367   0.53741   0.73415   0.00000  Uiso   1.00
H1183  H     0.37300   0.43372   0.77853   0.00000  Uiso   1.00
H1184  H     0.62700   0.56628   0.72147   0.00000  Uiso   1.00
H1185  H     0.63081   0.43372   0.77858   0.00000  Uiso   1.00
H1186  H     0.36919   0.56628   0.72142   0.00000  Uiso   1.00
C1187  C     0.62408   0.49996   0.75002   0.00000  Uiso   1.00
C1188  C     0.37592   0.50004   0.74998   0.00000  Uiso   1.00
C1189  C     0.52669   0.35723   0.77921   0.00000  Uiso   1.00
C1190  C     0.47331   0.64277   0.72079   0.00000  Uiso   1.00
C1191  C     0.47324   0.35720   0.72087   0.00000  Uiso   1.00
C1192  C     0.52676   0.64280   0.77913   0.00000  Uiso   1.00
N1193  N     0.50000   0.61907   0.75000   0.00000  Uiso   1.00
N1194  N     0.50000   0.38093   0.75000   0.00000  Uiso   1.00
C1195  C     0.58112   0.49110   0.88656   0.00000  Uiso   1.00
H1196  H     0.59574   0.45852   0.89546   0.00000  Uiso   1.00
H1197  H     0.57768   0.49265   0.84943   0.00000  Uiso   1.00
H1198  H     0.60254   0.51859   0.89760   0.00000  Uiso   1.00
C1199  C     0.41888   0.50889   0.61344   0.00000  Uiso   1.00
H1200  H     0.40425   0.54148   0.60454   0.00000  Uiso   1.00
H1201  H     0.39747   0.48141   0.60240   0.00000  Uiso   1.00
H1202  H     0.42232   0.50736   0.65057   0.00000  Uiso   1.00
C1203  C     0.38198   0.51258   0.94284   0.00000  Uiso   1.00
C1204  C     0.36747   0.46743   0.92405   0.00000  Uiso   1.00
H1205  H     0.39139   0.45188   0.90368   0.00000  Uiso   1.00
H1206  H     0.36092   0.44467   0.95202   0.00000  Uiso   1.00
H1207  H     0.33843   0.47182   0.90226   0.00000  Uiso   1.00
H1208  H     0.35740   0.52534   0.96428   0.00000  Uiso   1.00
H1209  H     0.38366   0.53736   0.91550   0.00000  Uiso   1.00
C1210  C     0.61801   0.48740   0.55716   0.00000  Uiso   1.00
C1211  C     0.63253   0.53255   0.57595   0.00000  Uiso   1.00
H1212  H     0.63912   0.55529   0.54798   0.00000  Uiso   1.00
H1213  H     0.60861   0.54811   0.59630   0.00000  Uiso   1.00
H1214  H     0.66157   0.52815   0.59776   0.00000  Uiso   1.00
H1215  H     0.61633   0.46262   0.58450   0.00000  Uiso   1.00
H1216  H     0.64260   0.47463   0.53572   0.00000  Uiso   1.00
C1217  C     0.55658   0.38082   0.81261   0.00000  Uiso   1.00
H1218  H     0.55619   0.41680   0.81016   0.00000  Uiso   1.00
H1219  H     0.54889   0.37272   0.84741   0.00000  Uiso   1.00
H1220  H     0.58924   0.37068   0.80751   0.00000  Uiso   1.00
C1221  C     0.44342   0.61918   0.68739   0.00000  Uiso   1.00
H1222  H     0.44381   0.58320   0.68984   0.00000  Uiso   1.00
H1223  H     0.41076   0.62932   0.69249   0.00000  Uiso   1.00
H1224  H     0.45111   0.62728   0.65259   0.00000  Uiso   1.00
C1225  C     0.44268   0.38077   0.68818   0.00000  Uiso   1.00
H1226  H     0.44417   0.41680   0.68946   0.00000  Uiso   1.00
H1227  H     0.44863   0.37130   0.65315   0.00000  Uiso   1.00
H1228  H     0.41014   0.37201   0.69523   0.00000  Uiso   1.00
C1229  C     0.55732   0.61923   0.81182   0.00000  Uiso   1.00
H1230  H     0.55583   0.58320   0.81054   0.00000  Uiso   1.00
H1231  H     0.58986   0.62799   0.80477   0.00000  Uiso   1.00
H1232  H     0.55137   0.62870   0.84685   0.00000  Uiso   1.00
O1233  O     0.77226   0.53821   0.75000   0.00000  Uiso   1.00
O1234  O     0.89441   0.46179   0.75001   0.00000  Uiso   1.00
O1235  O     0.89441   0.53821   0.75001   0.00000  Uiso   1.00
O1236  O     0.77226   0.46179   0.75000   0.00000  Uiso   1.00
C1237  C     0.75349   0.50003   0.74995   0.00000  Uiso   1.00
C1238  C     0.91318   0.49997   0.75005   0.00000  Uiso   1.00
O1239  O     0.83333   0.53823   0.68393   0.00000  Uiso   1.00
O1240  O     0.83334   0.46177   0.81608   0.00000  Uiso   1.00
O1241  O     0.83334   0.53823   0.81608   0.00000  Uiso   1.00
O1242  O     0.83333   0.46177   0.68393   0.00000  Uiso   1.00
C1243  C     0.83286   0.49992   0.66383   0.00000  Uiso   1.00
C1244  C     0.83380   0.50008   0.83617   0.00000  Uiso   1.00
Zn1245 Zn    0.83333   0.55104   0.75000   0.00000  Uiso   1.00
Zn1246 Zn    0.83333   0.44896   0.75000   0.00000  Uiso   1.00
C1247  C     0.87348   0.49565   0.90930   0.00000  Uiso   1.00
C1248  C     0.79319   0.50434   0.59070   0.00000  Uiso   1.00
C1249  C     0.83541   0.50028   0.88388   0.00000  Uiso   1.00
C1250  C     0.83126   0.49972   0.61612   0.00000  Uiso   1.00
C1251  C     0.79759   0.50495   0.90328   0.00000  Uiso   1.00
C1252  C     0.86908   0.49504   0.59672   0.00000  Uiso   1.00
C1253  C     0.79580   0.50456   0.94965   0.00000  Uiso   1.00
C1254  C     0.87086   0.49544   0.55035   0.00000  Uiso   1.00
C1255  C     0.83376   0.50003   0.97652   0.00000  Uiso   1.00
C1256  C     0.83291   0.49997   0.52348   0.00000  Uiso   1.00
C1257  C     0.87261   0.49555   0.95640   0.00000  Uiso   1.00
C1258  C     0.79405   0.50444   0.54360   0.00000  Uiso   1.00
C1259  C     0.75711   0.50867   0.96970   0.00000  Uiso   1.00
C1260  C     0.90955   0.49132   0.53030   0.00000  Uiso   1.00
C1261  C     0.75691   0.50877   0.51632   0.00000  Uiso   1.00
C1262  C     0.90975   0.49122   0.98368   0.00000  Uiso   1.00
H1263  H     0.76966   0.50856   0.88121   0.00000  Uiso   1.00
H1264  H     0.89701   0.49144   0.61879   0.00000  Uiso   1.00
H1265  H     0.72704   0.51194   0.53097   0.00000  Uiso   1.00
H1266  H     0.93963   0.48805   0.96903   0.00000  Uiso   1.00
C1267  C     0.68910   0.46261   0.76582   0.00000  Uiso   1.00
C1268  C     0.97756   0.53739   0.73418   0.00000  Uiso   1.00
C1269  C     0.97966   0.46259   0.76585   0.00000  Uiso   1.00
C1270  C     0.68700   0.53741   0.73415   0.00000  Uiso   1.00
H1271  H     0.70633   0.43372   0.77853   0.00000  Uiso   1.00
H1272  H     0.96034   0.56628   0.72147   0.00000  Uiso   1.00
H1273  H     0.96415   0.43372   0.77858   0.00000  Uiso   1.00
H1274  H     0.70252   0.56628   0.72142   0.00000  Uiso   1.00
C1275  C     0.95741   0.49996   0.75002   0.00000  Uiso   1.00
C1276  C     0.70926   0.50004   0.74998   0.00000  Uiso   1.00
C1277  C     0.86003   0.35723   0.77921   0.00000  Uiso   1.00
C1278  C     0.80664   0.64277   0.72079   0.00000  Uiso   1.00
C1279  C     0.80657   0.35720   0.72087   0.00000  Uiso   1.00
C1280  C     0.86010   0.64280   0.77913   0.00000  Uiso   1.00
N1281  N     0.83333   0.61907   0.75000   0.00000  Uiso   1.00
N1282  N     0.83333   0.38093   0.75000   0.00000  Uiso   1.00
C1283  C     0.91445   0.49110   0.88656   0.00000  Uiso   1.00
H1284  H     0.92908   0.45852   0.89546   0.00000  Uiso   1.00
H1285  H     0.91101   0.49265   0.84943   0.00000  Uiso   1.00
H1286  H     0.93587   0.51859   0.89760   0.00000  Uiso   1.00
C1287  C     0.75222   0.50889   0.61344   0.00000  Uiso   1.00
H1288  H     0.73759   0.54148   0.60454   0.00000  Uiso   1.00
H1289  H     0.73080   0.48141   0.60240   0.00000  Uiso   1.00
H1290  H     0.75565   0.50736   0.65057   0.00000  Uiso   1.00
C1291  C     0.71532   0.51258   0.94284   0.00000  Uiso   1.00
C1292  C     0.70081   0.46743   0.92405   0.00000  Uiso   1.00
H1293  H     0.72473   0.45188   0.90368   0.00000  Uiso   1.00
H1294  H     0.69425   0.44467   0.95202   0.00000  Uiso   1.00
H1295  H     0.67176   0.47182   0.90226   0.00000  Uiso   1.00
H1296  H     0.69073   0.52534   0.96428   0.00000  Uiso   1.00
H1297  H     0.71700   0.53736   0.91550   0.00000  Uiso   1.00
C1298  C     0.95135   0.48740   0.55716   0.00000  Uiso   1.00
C1299  C     0.96587   0.53255   0.57595   0.00000  Uiso   1.00
H1300  H     0.97245   0.55529   0.54798   0.00000  Uiso   1.00
H1301  H     0.94194   0.54811   0.59630   0.00000  Uiso   1.00
H1302  H     0.99490   0.52815   0.59776   0.00000  Uiso   1.00
H1303  H     0.94966   0.46262   0.58450   0.00000  Uiso   1.00
H1304  H     0.97593   0.47463   0.53572   0.00000  Uiso   1.00
C1305  C     0.88992   0.38082   0.81261   0.00000  Uiso   1.00
H1306  H     0.88952   0.41680   0.81016   0.00000  Uiso   1.00
H1307  H     0.88222   0.37272   0.84741   0.00000  Uiso   1.00
H1308  H     0.92257   0.37068   0.80751   0.00000  Uiso   1.00
C1309  C     0.77675   0.61918   0.68739   0.00000  Uiso   1.00
H1310  H     0.77714   0.58320   0.68984   0.00000  Uiso   1.00
H1311  H     0.74409   0.62932   0.69249   0.00000  Uiso   1.00
H1312  H     0.78445   0.62728   0.65259   0.00000  Uiso   1.00
C1313  C     0.77602   0.38077   0.68818   0.00000  Uiso   1.00
H1314  H     0.77750   0.41680   0.68946   0.00000  Uiso   1.00
H1315  H     0.78197   0.37130   0.65315   0.00000  Uiso   1.00
H1316  H     0.74347   0.37201   0.69523   0.00000  Uiso   1.00
C1317  C     0.89065   0.61923   0.81182   0.00000  Uiso   1.00
H1318  H     0.88916   0.58320   0.81054   0.00000  Uiso   1.00
H1319  H     0.92320   0.62799   0.80477   0.00000  Uiso   1.00
H1320  H     0.88470   0.62870   0.84685   0.00000  Uiso   1.00
O1321  O     0.10559   0.87154   0.75000   0.00000  Uiso   1.00
O1322  O     0.22774   0.79513   0.75001   0.00000  Uiso   1.00
O1323  O     0.22774   0.87154   0.75001   0.00000  Uiso   1.00
O1324  O     0.10559   0.79513   0.75000   0.00000  Uiso   1.00
C1325  C     0.08682   0.83336   0.74995   0.00000  Uiso   1.00
C1326  C     0.24651   0.83330   0.75005   0.00000  Uiso   1.00
O1327  O     0.16666   0.87156   0.68393   0.00000  Uiso   1.00
O1328  O     0.16667   0.79511   0.81608   0.00000  Uiso   1.00
O1329  O     0.16667   0.87156   0.81608   0.00000  Uiso   1.00
O1330  O     0.16666   0.79511   0.68393   0.00000  Uiso   1.00
C1331  C     0.16620   0.83326   0.66383   0.00000  Uiso   1.00
C1332  C     0.16714   0.83341   0.83617   0.00000  Uiso   1.00
Zn1333 Zn    0.16667   0.88437   0.75000   0.00000  Uiso   1.00
Zn1334 Zn    0.16667   0.78229   0.75000   0.00000  Uiso   1.00
C1335  C     0.20681   0.82899   0.90930   0.00000  Uiso   1.00
C1336  C     0.12652   0.83768   0.59070   0.00000  Uiso   1.00
C1337  C     0.16875   0.83361   0.88388   0.00000  Uiso   1.00
C1338  C     0.16459   0.83306   0.61612   0.00000  Uiso   1.00
C1339  C     0.13092   0.83829   0.90328   0.00000  Uiso   1.00
C1340  C     0.20241   0.82838   0.59672   0.00000  Uiso   1.00
C1341  C     0.12914   0.83789   0.94965   0.00000  Uiso   1.00
C1342  C     0.20420   0.82877   0.55035   0.00000  Uiso   1.00
C1343  C     0.16709   0.83336   0.97652   0.00000  Uiso   1.00
C1344  C     0.16624   0.83330   0.52348   0.00000  Uiso   1.00
C1345  C     0.20595   0.82889   0.95640   0.00000  Uiso   1.00
C1346  C     0.12738   0.83777   0.54360   0.00000  Uiso   1.00
C1347  C     0.09045   0.84200   0.96970   0.00000  Uiso   1.00
C1348  C     0.24288   0.82465   0.53030   0.00000  Uiso   1.00
C1349  C     0.09025   0.84211   0.51632   0.00000  Uiso   1.00
C1350  C     0.24309   0.82455   0.98368   0.00000  Uiso   1.00
H1351  H     0.10299   0.84189   0.88121   0.00000  Uiso   1.00
H1352  H     0.23034   0.82478   0.61879   0.00000  Uiso   1.00
H1353  H     0.06037   0.84527   0.53097   0.00000  Uiso   1.00
H1354  H     0.27296   0.82138   0.96903   0.00000  Uiso   1.00
C1355  C     0.02244   0.79594   0.76582   0.00000  Uiso   1.00
C1356  C     0.31090   0.87073   0.73418   0.00000  Uiso   1.00
C1357  C     0.31300   0.79592   0.76585   0.00000  Uiso   1.00
C1358  C     0.02034   0.87075   0.73415   0.00000  Uiso   1.00
H1359  H     0.03966   0.76705   0.77853   0.00000  Uiso   1.00
H1360  H     0.29367   0.89961   0.72147   0.00000  Uiso   1.00
H1361  H     0.29748   0.76705   0.77858   0.00000  Uiso   1.00
H1362  H     0.03585   0.89961   0.72142   0.00000  Uiso   1.00
C1363  C     0.29074   0.83330   0.75002   0.00000  Uiso   1.00
C1364  C     0.04259   0.83337   0.74998   0.00000  Uiso   1.00
C1365  C     0.19336   0.69056   0.77921   0.00000  Uiso   1.00
C1366  C     0.13997   0.97610   0.72079   0.00000  Uiso   1.00
C1367  C     0.13990   0.69053   0.72087   0.00000  Uiso   1.00
C1368  C     0.19343   0.97613   0.77913   0.00000  Uiso   1.00
N1369  N     0.16667   0.95240   0.75000   0.00000  Uiso   1.00
N1370  N     0.16667   0.71427   0.75000   0.00000  Uiso   1.00
C1371  C     0.24778   0.82444   0.88656   0.00000  Uiso   1.00
H1372  H     0.26241   0.79185   0.89546   0.00000  Uiso   1.00
H1373  H     0.24435   0.82598   0.84943   0.00000  Uiso   1.00
H1374  H     0.26920   0.85192   0.89760   0.00000  Uiso   1.00
C1375  C     0.08555   0.84223   0.61344   0.00000  Uiso   1.00
H1376  H     0.07092   0.87481   0.60454   0.00000  Uiso   1.00
H1377  H     0.06413   0.81474   0.60240   0.00000  Uiso   1.00
H1378  H     0.08899   0.84069   0.65057   0.00000  Uiso   1.00
C1379  C     0.04865   0.84591   0.94284   0.00000  Uiso   1.00
C1380  C     0.03414   0.80076   0.92405   0.00000  Uiso   1.00
H1381  H     0.05806   0.78522   0.90368   0.00000  Uiso   1.00
H1382  H     0.02758   0.77800   0.95202   0.00000  Uiso   1.00
H1383  H     0.00509   0.80515   0.90226   0.00000  Uiso   1.00
H1384  H     0.02406   0.85867   0.96428   0.00000  Uiso   1.00
H1385  H     0.05033   0.87069   0.91550   0.00000  Uiso   1.00
C1386  C     0.28468   0.82074   0.55716   0.00000  Uiso   1.00
C1387  C     0.29920   0.86588   0.57595   0.00000  Uiso   1.00
H1388  H     0.30578   0.88863   0.54798   0.00000  Uiso   1.00
H1389  H     0.27528   0.88145   0.59630   0.00000  Uiso   1.00
H1390  H     0.32824   0.86148   0.59776   0.00000  Uiso   1.00
H1391  H     0.28300   0.79596   0.58450   0.00000  Uiso   1.00
H1392  H     0.30926   0.80797   0.53572   0.00000  Uiso   1.00
C1393  C     0.22325   0.71415   0.81261   0.00000  Uiso   1.00
H1394  H     0.22286   0.75013   0.81016   0.00000  Uiso   1.00
H1395  H     0.21555   0.70606   0.84741   0.00000  Uiso   1.00
H1396  H     0.25591   0.70401   0.80751   0.00000  Uiso   1.00
C1397  C     0.11008   0.95252   0.68739   0.00000  Uiso   1.00
H1398  H     0.11048   0.91654   0.68984   0.00000  Uiso   1.00
H1399  H     0.07743   0.96265   0.69249   0.00000  Uiso   1.00
H1400  H     0.11778   0.96061   0.65259   0.00000  Uiso   1.00
C1401  C     0.10935   0.71411   0.68818   0.00000  Uiso   1.00
H1402  H     0.11084   0.75013   0.68946   0.00000  Uiso   1.00
H1403  H     0.11530   0.70464   0.65315   0.00000  Uiso   1.00
H1404  H     0.07680   0.70535   0.69523   0.00000  Uiso   1.00
C1405  C     0.22398   0.95256   0.81182   0.00000  Uiso   1.00
H1406  H     0.22250   0.91654   0.81054   0.00000  Uiso   1.00
H1407  H     0.25653   0.96132   0.80477   0.00000  Uiso   1.00
H1408  H     0.21803   0.96203   0.84685   0.00000  Uiso   1.00
O1409  O     0.43892   0.87154   0.75000   0.00000  Uiso   1.00
O1410  O     0.56108   0.79513   0.75001   0.00000  Uiso   1.00
O1411  O     0.56108   0.87154   0.75001   0.00000  Uiso   1.00
O1412  O     0.43892   0.79513   0.75000   0.00000  Uiso   1.00
C1413  C     0.42015   0.83336   0.74995   0.00000  Uiso   1.00
C1414  C     0.57985   0.83330   0.75005   0.00000  Uiso   1.00
O1415  O     0.49999   0.87156   0.68393   0.00000  Uiso   1.00
O1416  O     0.50001   0.79511   0.81608   0.00000  Uiso   1.00
O1417  O     0.50001   0.87156   0.81608   0.00000  Uiso   1.00
O1418  O     0.49999   0.79511   0.68393   0.00000  Uiso   1.00
C1419  C     0.49953   0.83326   0.66383   0.00000  Uiso   1.00
C1420  C     0.50047   0.83341   0.83617   0.00000  Uiso   1.00
Zn1421 Zn    0.50000   0.88437   0.75000   0.00000  Uiso   1.00
Zn1422 Zn    0.50000   0.78229   0.75000   0.00000  Uiso   1.00
C1423  C     0.54014   0.82899   0.90930   0.00000  Uiso   1.00
C1424  C     0.45986   0.83768   0.59070   0.00000  Uiso   1.00
C1425  C     0.50208   0.83361   0.88388   0.00000  Uiso   1.00
C1426  C     0.49792   0.83306   0.61612   0.00000  Uiso   1.00
C1427  C     0.46425   0.83829   0.90328   0.00000  Uiso   1.00
C1428  C     0.53575   0.82838   0.59672   0.00000  Uiso   1.00
C1429  C     0.46247   0.83789   0.94965   0.00000  Uiso   1.00
C1430  C     0.53753   0.82877   0.55035   0.00000  Uiso   1.00
C1431  C     0.50043   0.83336   0.97652   0.00000  Uiso   1.00
C1432  C     0.49957   0.83330   0.52348   0.00000  Uiso   1.00
C1433  C     0.53928   0.82889   0.95640   0.00000  Uiso   1.00
C1434  C     0.46072   0.83777   0.54360   0.00000  Uiso   1.00
C1435  C     0.42378   0.84200   0.96970   0.00000  Uiso   1.00
C1436  C     0.57622   0.82465   0.53030   0.00000  Uiso   1.00
C1437  C     0.42358   0.84211   0.51632   0.00000  Uiso   1.00
C1438  C     0.57642   0.82455   0.98368   0.00000  Uiso   1.00
H1439  H     0.43632   0.84189   0.88121   0.00000  Uiso   1.00
H1440  H     0.56368   0.82478   0.61879   0.00000  Uiso   1.00
H1441  H     0.39371   0.84527   0.53097   0.00000  Uiso   1.00
H1442  H     0.60629   0.82138   0.96903   0.00000  Uiso   1.00
C1443  C     0.35577   0.79594   0.76582   0.00000  Uiso   1.00
C1444  C     0.64423   0.87073   0.73418   0.00000  Uiso   1.00
C1445  C     0.64633   0.79592   0.76585   0.00000  Uiso   1.00
C1446  C     0.35367   0.87075   0.73415   0.00000  Uiso   1.00
H1447  H     0.37300   0.76705   0.77853   0.00000  Uiso   1.00
H1448  H     0.62700   0.89961   0.72147   0.00000  Uiso   1.00
H1449  H     0.63081   0.76705   0.77858   0.00000  Uiso   1.00
H1450  H     0.36919   0.89961   0.72142   0.00000  Uiso   1.00
C1451  C     0.62408   0.83330   0.75002   0.00000  Uiso   1.00
C1452  C     0.37592   0.83337   0.74998   0.00000  Uiso   1.00
C1453  C     0.52669   0.69056   0.77921   0.00000  Uiso   1.00
C1454  C     0.47331   0.97610   0.72079   0.00000  Uiso   1.00
C1455  C     0.47324   0.69053   0.72087   0.00000  Uiso   1.00
C1456  C     0.52676   0.97613   0.77913   0.00000  Uiso   1.00
N1457  N     0.50000   0.95240   0.75000   0.00000  Uiso   1.00
N1458  N     0.50000   0.71427   0.75000   0.00000  Uiso   1.00
C1459  C     0.58112   0.82444   0.88656   0.00000  Uiso   1.00
H1460  H     0.59574   0.79185   0.89546   0.00000  Uiso   1.00
H1461  H     0.57768   0.82598   0.84943   0.00000  Uiso   1.00
H1462  H     0.60254   0.85192   0.89760   0.00000  Uiso   1.00
C1463  C     0.41888   0.84223   0.61344   0.00000  Uiso   1.00
H1464  H     0.40425   0.87481   0.60454   0.00000  Uiso   1.00
H1465  H     0.39747   0.81474   0.60240   0.00000  Uiso   1.00
H1466  H     0.42232   0.84069   0.65057   0.00000  Uiso   1.00
C1467  C     0.38198   0.84591   0.94284   0.00000  Uiso   1.00
C1468  C     0.36747   0.80076   0.92405   0.00000  Uiso   1.00
H1469  H     0.39139   0.78522   0.90368   0.00000  Uiso   1.00
H1470  H     0.36092   0.77800   0.95202   0.00000  Uiso   1.00
H1471  H     0.33843   0.80515   0.90226   0.00000  Uiso   1.00
H1472  H     0.35740   0.85867   0.96428   0.00000  Uiso   1.00
H1473  H     0.38366   0.87069   0.91550   0.00000  Uiso   1.00
C1474  C     0.61801   0.82074   0.55716   0.00000  Uiso   1.00
C1475  C     0.63253   0.86588   0.57595   0.00000  Uiso   1.00
H1476  H     0.63912   0.88863   0.54798   0.00000  Uiso   1.00
H1477  H     0.60861   0.88145   0.59630   0.00000  Uiso   1.00
H1478  H     0.66157   0.86148   0.59776   0.00000  Uiso   1.00
H1479  H     0.61633   0.79596   0.58450   0.00000  Uiso   1.00
H1480  H     0.64260   0.80797   0.53572   0.00000  Uiso   1.00
C1481  C     0.55658   0.71415   0.81261   0.00000  Uiso   1.00
H1482  H     0.55619   0.75013   0.81016   0.00000  Uiso   1.00
H1483  H     0.54889   0.70606   0.84741   0.00000  Uiso   1.00
H1484  H     0.58924   0.70401   0.80751   0.00000  Uiso   1.00
C1485  C     0.44342   0.95252   0.68739   0.00000  Uiso   1.00
H1486  H     0.44381   0.91654   0.68984   0.00000  Uiso   1.00
H1487  H     0.41076   0.96265   0.69249   0.00000  Uiso   1.00
H1488  H     0.45111   0.96061   0.65259   0.00000  Uiso   1.00
C1489  C     0.44268   0.71411   0.68818   0.00000  Uiso   1.00
H1490  H     0.44417   0.75013   0.68946   0.00000  Uiso   1.00
H1491  H     0.44863   0.70464   0.65315   0.00000  Uiso   1.00
H1492  H     0.41014   0.70535   0.69523   0.00000  Uiso   1.00
C1493  C     0.55732   0.95256   0.81182   0.00000  Uiso   1.00
H1494  H     0.55583   0.91654   0.81054   0.00000  Uiso   1.00
H1495  H     0.58986   0.96132   0.80477   0.00000  Uiso   1.00
H1496  H     0.55137   0.96203   0.84685   0.00000  Uiso   1.00
O1497  O     0.77226   0.87154   0.75000   0.00000  Uiso   1.00
O1498  O     0.89441   0.79513   0.75001   0.00000  Uiso   1.00
O1499  O     0.89441   0.87154   0.75001   0.00000  Uiso   1.00
O1500  O     0.77226   0.79513   0.75000   0.00000  Uiso   1.00
C1501  C     0.75349   0.83336   0.74995   0.00000  Uiso   1.00
C1502  C     0.91318   0.83330   0.75005   0.00000  Uiso   1.00
O1503  O     0.83333   0.87156   0.68393   0.00000  Uiso   1.00
O1504  O     0.83334   0.79511   0.81608   0.00000  Uiso   1.00
O1505  O     0.83334   0.87156   0.81608   0.00000  Uiso   1.00
O1506  O     0.83333   0.79511   0.68393   0.00000  Uiso   1.00
C1507  C     0.83286   0.83326   0.66383   0.00000  Uiso   1.00
C1508  C     0.83380   0.83341   0.83617   0.00000  Uiso   1.00
Zn1509 Zn    0.83333   0.88437   0.75000   0.00000  Uiso   1.00
Zn1510 Zn    0.83333   0.78229   0.75000   0.00000  Uiso   1.00
C1511  C     0.87348   0.82899   0.90930   0.00000  Uiso   1.00
C1512  C     0.79319   0.83768   0.59070   0.00000  Uiso   1.00
C1513  C     0.83541   0.83361   0.88388   0.00000  Uiso   1.00
C1514  C     0.83126   0.83306   0.61612   0.00000  Uiso   1.00
C1515  C     0.79759   0.83829   0.90328   0.00000  Uiso   1.00
C1516  C     0.86908   0.82838   0.59672   0.00000  Uiso   1.00
C1517  C     0.79580   0.83789   0.94965   0.00000  Uiso   1.00
C1518  C     0.87086   0.82877   0.55035   0.00000  Uiso   1.00
C1519  C     0.83376   0.83336   0.97652   0.00000  Uiso   1.00
C1520  C     0.83291   0.83330   0.52348   0.00000  Uiso   1.00
C1521  C     0.87261   0.82889   0.95640   0.00000  Uiso   1.00
C1522  C     0.79405   0.83777   0.54360   0.00000  Uiso   1.00
C1523  C     0.75711   0.84200   0.96970   0.00000  Uiso   1.00
C1524  C     0.90955   0.82465   0.53030   0.00000  Uiso   1.00
C1525  C     0.75691   0.84211   0.51632   0.00000  Uiso   1.00
C1526  C     0.90975   0.82455   0.98368   0.00000  Uiso   1.00
H1527  H     0.76966   0.84189   0.88121   0.00000  Uiso   1.00
H1528  H     0.89701   0.82478   0.61879   0.00000  Uiso   1.00
H1529  H     0.72704   0.84527   0.53097   0.00000  Uiso   1.00
H1530  H     0.93963   0.82138   0.96903   0.00000  Uiso   1.00
C1531  C     0.68910   0.79594   0.76582   0.00000  Uiso   1.00
C1532  C     0.97756   0.87073   0.73418   0.00000  Uiso   1.00
C1533  C     0.97966   0.79592   0.76585   0.00000  Uiso   1.00
C1534  C     0.68700   0.87075   0.73415   0.00000  Uiso   1.00
H1535  H     0.70633   0.76705   0.77853   0.00000  Uiso   1.00
H1536  H     0.96034   0.89961   0.72147   0.00000  Uiso   1.00
H1537  H     0.96415   0.76705   0.77858   0.00000  Uiso   1.00
H1538  H     0.70252   0.89961   0.72142   0.00000  Uiso   1.00
C1539  C     0.95741   0.83330   0.75002   0.00000  Uiso   1.00
C1540  C     0.70926   0.83337   0.74998   0.00000  Uiso   1.00
C1541  C     0.86003   0.69056   0.77921   0.00000  Uiso   1.00
C1542  C     0.80664   0.97610   0.72079   0.00000  Uiso   1.00
C1543  C     0.80657   0.69053   0.72087   0.00000  Uiso   1.00
C1544  C     0.86010   0.97613   0.77913   0.00000  Uiso   1.00
N1545  N     0.83333   0.95240   0.75000   0.00000  Uiso   1.00
N1546  N     0.83333   0.71427   0.75000   0.00000  Uiso   1.00
C1547  C     0.91445   0.82444   0.88656   0.00000  Uiso   1.00
H1548  H     0.92908   0.79185   0.89546   0.00000  Uiso   1.00
H1549  H     0.91101   0.82598   0.84943   0.00000  Uiso   1.00
H1550  H     0.93587   0.85192   0.89760   0.00000  Uiso   1.00
C1551  C     0.75222   0.84223   0.61344   0.00000  Uiso   1.00
H1552  H     0.73759   0.87481   0.60454   0.00000  Uiso   1.00
H1553  H     0.73080   0.81474   0.60240   0.00000  Uiso   1.00
H1554  H     0.75565   0.84069   0.65057   0.00000  Uiso   1.00
C1555  C     0.71532   0.84591   0.94284   0.00000  Uiso   1.00
C1556  C     0.70081   0.80076   0.92405   0.00000  Uiso   1.00
H1557  H     0.72473   0.78522   0.90368   0.00000  Uiso   1.00
H1558  H     0.69425   0.77800   0.95202   0.00000  Uiso   1.00
H1559  H     0.67176   0.80515   0.90226   0.00000  Uiso   1.00
H1560  H     0.69073   0.85867   0.96428   0.00000  Uiso   1.00
H1561  H     0.71700   0.87069   0.91550   0.00000  Uiso   1.00
C1562  C     0.95135   0.82074   0.55716   0.00000  Uiso   1.00
C1563  C     0.96587   0.86588   0.57595   0.00000  Uiso   1.00
H1564  H     0.97245   0.88863   0.54798   0.00000  Uiso   1.00
H1565  H     0.94194   0.88145   0.59630   0.00000  Uiso   1.00
H1566  H     0.99490   0.86148   0.59776   0.00000  Uiso   1.00
H1567  H     0.94966   0.79596   0.58450   0.00000  Uiso   1.00
H1568  H     0.97593   0.80797   0.53572   0.00000  Uiso   1.00
C1569  C     0.88992   0.71415   0.81261   0.00000  Uiso   1.00
H1570  H     0.88952   0.75013   0.81016   0.00000  Uiso   1.00
H1571  H     0.88222   0.70606   0.84741   0.00000  Uiso   1.00
H1572  H     0.92257   0.70401   0.80751   0.00000  Uiso   1.00
C1573  C     0.77675   0.95252   0.68739   0.00000  Uiso   1.00
H1574  H     0.77714   0.91654   0.68984   0.00000  Uiso   1.00
H1575  H     0.74409   0.96265   0.69249   0.00000  Uiso   1.00
H1576  H     0.78445   0.96061   0.65259   0.00000  Uiso   1.00
C1577  C     0.77602   0.71411   0.68818   0.00000  Uiso   1.00
H1578  H     0.77750   0.75013   0.68946   0.00000  Uiso   1.00
H1579  H     0.78197   0.70464   0.65315   0.00000  Uiso   1.00
H1580  H     0.74347   0.70535   0.69523   0.00000  Uiso   1.00
C1581  C     0.89065   0.95256   0.81182   0.00000  Uiso   1.00
H1582  H     0.88916   0.91654   0.81054   0.00000  Uiso   1.00
H1583  H     0.92320   0.96132   0.80477   0.00000  Uiso   1.00
H1584  H     0.88470   0.96203   0.84685   0.00000  Uiso   1.00
loop_
_geom_bond_atom_site_label_1
_geom_bond_atom_site_label_2
_geom_bond_distance
_geom_bond_site_symmetry_2
_ccdc_geom_bond_type
O1     C5      1.296   .     A
O1     Zn13    1.996   .     S
O2     C6      1.296   .     A
O2     Zn14    1.996   .     S
O3     C6      1.295   .     A
O3     Zn13    1.994   .     S
O4     Zn14    1.994   .     S
O4     C5      1.295   .     A
C5     C44     1.418   .     S
C6     C43     1.418   .     S
O7     C11     1.295   .     A
O7     Zn13    2.006   .     S
O8     C12     1.295   .     A
O8     Zn14    2.006   .     S
O9     Zn13    2.009   .     S
O9     C12     1.295   .     A
O10    Zn14    2.009   .     S
O10    C11     1.295   .     A
C11    C18     1.420   .     S
C12    C17     1.420   .     S
Zn13   N49     2.044   .     S
Zn14   N50     2.044   .     S
C15    C25     1.406   .     A
C15    C51     1.521   .     S
C15    C17     1.401   .     A
C16    C26     1.406   .     A
C16    C55     1.521   .     S
C16    C18     1.401   .     A
C17    C19     1.383   .     A
C18    C20     1.383   .     A
C19    H31     1.082   .     S
C19    C21     1.387   .     A
C20    C22     1.387   .     A
C20    H32     1.082   .     S
C21    C27     1.416   .     A
C21    C23     1.420   .     A
C22    C28     1.416   .     A
C22    C24     1.420   .     A
C23    C25     1.422   .     A
C23    C816    1.402   .     S
C24    C26     1.422   .     A
C24    C815    1.402   1_554 S
C25    C30     1.404   .     A
C26    C29     1.404   .     A
C27    C59     1.520   .     S
C27    C821    1.390   .     S
C28    C66     1.520   .     S
C28    C822    1.390   1_554 S
C29    H33     1.081   .     S
C29    C819    1.390   1_554 S
C30    H34     1.081   .     S
C30    C820    1.390   .     S
C35    H39     1.084   .     S
C35    C44     1.397   .     A
C35    C213    1.371   1_455 S
C36    H40     1.084   .     S
C36    C43     1.397   .     A
C36    C126    1.371   .     S
C37    C43     1.396   .     A
C37    H41     1.082   .     S
C37    C123    1.371   .     S
C38    H42     1.082   .     S
C38    C44     1.396   .     A
C38    C212    1.371   1_455 S
C45    C73     1.512   .     S
C45    N50     1.380   .     A
C45    C576    1.435   1_545 S
C46    N49     1.380   .     A
C46    C77     1.512   .     S
C46    C311    1.435   .     S
C47    N50     1.379   .     A
C47    C81     1.513   .     S
C47    C574    1.435   1_545 S
C48    N49     1.379   .     A
C48    C85     1.513   .     S
C48    C309    1.435   .     S
C51    H52     1.110   .     S
C51    H53     1.107   .     S
C51    H54     1.110   .     S
C55    H56     1.110   .     S
C55    H57     1.110   .     S
C55    H58     1.107   .     S
C59    H64     1.113   .     S
C59    C60     1.528   .     S
C59    H65     1.110   .     S
C60    H63     1.109   .     S
C60    H62     1.111   .     S
C60    H61     1.109   .     S
C66    H72     1.113   .     S
C66    C67     1.528   .     S
C66    H71     1.110   .     S
C67    H68     1.111   .     S
C67    H70     1.108   .     S
C67    H69     1.109   .     S
C73    H74     1.084   .     S
C73    H75     1.110   .     S
C73    H76     1.109   .     S
C77    H78     1.084   .     S
C77    H79     1.109   .     S
C77    H80     1.110   .     S
C81    H82     1.084   .     S
C81    H83     1.110   .     S
C81    H84     1.110   .     S
C85    H87     1.110   .     S
C85    H86     1.084   .     S
C85    H88     1.110   .     S
O89    C93     1.296   .     A
O89    Zn101   1.996   .     S
O90    C94     1.296   .     A
O90    Zn102   1.996   .     S
O91    C94     1.295   .     A
O91    Zn101   1.994   .     S
O92    Zn102   1.994   .     S
O92    C93     1.295   .     A
C93    C132    1.418   .     S
C94    C131    1.418   .     S
O95    C99     1.295   .     A
O95    Zn101   2.006   .     S
O96    C100    1.295   .     A
O96    Zn102   2.006   .     S
O97    Zn101   2.009   .     S
O97    C100    1.295   .     A
O98    Zn102   2.009   .     S
O98    C99     1.295   .     A
C99    C106    1.420   .     S
C100   C105    1.420   .     S
Zn101  N137    2.044   .     S
Zn102  N138    2.044   .     S
C103   C113    1.406   .     A
C103   C139    1.521   .     S
C103   C105    1.401   .     A
C104   C114    1.406   .     A
C104   C143    1.521   .     S
C104   C106    1.401   .     A
C105   C107    1.383   .     A
C106   C108    1.383   .     A
C107   H119    1.082   .     S
C107   C109    1.387   .     A
C108   C110    1.387   .     A
C108   H120    1.082   .     S
C109   C115    1.416   .     A
C109   C111    1.420   .     A
C110   C116    1.416   .     A
C110   C112    1.420   .     A
C111   C113    1.422   .     A
C111   C904    1.402   .     S
C112   C114    1.422   .     A
C112   C903    1.402   1_554 S
C113   C118    1.404   .     A
C114   C117    1.404   .     A
C115   C147    1.520   .     S
C115   C909    1.390   .     S
C116   C154    1.520   .     S
C116   C910    1.390   1_554 S
C117   H121    1.081   .     S
C117   C907    1.390   1_554 S
C118   H122    1.081   .     S
C118   C908    1.390   .     S
C123   H127    1.084   .     S
C123   C132    1.397   .     A
C124   H128    1.084   .     S
C124   C131    1.397   .     A
C124   C214    1.371   .     S
C125   C131    1.396   .     A
C125   H129    1.082   .     S
C125   C211    1.371   .     S
C126   H130    1.082   .     S
C126   C132    1.396   .     A
C133   C161    1.512   .     S
C133   N138    1.380   .     A
C133   C664    1.435   1_545 S
C134   N137    1.380   .     A
C134   C165    1.512   .     S
C134   C399    1.435   .     S
C135   N138    1.379   .     A
C135   C169    1.513   .     S
C135   C662    1.435   1_545 S
C136   N137    1.379   .     A
C136   C173    1.513   .     S
C136   C397    1.435   .     S
C139   H140    1.110   .     S
C139   H141    1.107   .     S
C139   H142    1.110   .     S
C143   H144    1.110   .     S
C143   H145    1.110   .     S
C143   H146    1.107   .     S
C147   H152    1.113   .     S
C147   C148    1.528   .     S
C147   H153    1.110   .     S
C148   H151    1.109   .     S
C148   H150    1.111   .     S
C148   H149    1.109   .     S
C154   H160    1.113   .     S
C154   C155    1.528   .     S
C154   H159    1.110   .     S
C155   H156    1.111   .     S
C155   H158    1.108   .     S
C155   H157    1.109   .     S
C161   H162    1.084   .     S
C161   H163    1.110   .     S
C161   H164    1.109   .     S
C165   H166    1.084   .     S
C165   H167    1.109   .     S
C165   H168    1.110   .     S
C169   H170    1.084   .     S
C169   H171    1.110   .     S
C169   H172    1.110   .     S
C173   H175    1.110   .     S
C173   H174    1.084   .     S
C173   H176    1.110   .     S
O177   C181    1.296   .     A
O177   Zn189   1.996   .     S
O178   C182    1.296   .     A
O178   Zn190   1.996   .     S
O179   C182    1.295   .     A
O179   Zn189   1.994   .     S
O180   Zn190   1.994   .     S
O180   C181    1.295   .     A
C181   C220    1.418   .     S
C182   C219    1.418   .     S
O183   C187    1.295   .     A
O183   Zn189   2.006   .     S
O184   C188    1.295   .     A
O184   Zn190   2.006   .     S
O185   Zn189   2.009   .     S
O185   C188    1.295   .     A
O186   Zn190   2.009   .     S
O186   C187    1.295   .     A
C187   C194    1.420   .     S
C188   C193    1.420   .     S
Zn189  N225    2.044   .     S
Zn190  N226    2.044   .     S
C191   C201    1.406   .     A
C191   C227    1.521   .     S
C191   C193    1.401   .     A
C192   C202    1.406   .     A
C192   C231    1.521   .     S
C192   C194    1.401   .     A
C193   C195    1.383   .     A
C194   C196    1.383   .     A
C195   H207    1.082   .     S
C195   C197    1.387   .     A
C196   C198    1.387   .     A
C196   H208    1.082   .     S
C197   C203    1.416   .     A
C197   C199    1.420   .     A
C198   C204    1.416   .     A
C198   C200    1.420   .     A
C199   C201    1.422   .     A
C199   C992    1.402   .     S
C200   C202    1.422   .     A
C200   C991    1.402   1_554 S
C201   C206    1.404   .     A
C202   C205    1.404   .     A
C203   C235    1.520   .     S
C203   C997    1.390   .     S
C204   C242    1.520   .     S
C204   C998    1.390   1_554 S
C205   H209    1.081   .     S
C205   C995    1.390   1_554 S
C206   H210    1.081   .     S
C206   C996    1.390   .     S
C211   H215    1.084   .     S
C211   C220    1.397   .     A
C212   H216    1.084   .     S
C212   C219    1.397   .     A
C212   C38     1.371   1_655 S
C213   C219    1.396   .     A
C213   H217    1.082   .     S
C213   C35     1.371   1_655 S
C214   H218    1.082   .     S
C214   C220    1.396   .     A
C221   C249    1.512   .     S
C221   N226    1.380   .     A
C221   C752    1.435   1_545 S
C222   N225    1.380   .     A
C222   C253    1.512   .     S
C222   C487    1.435   .     S
C223   N226    1.379   .     A
C223   C257    1.513   .     S
C223   C750    1.435   1_545 S
C224   N225    1.379   .     A
C224   C261    1.513   .     S
C224   C485    1.435   .     S
C227   H228    1.110   .     S
C227   H229    1.107   .     S
C227   H230    1.110   .     S
C231   H232    1.110   .     S
C231   H233    1.110   .     S
C231   H234    1.107   .     S
C235   H240    1.113   .     S
C235   C236    1.528   .     S
C235   H241    1.110   .     S
C236   H239    1.109   .     S
C236   H238    1.111   .     S
C236   H237    1.109   .     S
C242   H248    1.113   .     S
C242   C243    1.528   .     S
C242   H247    1.110   .     S
C243   H244    1.111   .     S
C243   H246    1.108   .     S
C243   H245    1.109   .     S
C249   H250    1.084   .     S
C249   H251    1.110   .     S
C249   H252    1.109   .     S
C253   H254    1.084   .     S
C253   H255    1.109   .     S
C253   H256    1.110   .     S
C257   H258    1.084   .     S
C257   H259    1.110   .     S
C257   H260    1.110   .     S
C261   H263    1.110   .     S
C261   H262    1.084   .     S
C261   H264    1.110   .     S
O265   C269    1.296   .     A
O265   Zn277   1.996   .     S
O266   C270    1.296   .     A
O266   Zn278   1.996   .     S
O267   C270    1.295   .     A
O267   Zn277   1.994   .     S
O268   Zn278   1.994   .     S
O268   C269    1.295   .     A
C269   C308    1.418   .     S
C270   C307    1.418   .     S
O271   C275    1.295   .     A
O271   Zn277   2.006   .     S
O272   C276    1.295   .     A
O272   Zn278   2.006   .     S
O273   Zn277   2.009   .     S
O273   C276    1.295   .     A
O274   Zn278   2.009   .     S
O274   C275    1.295   .     A
C275   C282    1.420   .     S
C276   C281    1.420   .     S
Zn277  N313    2.044   .     S
Zn278  N314    2.044   .     S
C279   C289    1.406   .     A
C279   C315    1.521   .     S
C279   C281    1.401   .     A
C280   C290    1.406   .     A
C280   C319    1.521   .     S
C280   C282    1.401   .     A
C281   C283    1.383   .     A
C282   C284    1.383   .     A
C283   H295    1.082   .     S
C283   C285    1.387   .     A
C284   C286    1.387   .     A
C284   H296    1.082   .     S
C285   C291    1.416   .     A
C285   C287    1.420   .     A
C286   C292    1.416   .     A
C286   C288    1.420   .     A
C287   C289    1.422   .     A
C287   C1080   1.402   .     S
C288   C290    1.422   .     A
C288   C1079   1.402   1_554 S
C289   C294    1.404   .     A
C290   C293    1.404   .     A
C291   C323    1.520   .     S
C291   C1085   1.390   .     S
C292   C330    1.520   .     S
C292   C1086   1.390   1_554 S
C293   H297    1.081   .     S
C293   C1083   1.390   1_554 S
C294   H298    1.081   .     S
C294   C1084   1.390   .     S
C299   H303    1.084   .     S
C299   C308    1.397   .     A
C299   C477    1.371   1_455 S
C300   H304    1.084   .     S
C300   C307    1.397   .     A
C300   C390    1.371   .     S
C301   C307    1.396   .     A
C301   H305    1.082   .     S
C301   C387    1.371   .     S
C302   H306    1.082   .     S
C302   C308    1.396   .     A
C302   C476    1.371   1_455 S
C309   C337    1.512   .     S
C309   N314    1.380   .     A
C310   N313    1.380   .     A
C310   C341    1.512   .     S
C310   C575    1.435   .     S
C311   N314    1.379   .     A
C311   C345    1.513   .     S
C312   N313    1.379   .     A
C312   C349    1.513   .     S
C312   C573    1.435   .     S
C315   H316    1.110   .     S
C315   H317    1.107   .     S
C315   H318    1.110   .     S
C319   H320    1.110   .     S
C319   H321    1.110   .     S
C319   H322    1.107   .     S
C323   H328    1.113   .     S
C323   C324    1.528   .     S
C323   H329    1.110   .     S
C324   H327    1.109   .     S
C324   H326    1.111   .     S
C324   H325    1.109   .     S
C330   H336    1.113   .     S
C330   C331    1.528   .     S
C330   H335    1.110   .     S
C331   H332    1.111   .     S
C331   H334    1.108   .     S
C331   H333    1.109   .     S
C337   H338    1.084   .     S
C337   H339    1.110   .     S
C337   H340    1.109   .     S
C341   H342    1.084   .     S
C341   H343    1.109   .     S
C341   H344    1.110   .     S
C345   H346    1.084   .     S
C345   H347    1.110   .     S
C345   H348    1.110   .     S
C349   H351    1.110   .     S
C349   H350    1.084   .     S
C349   H352    1.110   .     S
O353   C357    1.296   .     A
O353   Zn365   1.996   .     S
O354   C358    1.296   .     A
O354   Zn366   1.996   .     S
O355   C358    1.295   .     A
O355   Zn365   1.994   .     S
O356   Zn366   1.994   .     S
O356   C357    1.295   .     A
C357   C396    1.418   .     S
C358   C395    1.418   .     S
O359   C363    1.295   .     A
O359   Zn365   2.006   .     S
O360   C364    1.295   .     A
O360   Zn366   2.006   .     S
O361   Zn365   2.009   .     S
O361   C364    1.295   .     A
O362   Zn366   2.009   .     S
O362   C363    1.295   .     A
C363   C370    1.420   .     S
C364   C369    1.420   .     S
Zn365  N401    2.044   .     S
Zn366  N402    2.044   .     S
C367   C377    1.406   .     A
C367   C403    1.521   .     S
C367   C369    1.401   .     A
C368   C378    1.406   .     A
C368   C407    1.521   .     S
C368   C370    1.401   .     A
C369   C371    1.383   .     A
C370   C372    1.383   .     A
C371   H383    1.082   .     S
C371   C373    1.387   .     A
C372   C374    1.387   .     A
C372   H384    1.082   .     S
C373   C379    1.416   .     A
C373   C375    1.420   .     A
C374   C380    1.416   .     A
C374   C376    1.420   .     A
C375   C377    1.422   .     A
C375   C1168   1.402   .     S
C376   C378    1.422   .     A
C376   C1167   1.402   1_554 S
C377   C382    1.404   .     A
C378   C381    1.404   .     A
C379   C411    1.520   .     S
C379   C1173   1.390   .     S
C380   C418    1.520   .     S
C380   C1174   1.390   1_554 S
C381   H385    1.081   .     S
C381   C1171   1.390   1_554 S
C382   H386    1.081   .     S
C382   C1172   1.390   .     S
C387   H391    1.084   .     S
C387   C396    1.397   .     A
C388   H392    1.084   .     S
C388   C395    1.397   .     A
C388   C478    1.371   .     S
C389   C395    1.396   .     A
C389   H393    1.082   .     S
C389   C475    1.371   .     S
C390   H394    1.082   .     S
C390   C396    1.396   .     A
C397   C425    1.512   .     S
C397   N402    1.380   .     A
C398   N401    1.380   .     A
C398   C429    1.512   .     S
C398   C663    1.435   .     S
C399   N402    1.379   .     A
C399   C433    1.513   .     S
C400   N401    1.379   .     A
C400   C437    1.513   .     S
C400   C661    1.435   .     S
C403   H404    1.110   .     S
C403   H405    1.107   .     S
C403   H406    1.110   .     S
C407   H408    1.110   .     S
C407   H409    1.110   .     S
C407   H410    1.107   .     S
C411   H416    1.113   .     S
C411   C412    1.528   .     S
C411   H417    1.110   .     S
C412   H415    1.109   .     S
C412   H414    1.111   .     S
C412   H413    1.109   .     S
C418   H424    1.113   .     S
C418   C419    1.528   .     S
C418   H423    1.110   .     S
C419   H420    1.111   .     S
C419   H422    1.108   .     S
C419   H421    1.109   .     S
C425   H426    1.084   .     S
C425   H427    1.110   .     S
C425   H428    1.109   .     S
C429   H430    1.084   .     S
C429   H431    1.109   .     S
C429   H432    1.110   .     S
C433   H434    1.084   .     S
C433   H435    1.110   .     S
C433   H436    1.110   .     S
C437   H439    1.110   .     S
C437   H438    1.084   .     S
C437   H440    1.110   .     S
O441   C445    1.296   .     A
O441   Zn453   1.996   .     S
O442   C446    1.296   .     A
O442   Zn454   1.996   .     S
O443   C446    1.295   .     A
O443   Zn453   1.994   .     S
O444   Zn454   1.994   .     S
O444   C445    1.295   .     A
C445   C484    1.418   .     S
C446   C483    1.418   .     S
O447   C451    1.295   .     A
O447   Zn453   2.006   .     S
O448   C452    1.295   .     A
O448   Zn454   2.006   .     S
O449   Zn453   2.009   .     S
O449   C452    1.295   .     A
O450   Zn454   2.009   .     S
O450   C451    1.295   .     A
C451   C458    1.420   .     S
C452   C457    1.420   .     S
Zn453  N489    2.044   .     S
Zn454  N490    2.044   .     S
C455   C465    1.406   .     A
C455   C491    1.521   .     S
C455   C457    1.401   .     A
C456   C466    1.406   .     A
C456   C495    1.521   .     S
C456   C458    1.401   .     A
C457   C459    1.383   .     A
C458   C460    1.383   .     A
C459   H471    1.082   .     S
C459   C461    1.387   .     A
C460   C462    1.387   .     A
C460   H472    1.082   .     S
C461   C467    1.416   .     A
C461   C463    1.420   .     A
C462   C468    1.416   .     A
C462   C464    1.420   .     A
C463   C465    1.422   .     A
C463   C1256   1.402   .     S
C464   C466    1.422   .     A
C464   C1255   1.402   1_554 S
C465   C470    1.404   .     A
C466   C469    1.404   .     A
C467   C499    1.520   .     S
C467   C1261   1.390   .     S
C468   C506    1.520   .     S
C468   C1262   1.390   1_554 S
C469   H473    1.081   .     S
C469   C1259   1.390   1_554 S
C470   H474    1.081   .     S
C470   C1260   1.390   .     S
C475   H479    1.084   .     S
C475   C484    1.397   .     A
C476   H480    1.084   .     S
C476   C483    1.397   .     A
C476   C302    1.371   1_655 S
C477   C483    1.396   .     A
C477   H481    1.082   .     S
C477   C299    1.371   1_655 S
C478   H482    1.082   .     S
C478   C484    1.396   .     A
C485   C513    1.512   .     S
C485   N490    1.380   .     A
C486   N489    1.380   .     A
C486   C517    1.512   .     S
C486   C751    1.435   .     S
C487   N490    1.379   .     A
C487   C521    1.513   .     S
C488   N489    1.379   .     A
C488   C525    1.513   .     S
C488   C749    1.435   .     S
C491   H492    1.110   .     S
C491   H493    1.107   .     S
C491   H494    1.110   .     S
C495   H496    1.110   .     S
C495   H497    1.110   .     S
C495   H498    1.107   .     S
C499   H504    1.113   .     S
C499   C500    1.528   .     S
C499   H505    1.110   .     S
C500   H503    1.109   .     S
C500   H502    1.111   .     S
C500   H501    1.109   .     S
C506   H512    1.113   .     S
C506   C507    1.528   .     S
C506   H511    1.110   .     S
C507   H508    1.111   .     S
C507   H510    1.108   .     S
C507   H509    1.109   .     S
C513   H514    1.084   .     S
C513   H515    1.110   .     S
C513   H516    1.109   .     S
C517   H518    1.084   .     S
C517   H519    1.109   .     S
C517   H520    1.110   .     S
C521   H522    1.084   .     S
C521   H523    1.110   .     S
C521   H524    1.110   .     S
C525   H527    1.110   .     S
C525   H526    1.084   .     S
C525   H528    1.110   .     S
O529   C533    1.296   .     A
O529   Zn541   1.996   .     S
O530   C534    1.296   .     A
O530   Zn542   1.996   .     S
O531   C534    1.295   .     A
O531   Zn541   1.994   .     S
O532   Zn542   1.994   .     S
O532   C533    1.295   .     A
C533   C572    1.418   .     S
C534   C571    1.418   .     S
O535   C539    1.295   .     A
O535   Zn541   2.006   .     S
O536   C540    1.295   .     A
O536   Zn542   2.006   .     S
O537   Zn541   2.009   .     S
O537   C540    1.295   .     A
O538   Zn542   2.009   .     S
O538   C539    1.295   .     A
C539   C546    1.420   .     S
C540   C545    1.420   .     S
Zn541  N577    2.044   .     S
Zn542  N578    2.044   .     S
C543   C553    1.406   .     A
C543   C579    1.521   .     S
C543   C545    1.401   .     A
C544   C554    1.406   .     A
C544   C583    1.521   .     S
C544   C546    1.401   .     A
C545   C547    1.383   .     A
C546   C548    1.383   .     A
C547   H559    1.082   .     S
C547   C549    1.387   .     A
C548   C550    1.387   .     A
C548   H560    1.082   .     S
C549   C555    1.416   .     A
C549   C551    1.420   .     A
C550   C556    1.416   .     A
C550   C552    1.420   .     A
C551   C553    1.422   .     A
C551   C1344   1.402   .     S
C552   C554    1.422   .     A
C552   C1343   1.402   1_554 S
C553   C558    1.404   .     A
C554   C557    1.404   .     A
C555   C587    1.520   .     S
C555   C1349   1.390   .     S
C556   C594    1.520   .     S
C556   C1350   1.390   1_554 S
C557   H561    1.081   .     S
C557   C1347   1.390   1_554 S
C558   H562    1.081   .     S
C558   C1348   1.390   .     S
C563   H567    1.084   .     S
C563   C572    1.397   .     A
C563   C741    1.371   1_455 S
C564   H568    1.084   .     S
C564   C571    1.397   .     A
C564   C654    1.371   .     S
C565   C571    1.396   .     A
C565   H569    1.082   .     S
C565   C651    1.371   .     S
C566   H570    1.082   .     S
C566   C572    1.396   .     A
C566   C740    1.371   1_455 S
C573   C601    1.512   .     S
C573   N578    1.380   .     A
C574   N577    1.380   .     A
C574   C605    1.512   .     S
C574   C47     1.435   1_565 S
C575   N578    1.379   .     A
C575   C609    1.513   .     S
C576   N577    1.379   .     A
C576   C613    1.513   .     S
C576   C45     1.435   1_565 S
C579   H580    1.110   .     S
C579   H581    1.107   .     S
C579   H582    1.110   .     S
C583   H584    1.110   .     S
C583   H585    1.110   .     S
C583   H586    1.107   .     S
C587   H592    1.113   .     S
C587   C588    1.528   .     S
C587   H593    1.110   .     S
C588   H591    1.109   .     S
C588   H590    1.111   .     S
C588   H589    1.109   .     S
C594   H600    1.113   .     S
C594   C595    1.528   .     S
C594   H599    1.110   .     S
C595   H596    1.111   .     S
C595   H598    1.108   .     S
C595   H597    1.109   .     S
C601   H602    1.084   .     S
C601   H603    1.110   .     S
C601   H604    1.109   .     S
C605   H606    1.084   .     S
C605   H607    1.109   .     S
C605   H608    1.110   .     S
C609   H610    1.084   .     S
C609   H611    1.110   .     S
C609   H612    1.110   .     S
C613   H615    1.110   .     S
C613   H614    1.084   .     S
C613   H616    1.110   .     S
O617   C621    1.296   .     A
O617   Zn629   1.996   .     S
O618   C622    1.296   .     A
O618   Zn630   1.996   .     S
O619   C622    1.295   .     A
O619   Zn629   1.994   .     S
O620   Zn630   1.994   .     S
O620   C621    1.295   .     A
C621   C660    1.418   .     S
C622   C659    1.418   .     S
O623   C627    1.295   .     A
O623   Zn629   2.006   .     S
O624   C628    1.295   .     A
O624   Zn630   2.006   .     S
O625   Zn629   2.009   .     S
O625   C628    1.295   .     A
O626   Zn630   2.009   .     S
O626   C627    1.295   .     A
C627   C634    1.420   .     S
C628   C633    1.420   .     S
Zn629  N665    2.044   .     S
Zn630  N666    2.044   .     S
C631   C641    1.406   .     A
C631   C667    1.521   .     S
C631   C633    1.401   .     A
C632   C642    1.406   .     A
C632   C671    1.521   .     S
C632   C634    1.401   .     A
C633   C635    1.383   .     A
C634   C636    1.383   .     A
C635   H647    1.082   .     S
C635   C637    1.387   .     A
C636   C638    1.387   .     A
C636   H648    1.082   .     S
C637   C643    1.416   .     A
C637   C639    1.420   .     A
C638   C644    1.416   .     A
C638   C640    1.420   .     A
C639   C641    1.422   .     A
C639   C1432   1.402   .     S
C640   C642    1.422   .     A
C640   C1431   1.402   1_554 S
C641   C646    1.404   .     A
C642   C645    1.404   .     A
C643   C675    1.520   .     S
C643   C1437   1.390   .     S
C644   C682    1.520   .     S
C644   C1438   1.390   1_554 S
C645   H649    1.081   .     S
C645   C1435   1.390   1_554 S
C646   H650    1.081   .     S
C646   C1436   1.390   .     S
C651   H655    1.084   .     S
C651   C660    1.397   .     A
C652   H656    1.084   .     S
C652   C659    1.397   .     A
C652   C742    1.371   .     S
C653   C659    1.396   .     A
C653   H657    1.082   .     S
C653   C739    1.371   .     S
C654   H658    1.082   .     S
C654   C660    1.396   .     A
C661   C689    1.512   .     S
C661   N666    1.380   .     A
C662   N665    1.380   .     A
C662   C693    1.512   .     S
C662   C135    1.435   1_565 S
C663   N666    1.379   .     A
C663   C697    1.513   .     S
C664   N665    1.379   .     A
C664   C701    1.513   .     S
C664   C133    1.435   1_565 S
C667   H668    1.110   .     S
C667   H669    1.107   .     S
C667   H670    1.110   .     S
C671   H672    1.110   .     S
C671   H673    1.110   .     S
C671   H674    1.107   .     S
C675   H680    1.113   .     S
C675   C676    1.528   .     S
C675   H681    1.110   .     S
C676   H679    1.109   .     S
C676   H678    1.111   .     S
C676   H677    1.109   .     S
C682   H688    1.113   .     S
C682   C683    1.528   .     S
C682   H687    1.110   .     S
C683   H684    1.111   .     S
C683   H686    1.108   .     S
C683   H685    1.109   .     S
C689   H690    1.084   .     S
C689   H691    1.110   .     S
C689   H692    1.109   .     S
C693   H694    1.084   .     S
C693   H695    1.109   .     S
C693   H696    1.110   .     S
C697   H698    1.084   .     S
C697   H699    1.110   .     S
C697   H700    1.110   .     S
C701   H703    1.110   .     S
C701   H702    1.084   .     S
C701   H704    1.110   .     S
O705   C709    1.296   .     A
O705   Zn717   1.996   .     S
O706   C710    1.296   .     A
O706   Zn718   1.996   .     S
O707   C710    1.295   .     A
O707   Zn717   1.994   .     S
O708   Zn718   1.994   .     S
O708   C709    1.295   .     A
C709   C748    1.418   .     S
C710   C747    1.418   .     S
O711   C715    1.295   .     A
O711   Zn717   2.006   .     S
O712   C716    1.295   .     A
O712   Zn718   2.006   .     S
O713   Zn717   2.009   .     S
O713   C716    1.295   .     A
O714   Zn718   2.009   .     S
O714   C715    1.295   .     A
C715   C722    1.420   .     S
C716   C721    1.420   .     S
Zn717  N753    2.044   .     S
Zn718  N754    2.044   .     S
C719   C729    1.406   .     A
C719   C755    1.521   .     S
C719   C721    1.401   .     A
C720   C730    1.406   .     A
C720   C759    1.521   .     S
C720   C722    1.401   .     A
C721   C723    1.383   .     A
C722   C724    1.383   .     A
C723   H735    1.082   .     S
C723   C725    1.387   .     A
C724   C726    1.387   .     A
C724   H736    1.082   .     S
C725   C731    1.416   .     A
C725   C727    1.420   .     A
C726   C732    1.416   .     A
C726   C728    1.420   .     A
C727   C729    1.422   .     A
C727   C1520   1.402   .     S
C728   C730    1.422   .     A
C728   C1519   1.402   1_554 S
C729   C734    1.404   .     A
C730   C733    1.404   .     A
C731   C763    1.520   .     S
C731   C1525   1.390   .     S
C732   C770    1.520   .     S
C732   C1526   1.390   1_554 S
C733   H737    1.081   .     S
C733   C1523   1.390   1_554 S
C734   H738    1.081   .     S
C734   C1524   1.390   .     S
C739   H743    1.084   .     S
C739   C748    1.397   .     A
C740   H744    1.084   .     S
C740   C747    1.397   .     A
C740   C566    1.371   1_655 S
C741   C747    1.396   .     A
C741   H745    1.082   .     S
C741   C563    1.371   1_655 S
C742   H746    1.082   .     S
C742   C748    1.396   .     A
C749   C777    1.512   .     S
C749   N754    1.380   .     A
C750   N753    1.380   .     A
C750   C781    1.512   .     S
C750   C223    1.435   1_565 S
C751   N754    1.379   .     A
C751   C785    1.513   .     S
C752   N753    1.379   .     A
C752   C789    1.513   .     S
C752   C221    1.435   1_565 S
C755   H756    1.110   .     S
C755   H757    1.107   .     S
C755   H758    1.110   .     S
C759   H760    1.110   .     S
C759   H761    1.110   .     S
C759   H762    1.107   .     S
C763   H768    1.113   .     S
C763   C764    1.528   .     S
C763   H769    1.110   .     S
C764   H767    1.109   .     S
C764   H766    1.111   .     S
C764   H765    1.109   .     S
C770   H776    1.113   .     S
C770   C771    1.528   .     S
C770   H775    1.110   .     S
C771   H772    1.111   .     S
C771   H774    1.108   .     S
C771   H773    1.109   .     S
C777   H778    1.084   .     S
C777   H779    1.110   .     S
C777   H780    1.109   .     S
C781   H782    1.084   .     S
C781   H783    1.109   .     S
C781   H784    1.110   .     S
C785   H786    1.084   .     S
C785   H787    1.110   .     S
C785   H788    1.110   .     S
C789   H791    1.110   .     S
C789   H790    1.084   .     S
C789   H792    1.110   .     S
O793   C797    1.296   .     A
O793   Zn805   1.996   .     S
O794   C798    1.296   .     A
O794   Zn806   1.996   .     S
O795   C798    1.295   .     A
O795   Zn805   1.994   .     S
O796   Zn806   1.994   .     S
O796   C797    1.295   .     A
C797   C836    1.418   .     S
C798   C835    1.418   .     S
O799   C803    1.295   .     A
O799   Zn805   2.006   .     S
O800   C804    1.295   .     A
O800   Zn806   2.006   .     S
O801   Zn805   2.009   .     S
O801   C804    1.295   .     A
O802   Zn806   2.009   .     S
O802   C803    1.295   .     A
C803   C810    1.420   .     S
C804   C809    1.420   .     S
Zn805  N841    2.044   .     S
Zn806  N842    2.044   .     S
C807   C817    1.406   .     A
C807   C843    1.521   .     S
C807   C809    1.401   .     A
C808   C818    1.406   .     A
C808   C847    1.521   .     S
C808   C810    1.401   .     A
C809   C811    1.383   .     A
C810   C812    1.383   .     A
C811   H823    1.082   .     S
C811   C813    1.387   .     A
C812   C814    1.387   .     A
C812   H824    1.082   .     S
C813   C819    1.416   .     A
C813   C815    1.420   .     A
C814   C820    1.416   .     A
C814   C816    1.420   .     A
C815   C817    1.422   .     A
C815   C24     1.402   1_556 S
C816   C818    1.422   .     A
C817   C822    1.404   .     A
C818   C821    1.404   .     A
C819   C851    1.520   .     S
C819   C29     1.390   1_556 S
C820   C858    1.520   .     S
C821   H825    1.081   .     S
C822   H826    1.081   .     S
C822   C28     1.390   1_556 S
C827   H831    1.084   .     S
C827   C836    1.397   .     A
C827   C1005   1.371   1_455 S
C828   H832    1.084   .     S
C828   C835    1.397   .     A
C828   C918    1.371   .     S
C829   C835    1.396   .     A
C829   H833    1.082   .     S
C829   C915    1.371   .     S
C830   H834    1.082   .     S
C830   C836    1.396   .     A
C830   C1004   1.371   1_455 S
C837   C865    1.512   .     S
C837   N842    1.380   .     A
C837   C1368   1.435   1_545 S
C838   N841    1.380   .     A
C838   C869    1.512   .     S
C838   C1103   1.435   .     S
C839   N842    1.379   .     A
C839   C873    1.513   .     S
C839   C1366   1.435   1_545 S
C840   N841    1.379   .     A
C840   C877    1.513   .     S
C840   C1101   1.435   .     S
C843   H844    1.110   .     S
C843   H845    1.107   .     S
C843   H846    1.110   .     S
C847   H848    1.110   .     S
C847   H849    1.110   .     S
C847   H850    1.107   .     S
C851   H856    1.113   .     S
C851   C852    1.528   .     S
C851   H857    1.110   .     S
C852   H855    1.109   .     S
C852   H854    1.111   .     S
C852   H853    1.109   .     S
C858   H864    1.113   .     S
C858   C859    1.528   .     S
C858   H863    1.110   .     S
C859   H860    1.111   .     S
C859   H862    1.108   .     S
C859   H861    1.109   .     S
C865   H866    1.084   .     S
C865   H867    1.110   .     S
C865   H868    1.109   .     S
C869   H870    1.084   .     S
C869   H871    1.109   .     S
C869   H872    1.110   .     S
C873   H874    1.084   .     S
C873   H875    1.110   .     S
C873   H876    1.110   .     S
C877   H879    1.110   .     S
C877   H878    1.084   .     S
C877   H880    1.110   .     S
O881   C885    1.296   .     A
O881   Zn893   1.996   .     S
O882   C886    1.296   .     A
O882   Zn894   1.996   .     S
O883   C886    1.295   .     A
O883   Zn893   1.994   .     S
O884   Zn894   1.994   .     S
O884   C885    1.295   .     A
C885   C924    1.418   .     S
C886   C923    1.418   .     S
O887   C891    1.295   .     A
O887   Zn893   2.006   .     S
O888   C892    1.295   .     A
O888   Zn894   2.006   .     S
O889   Zn893   2.009   .     S
O889   C892    1.295   .     A
O890   Zn894   2.009   .     S
O890   C891    1.295   .     A
C891   C898    1.420   .     S
C892   C897    1.420   .     S
Zn893  N929    2.044   .     S
Zn894  N930    2.044   .     S
C895   C905    1.406   .     A
C895   C931    1.521   .     S
C895   C897    1.401   .     A
C896   C906    1.406   .     A
C896   C935    1.521   .     S
C896   C898    1.401   .     A
C897   C899    1.383   .     A
C898   C900    1.383   .     A
C899   H911    1.082   .     S
C899   C901    1.387   .     A
C900   C902    1.387   .     A
C900   H912    1.082   .     S
C901   C907    1.416   .     A
C901   C903    1.420   .     A
C902   C908    1.416   .     A
C902   C904    1.420   .     A
C903   C905    1.422   .     A
C903   C112    1.402   1_556 S
C904   C906    1.422   .     A
C905   C910    1.404   .     A
C906   C909    1.404   .     A
C907   C939    1.520   .     S
C907   C117    1.390   1_556 S
C908   C946    1.520   .     S
C909   H913    1.081   .     S
C910   H914    1.081   .     S
C910   C116    1.390   1_556 S
C915   H919    1.084   .     S
C915   C924    1.397   .     A
C916   H920    1.084   .     S
C916   C923    1.397   .     A
C916   C1006   1.371   .     S
C917   C923    1.396   .     A
C917   H921    1.082   .     S
C917   C1003   1.371   .     S
C918   H922    1.082   .     S
C918   C924    1.396   .     A
C925   C953    1.512   .     S
C925   N930    1.380   .     A
C925   C1456   1.435   1_545 S
C926   N929    1.380   .     A
C926   C957    1.512   .     S
C926   C1191   1.435   .     S
C927   N930    1.379   .     A
C927   C961    1.513   .     S
C927   C1454   1.435   1_545 S
C928   N929    1.379   .     A
C928   C965    1.513   .     S
C928   C1189   1.435   .     S
C931   H932    1.110   .     S
C931   H933    1.107   .     S
C931   H934    1.110   .     S
C935   H936    1.110   .     S
C935   H937    1.110   .     S
C935   H938    1.107   .     S
C939   H944    1.113   .     S
C939   C940    1.528   .     S
C939   H945    1.110   .     S
C940   H943    1.109   .     S
C940   H942    1.111   .     S
C940   H941    1.109   .     S
C946   H952    1.113   .     S
C946   C947    1.528   .     S
C946   H951    1.110   .     S
C947   H948    1.111   .     S
C947   H950    1.108   .     S
C947   H949    1.109   .     S
C953   H954    1.084   .     S
C953   H955    1.110   .     S
C953   H956    1.109   .     S
C957   H958    1.084   .     S
C957   H959    1.109   .     S
C957   H960    1.110   .     S
C961   H962    1.084   .     S
C961   H963    1.110   .     S
C961   H964    1.110   .     S
C965   H967    1.110   .     S
C965   H966    1.084   .     S
C965   H968    1.110   .     S
O969   C973    1.296   .     A
O969   Zn981   1.996   .     S
O970   C974    1.296   .     A
O970   Zn982   1.996   .     S
O971   C974    1.295   .     A
O971   Zn981   1.994   .     S
O972   Zn982   1.994   .     S
O972   C973    1.295   .     A
C973   C1012   1.418   .     S
C974   C1011   1.418   .     S
O975   C979    1.295   .     A
O975   Zn981   2.006   .     S
O976   C980    1.295   .     A
O976   Zn982   2.006   .     S
O977   Zn981   2.009   .     S
O977   C980    1.295   .     A
O978   Zn982   2.009   .     S
O978   C979    1.295   .     A
C979   C986    1.420   .     S
C980   C985    1.420   .     S
Zn981  N1017   2.044   .     S
Zn982  N1018   2.044   .     S
C983   C993    1.406   .     A
C983   C1019   1.521   .     S
C983   C985    1.401   .     A
C984   C994    1.406   .     A
C984   C1023   1.521   .     S
C984   C986    1.401   .     A
C985   C987    1.383   .     A
C986   C988    1.383   .     A
C987   H999    1.082   .     S
C987   C989    1.387   .     A
C988   C990    1.387   .     A
C988   H1000   1.082   .     S
C989   C995    1.416   .     A
C989   C991    1.420   .     A
C990   C996    1.416   .     A
C990   C992    1.420   .     A
C991   C993    1.422   .     A
C991   C200    1.402   1_556 S
C992   C994    1.422   .     A
C993   C998    1.404   .     A
C994   C997    1.404   .     A
C995   C1027   1.520   .     S
C995   C205    1.390   1_556 S
C996   C1034   1.520   .     S
C997   H1001   1.081   .     S
C998   H1002   1.081   .     S
C998   C204    1.390   1_556 S
C1003  H1007   1.084   .     S
C1003  C1012   1.397   .     A
C1004  H1008   1.084   .     S
C1004  C1011   1.397   .     A
C1004  C830    1.371   1_655 S
C1005  C1011   1.396   .     A
C1005  H1009   1.082   .     S
C1005  C827    1.371   1_655 S
C1006  H1010   1.082   .     S
C1006  C1012   1.396   .     A
C1013  C1041   1.512   .     S
C1013  N1018   1.380   .     A
C1013  C1544   1.435   1_545 S
C1014  N1017   1.380   .     A
C1014  C1045   1.512   .     S
C1014  C1279   1.435   .     S
C1015  N1018   1.379   .     A
C1015  C1049   1.513   .     S
C1015  C1542   1.435   1_545 S
C1016  N1017   1.379   .     A
C1016  C1053   1.513   .     S
C1016  C1277   1.435   .     S
C1019  H1020   1.110   .     S
C1019  H1021   1.107   .     S
C1019  H1022   1.110   .     S
C1023  H1024   1.110   .     S
C1023  H1025   1.110   .     S
C1023  H1026   1.107   .     S
C1027  H1032   1.113   .     S
C1027  C1028   1.528   .     S
C1027  H1033   1.110   .     S
C1028  H1031   1.109   .     S
C1028  H1030   1.111   .     S
C1028  H1029   1.109   .     S
C1034  H1040   1.113   .     S
C1034  C1035   1.528   .     S
C1034  H1039   1.110   .     S
C1035  H1036   1.111   .     S
C1035  H1038   1.108   .     S
C1035  H1037   1.109   .     S
C1041  H1042   1.084   .     S
C1041  H1043   1.110   .     S
C1041  H1044   1.109   .     S
C1045  H1046   1.084   .     S
C1045  H1047   1.109   .     S
C1045  H1048   1.110   .     S
C1049  H1050   1.084   .     S
C1049  H1051   1.110   .     S
C1049  H1052   1.110   .     S
C1053  H1055   1.110   .     S
C1053  H1054   1.084   .     S
C1053  H1056   1.110   .     S
O1057  C1061   1.296   .     A
O1057  Zn1069  1.996   .     S
O1058  C1062   1.296   .     A
O1058  Zn1070  1.996   .     S
O1059  C1062   1.295   .     A
O1059  Zn1069  1.994   .     S
O1060  Zn1070  1.994   .     S
O1060  C1061   1.295   .     A
C1061  C1100   1.418   .     S
C1062  C1099   1.418   .     S
O1063  C1067   1.295   .     A
O1063  Zn1069  2.006   .     S
O1064  C1068   1.295   .     A
O1064  Zn1070  2.006   .     S
O1065  Zn1069  2.009   .     S
O1065  C1068   1.295   .     A
O1066  Zn1070  2.009   .     S
O1066  C1067   1.295   .     A
C1067  C1074   1.420   .     S
C1068  C1073   1.420   .     S
Zn1069 N1105   2.044   .     S
Zn1070 N1106   2.044   .     S
C1071  C1081   1.406   .     A
C1071  C1107   1.521   .     S
C1071  C1073   1.401   .     A
C1072  C1082   1.406   .     A
C1072  C1111   1.521   .     S
C1072  C1074   1.401   .     A
C1073  C1075   1.383   .     A
C1074  C1076   1.383   .     A
C1075  H1087   1.082   .     S
C1075  C1077   1.387   .     A
C1076  C1078   1.387   .     A
C1076  H1088   1.082   .     S
C1077  C1083   1.416   .     A
C1077  C1079   1.420   .     A
C1078  C1084   1.416   .     A
C1078  C1080   1.420   .     A
C1079  C1081   1.422   .     A
C1079  C288    1.402   1_556 S
C1080  C1082   1.422   .     A
C1081  C1086   1.404   .     A
C1082  C1085   1.404   .     A
C1083  C1115   1.520   .     S
C1083  C293    1.390   1_556 S
C1084  C1122   1.520   .     S
C1085  H1089   1.081   .     S
C1086  H1090   1.081   .     S
C1086  C292    1.390   1_556 S
C1091  H1095   1.084   .     S
C1091  C1100   1.397   .     A
C1091  C1269   1.371   1_455 S
C1092  H1096   1.084   .     S
C1092  C1099   1.397   .     A
C1092  C1182   1.371   .     S
C1093  C1099   1.396   .     A
C1093  H1097   1.082   .     S
C1093  C1179   1.371   .     S
C1094  H1098   1.082   .     S
C1094  C1100   1.396   .     A
C1094  C1268   1.371   1_455 S
C1101  C1129   1.512   .     S
C1101  N1106   1.380   .     A
C1102  N1105   1.380   .     A
C1102  C1133   1.512   .     S
C1102  C1367   1.435   .     S
C1103  N1106   1.379   .     A
C1103  C1137   1.513   .     S
C1104  N1105   1.379   .     A
C1104  C1141   1.513   .     S
C1104  C1365   1.435   .     S
C1107  H1108   1.110   .     S
C1107  H1109   1.107   .     S
C1107  H1110   1.110   .     S
C1111  H1112   1.110   .     S
C1111  H1113   1.110   .     S
C1111  H1114   1.107   .     S
C1115  H1120   1.113   .     S
C1115  C1116   1.528   .     S
C1115  H1121   1.110   .     S
C1116  H1119   1.109   .     S
C1116  H1118   1.111   .     S
C1116  H1117   1.109   .     S
C1122  H1128   1.113   .     S
C1122  C1123   1.528   .     S
C1122  H1127   1.110   .     S
C1123  H1124   1.111   .     S
C1123  H1126   1.108   .     S
C1123  H1125   1.109   .     S
C1129  H1130   1.084   .     S
C1129  H1131   1.110   .     S
C1129  H1132   1.109   .     S
C1133  H1134   1.084   .     S
C1133  H1135   1.109   .     S
C1133  H1136   1.110   .     S
C1137  H1138   1.084   .     S
C1137  H1139   1.110   .     S
C1137  H1140   1.110   .     S
C1141  H1143   1.110   .     S
C1141  H1142   1.084   .     S
C1141  H1144   1.110   .     S
O1145  C1149   1.296   .     A
O1145  Zn1157  1.996   .     S
O1146  C1150   1.296   .     A
O1146  Zn1158  1.996   .     S
O1147  C1150   1.295   .     A
O1147  Zn1157  1.994   .     S
O1148  Zn1158  1.994   .     S
O1148  C1149   1.295   .     A
C1149  C1188   1.418   .     S
C1150  C1187   1.418   .     S
O1151  C1155   1.295   .     A
O1151  Zn1157  2.006   .     S
O1152  C1156   1.295   .     A
O1152  Zn1158  2.006   .     S
O1153  Zn1157  2.009   .     S
O1153  C1156   1.295   .     A
O1154  Zn1158  2.009   .     S
O1154  C1155   1.295   .     A
C1155  C1162   1.420   .     S
C1156  C1161   1.420   .     S
Zn1157 N1193   2.044   .     S
Zn1158 N1194   2.044   .     S
C1159  C1169   1.406   .     A
C1159  C1195   1.521   .     S
C1159  C1161   1.401   .     A
C1160  C1170   1.406   .     A
C1160  C1199   1.521   .     S
C1160  C1162   1.401   .     A
C1161  C1163   1.383   .     A
C1162  C1164   1.383   .     A
C1163  H1175   1.082   .     S
C1163  C1165   1.387   .     A
C1164  C1166   1.387   .     A
C1164  H1176   1.082   .     S
C1165  C1171   1.416   .     A
C1165  C1167   1.420   .     A
C1166  C1172   1.416   .     A
C1166  C1168   1.420   .     A
C1167  C1169   1.422   .     A
C1167  C376    1.402   1_556 S
C1168  C1170   1.422   .     A
C1169  C1174   1.404   .     A
C1170  C1173   1.404   .     A
C1171  C1203   1.520   .     S
C1171  C381    1.390   1_556 S
C1172  C1210   1.520   .     S
C1173  H1177   1.081   .     S
C1174  H1178   1.081   .     S
C1174  C380    1.390   1_556 S
C1179  H1183   1.084   .     S
C1179  C1188   1.397   .     A
C1180  H1184   1.084   .     S
C1180  C1187   1.397   .     A
C1180  C1270   1.371   .     S
C1181  C1187   1.396   .     A
C1181  H1185   1.082   .     S
C1181  C1267   1.371   .     S
C1182  H1186   1.082   .     S
C1182  C1188   1.396   .     A
C1189  C1217   1.512   .     S
C1189  N1194   1.380   .     A
C1190  N1193   1.380   .     A
C1190  C1221   1.512   .     S
C1190  C1455   1.435   .     S
C1191  N1194   1.379   .     A
C1191  C1225   1.513   .     S
C1192  N1193   1.379   .     A
C1192  C1229   1.513   .     S
C1192  C1453   1.435   .     S
C1195  H1196   1.110   .     S
C1195  H1197   1.107   .     S
C1195  H1198   1.110   .     S
C1199  H1200   1.110   .     S
C1199  H1201   1.110   .     S
C1199  H1202   1.107   .     S
C1203  H1208   1.113   .     S
C1203  C1204   1.528   .     S
C1203  H1209   1.110   .     S
C1204  H1207   1.109   .     S
C1204  H1206   1.111   .     S
C1204  H1205   1.109   .     S
C1210  H1216   1.113   .     S
C1210  C1211   1.528   .     S
C1210  H1215   1.110   .     S
C1211  H1212   1.111   .     S
C1211  H1214   1.108   .     S
C1211  H1213   1.109   .     S
C1217  H1218   1.084   .     S
C1217  H1219   1.110   .     S
C1217  H1220   1.109   .     S
C1221  H1222   1.084   .     S
C1221  H1223   1.109   .     S
C1221  H1224   1.110   .     S
C1225  H1226   1.084   .     S
C1225  H1227   1.110   .     S
C1225  H1228   1.110   .     S
C1229  H1231   1.110   .     S
C1229  H1230   1.084   .     S
C1229  H1232   1.110   .     S
O1233  C1237   1.296   .     A
O1233  Zn1245  1.996   .     S
O1234  C1238   1.296   .     A
O1234  Zn1246  1.996   .     S
O1235  C1238   1.295   .     A
O1235  Zn1245  1.994   .     S
O1236  Zn1246  1.994   .     S
O1236  C1237   1.295   .     A
C1237  C1276   1.418   .     S
C1238  C1275   1.418   .     S
O1239  C1243   1.295   .     A
O1239  Zn1245  2.006   .     S
O1240  C1244   1.295   .     A
O1240  Zn1246  2.006   .     S
O1241  Zn1245  2.009   .     S
O1241  C1244   1.295   .     A
O1242  Zn1246  2.009   .     S
O1242  C1243   1.295   .     A
C1243  C1250   1.420   .     S
C1244  C1249   1.420   .     S
Zn1245 N1281   2.044   .     S
Zn1246 N1282   2.044   .     S
C1247  C1257   1.406   .     A
C1247  C1283   1.521   .     S
C1247  C1249   1.401   .     A
C1248  C1258   1.406   .     A
C1248  C1287   1.521   .     S
C1248  C1250   1.401   .     A
C1249  C1251   1.383   .     A
C1250  C1252   1.383   .     A
C1251  H1263   1.082   .     S
C1251  C1253   1.387   .     A
C1252  C1254   1.387   .     A
C1252  H1264   1.082   .     S
C1253  C1259   1.416   .     A
C1253  C1255   1.420   .     A
C1254  C1260   1.416   .     A
C1254  C1256   1.420   .     A
C1255  C1257   1.422   .     A
C1255  C464    1.402   1_556 S
C1256  C1258   1.422   .     A
C1257  C1262   1.404   .     A
C1258  C1261   1.404   .     A
C1259  C1291   1.520   .     S
C1259  C469    1.390   1_556 S
C1260  C1298   1.520   .     S
C1261  H1265   1.081   .     S
C1262  H1266   1.081   .     S
C1262  C468    1.390   1_556 S
C1267  H1271   1.084   .     S
C1267  C1276   1.397   .     A
C1268  H1272   1.084   .     S
C1268  C1275   1.397   .     A
C1268  C1094   1.371   1_655 S
C1269  C1275   1.396   .     A
C1269  H1273   1.082   .     S
C1269  C1091   1.371   1_655 S
C1270  H1274   1.082   .     S
C1270  C1276   1.396   .     A
C1277  C1305   1.512   .     S
C1277  N1282   1.380   .     A
C1278  N1281   1.380   .     A
C1278  C1309   1.512   .     S
C1278  C1543   1.435   .     S
C1279  N1282   1.379   .     A
C1279  C1313   1.513   .     S
C1280  N1281   1.379   .     A
C1280  C1317   1.513   .     S
C1280  C1541   1.435   .     S
C1283  H1284   1.110   .     S
C1283  H1285   1.107   .     S
C1283  H1286   1.110   .     S
C1287  H1288   1.110   .     S
C1287  H1289   1.110   .     S
C1287  H1290   1.107   .     S
C1291  H1296   1.113   .     S
C1291  C1292   1.528   .     S
C1291  H1297   1.110   .     S
C1292  H1295   1.109   .     S
C1292  H1294   1.111   .     S
C1292  H1293   1.109   .     S
C1298  H1304   1.113   .     S
C1298  C1299   1.528   .     S
C1298  H1303   1.110   .     S
C1299  H1300   1.111   .     S
C1299  H1302   1.108   .     S
C1299  H1301   1.109   .     S
C1305  H1306   1.084   .     S
C1305  H1307   1.110   .     S
C1305  H1308   1.109   .     S
C1309  H1310   1.084   .     S
C1309  H1311   1.109   .     S
C1309  H1312   1.110   .     S
C1313  H1314   1.084   .     S
C1313  H1315   1.110   .     S
C1313  H1316   1.110   .     S
C1317  H1319   1.110   .     S
C1317  H1318   1.084   .     S
C1317  H1320   1.110   .     S
O1321  C1325   1.296   .     A
O1321  Zn1333  1.996   .     S
O1322  C1326   1.296   .     A
O1322  Zn1334  1.996   .     S
O1323  C1326   1.295   .     A
O1323  Zn1333  1.994   .     S
O1324  Zn1334  1.994   .     S
O1324  C1325   1.295   .     A
C1325  C1364   1.418   .     S
C1326  C1363   1.418   .     S
O1327  C1331   1.295   .     A
O1327  Zn1333  2.006   .     S
O1328  C1332   1.295   .     A
O1328  Zn1334  2.006   .     S
O1329  Zn1333  2.009   .     S
O1329  C1332   1.295   .     A
O1330  Zn1334  2.009   .     S
O1330  C1331   1.295   .     A
C1331  C1338   1.420   .     S
C1332  C1337   1.420   .     S
Zn1333 N1369   2.044   .     S
Zn1334 N1370   2.044   .     S
C1335  C1345   1.406   .     A
C1335  C1371   1.521   .     S
C1335  C1337   1.401   .     A
C1336  C1346   1.406   .     A
C1336  C1375   1.521   .     S
C1336  C1338   1.401   .     A
C1337  C1339   1.383   .     A
C1338  C1340   1.383   .     A
C1339  H1351   1.082   .     S
C1339  C1341   1.387   .     A
C1340  C1342   1.387   .     A
C1340  H1352   1.082   .     S
C1341  C1347   1.416   .     A
C1341  C1343   1.420   .     A
C1342  C1348   1.416   .     A
C1342  C1344   1.420   .     A
C1343  C1345   1.422   .     A
C1343  C552    1.402   1_556 S
C1344  C1346   1.422   .     A
C1345  C1350   1.404   .     A
C1346  C1349   1.404   .     A
C1347  C1379   1.520   .     S
C1347  C557    1.390   1_556 S
C1348  C1386   1.520   .     S
C1349  H1353   1.081   .     S
C1350  H1354   1.081   .     S
C1350  C556    1.390   1_556 S
C1355  H1359   1.084   .     S
C1355  C1364   1.397   .     A
C1355  C1533   1.371   1_455 S
C1356  H1360   1.084   .     S
C1356  C1363   1.397   .     A
C1356  C1446   1.371   .     S
C1357  C1363   1.396   .     A
C1357  H1361   1.082   .     S
C1357  C1443   1.371   .     S
C1358  H1362   1.082   .     S
C1358  C1364   1.396   .     A
C1358  C1532   1.371   1_455 S
C1365  C1393   1.512   .     S
C1365  N1370   1.380   .     A
C1366  N1369   1.380   .     A
C1366  C1397   1.512   .     S
C1366  C839    1.435   1_565 S
C1367  N1370   1.379   .     A
C1367  C1401   1.513   .     S
C1368  N1369   1.379   .     A
C1368  C1405   1.513   .     S
C1368  C837    1.435   1_565 S
C1371  H1372   1.110   .     S
C1371  H1373   1.107   .     S
C1371  H1374   1.110   .     S
C1375  H1376   1.110   .     S
C1375  H1377   1.110   .     S
C1375  H1378   1.107   .     S
C1379  H1384   1.113   .     S
C1379  C1380   1.528   .     S
C1379  H1385   1.110   .     S
C1380  H1383   1.109   .     S
C1380  H1382   1.111   .     S
C1380  H1381   1.109   .     S
C1386  H1392   1.113   .     S
C1386  C1387   1.528   .     S
C1386  H1391   1.110   .     S
C1387  H1388   1.111   .     S
C1387  H1390   1.108   .     S
C1387  H1389   1.109   .     S
C1393  H1394   1.084   .     S
C1393  H1395   1.110   .     S
C1393  H1396   1.109   .     S
C1397  H1398   1.084   .     S
C1397  H1399   1.109   .     S
C1397  H1400   1.110   .     S
C1401  H1402   1.084   .     S
C1401  H1403   1.110   .     S
C1401  H1404   1.110   .     S
C1405  H1407   1.110   .     S
C1405  H1406   1.084   .     S
C1405  H1408   1.110   .     S
O1409  C1413   1.296   .     A
O1409  Zn1421  1.996   .     S
O1410  C1414   1.296   .     A
O1410  Zn1422  1.996   .     S
O1411  C1414   1.295   .     A
O1411  Zn1421  1.994   .     S
O1412  Zn1422  1.994   .     S
O1412  C1413   1.295   .     A
C1413  C1452   1.418   .     S
C1414  C1451   1.418   .     S
O1415  C1419   1.295   .     A
O1415  Zn1421  2.006   .     S
O1416  C1420   1.295   .     A
O1416  Zn1422  2.006   .     S
O1417  Zn1421  2.009   .     S
O1417  C1420   1.295   .     A
O1418  Zn1422  2.009   .     S
O1418  C1419   1.295   .     A
C1419  C1426   1.420   .     S
C1420  C1425   1.420   .     S
Zn1421 N1457   2.044   .     S
Zn1422 N1458   2.044   .     S
C1423  C1433   1.406   .     A
C1423  C1459   1.521   .     S
C1423  C1425   1.401   .     A
C1424  C1434   1.406   .     A
C1424  C1463   1.521   .     S
C1424  C1426   1.401   .     A
C1425  C1427   1.383   .     A
C1426  C1428   1.383   .     A
C1427  H1439   1.082   .     S
C1427  C1429   1.387   .     A
C1428  C1430   1.387   .     A
C1428  H1440   1.082   .     S
C1429  C1435   1.416   .     A
C1429  C1431   1.420   .     A
C1430  C1436   1.416   .     A
C1430  C1432   1.420   .     A
C1431  C1433   1.422   .     A
C1431  C640    1.402   1_556 S
C1432  C1434   1.422   .     A
C1433  C1438   1.404   .     A
C1434  C1437   1.404   .     A
C1435  C1467   1.520   .     S
C1435  C645    1.390   1_556 S
C1436  C1474   1.520   .     S
C1437  H1441   1.081   .     S
C1438  H1442   1.081   .     S
C1438  C644    1.390   1_556 S
C1443  H1447   1.084   .     S
C1443  C1452   1.397   .     A
C1444  H1448   1.084   .     S
C1444  C1451   1.397   .     A
C1444  C1534   1.371   .     S
C1445  C1451   1.396   .     A
C1445  H1449   1.082   .     S
C1445  C1531   1.371   .     S
C1446  H1450   1.082   .     S
C1446  C1452   1.396   .     A
C1453  C1481   1.512   .     S
C1453  N1458   1.380   .     A
C1454  N1457   1.380   .     A
C1454  C1485   1.512   .     S
C1454  C927    1.435   1_565 S
C1455  N1458   1.379   .     A
C1455  C1489   1.513   .     S
C1456  N1457   1.379   .     A
C1456  C1493   1.513   .     S
C1456  C925    1.435   1_565 S
C1459  H1460   1.110   .     S
C1459  H1461   1.107   .     S
C1459  H1462   1.110   .     S
C1463  H1464   1.110   .     S
C1463  H1465   1.110   .     S
C1463  H1466   1.107   .     S
C1467  H1472   1.113   .     S
C1467  C1468   1.528   .     S
C1467  H1473   1.110   .     S
C1468  H1471   1.109   .     S
C1468  H1470   1.111   .     S
C1468  H1469   1.109   .     S
C1474  H1480   1.113   .     S
C1474  C1475   1.528   .     S
C1474  H1479   1.110   .     S
C1475  H1476   1.111   .     S
C1475  H1478   1.108   .     S
C1475  H1477   1.109   .     S
C1481  H1482   1.084   .     S
C1481  H1483   1.110   .     S
C1481  H1484   1.109   .     S
C1485  H1486   1.084   .     S
C1485  H1487   1.109   .     S
C1485  H1488   1.110   .     S
C1489  H1490   1.084   .     S
C1489  H1491   1.110   .     S
C1489  H1492   1.110   .     S
C1493  H1495   1.110   .     S
C1493  H1494   1.084   .     S
C1493  H1496   1.110   .     S
O1497  C1501   1.296   .     A
O1497  Zn1509  1.996   .     S
O1498  C1502   1.296   .     A
O1498  Zn1510  1.996   .     S
O1499  C1502   1.295   .     A
O1499  Zn1509  1.994   .     S
O1500  Zn1510  1.994   .     S
O1500  C1501   1.295   .     A
C1501  C1540   1.418   .     S
C1502  C1539   1.418   .     S
O1503  C1507   1.295   .     A
O1503  Zn1509  2.006   .     S
O1504  C1508   1.295   .     A
O1504  Zn1510  2.006   .     S
O1505  Zn1509  2.009   .     S
O1505  C1508   1.295   .     A
O1506  Zn1510  2.009   .     S
O1506  C1507   1.295   .     A
C1507  C1514   1.420   .     S
C1508  C1513   1.420   .     S
Zn1509 N1545   2.044   .     S
Zn1510 N1546   2.044   .     S
C1511  C1521   1.406   .     A
C1511  C1547   1.521   .     S
C1511  C1513   1.401   .     A
C1512  C1522   1.406   .     A
C1512  C1551   1.521   .     S
C1512  C1514   1.401   .     A
C1513  C1515   1.383   .     A
C1514  C1516   1.383   .     A
C1515  H1527   1.082   .     S
C1515  C1517   1.387   .     A
C1516  C1518   1.387   .     A
C1516  H1528   1.082   .     S
C1517  C1523   1.416   .     A
C1517  C1519   1.420   .     A
C1518  C1524   1.416   .     A
C1518  C1520   1.420   .     A
C1519  C1521   1.422   .     A
C1519  C728    1.402   1_556 S
C1520  C1522   1.422   .     A
C1521  C1526   1.404   .     A
C1522  C1525   1.404   .     A
C1523  C1555   1.520   .     S
C1523  C733    1.390   1_556 S
C1524  C1562   1.520   .     S
C1525  H1529   1.081   .     S
C1526  H1530   1.081   .     S
C1526  C732    1.390   1_556 S
C1531  H1535   1.084   .     S
C1531  C1540   1.397   .     A
C1532  H1536   1.084   .     S
C1532  C1539   1.397   .     A
C1532  C1358   1.371   1_655 S
C1533  C1539   1.396   .     A
C1533  H1537   1.082   .     S
C1533  C1355   1.371   1_655 S
C1534  H1538   1.082   .     S
C1534  C1540   1.396   .     A
C1541  C1569   1.512   .     S
C1541  N1546   1.380   .     A
C1542  N1545   1.380   .     A
C1542  C1573   1.512   .     S
C1542  C1015   1.435   1_565 S
C1543  N1546   1.379   .     A
C1543  C1577   1.513   .     S
C1544  N1545   1.379   .     A
C1544  C1581   1.513   .     S
C1544  C1013   1.435   1_565 S
C1547  H1548   1.110   .     S
C1547  H1549   1.107   .     S
C1547  H1550   1.110   .     S
C1551  H1552   1.110   .     S
C1551  H1553   1.110   .     S
C1551  H1554   1.107   .     S
C1555  H1560   1.113   .     S
C1555  C1556   1.528   .     S
C1555  H1561   1.110   .     S
C1556  H1559   1.109   .     S
C1556  H1558   1.111   .     S
C1556  H1557   1.109   .     S
C1562  H1568   1.113   .     S
C1562  C1563   1.528   .     S
C1562  H1567   1.110   .     S
C1563  H1564   1.111   .     S
C1563  H1566   1.108   .     S
C1563  H1565   1.109   .     S
C1569  H1570   1.084   .     S
C1569  H1571   1.110   .     S
C1569  H1572   1.109   .     S
C1573  H1574   1.084   .     S
C1573  H1575   1.109   .     S
C1573  H1576   1.110   .     S
C1577  H1578   1.084   .     S
C1577  H1579   1.110   .     S
C1577  H1580   1.110   .     S
C1581  H1583   1.110   .     S
C1581  H1582   1.084   .     S
C1581  H1584   1.110   .     S
