data_str_m3_o10_o18_pcu_sym.144
_audit_creation_date              2020-01-03
_audit_creation_method            'Materials Studio'
_symmetry_space_group_name_H-M    'P1'
_symmetry_Int_Tables_number       1
_symmetry_cell_setting            triclinic
loop_
_symmetry_equiv_pos_as_xyz
  x,y,z
_cell_length_a                    23.9491
_cell_length_b                    26.0083
_cell_length_c                    27.2561
_cell_angle_alpha                 97.7888
_cell_angle_beta                  94.0852
_cell_angle_gamma                 92.3821
loop_
_atom_site_label
_atom_site_type_symbol
_atom_site_fract_x
_atom_site_fract_y
_atom_site_fract_z
_atom_site_U_iso_or_equiv
_atom_site_adp_type
_atom_site_occupancy
C1     C     0.01452   0.26446   0.24932   0.00000  Uiso   1.00
C2     C     0.31222   0.16265   0.15885   0.00000  Uiso   1.00
C3     C     0.03347   0.18915   0.39355   0.00000  Uiso   1.00
C4     C     0.29942   0.14436   0.10674   0.00000  Uiso   1.00
C5     C     0.06547   0.26618   0.44901   0.00000  Uiso   1.00
C6     C     0.26325   0.06718   0.05366   0.00000  Uiso   1.00
C7     C     0.03164   0.24245   0.40826   0.00000  Uiso   1.00
C8     C     0.29957   0.09076   0.09272   0.00000  Uiso   1.00
C9     C     0.06495   0.15914   0.42256   0.00000  Uiso   1.00
C10    C     0.26698   0.17463   0.07866   0.00000  Uiso   1.00
C11    C     0.10660   0.18300   0.45787   0.00000  Uiso   1.00
C12    C     0.31945   0.06891   0.25144   0.00000  Uiso   1.00
C13    C     0.22336   0.15114   0.04525   0.00000  Uiso   1.00
C14    C     0.10421   0.23707   0.47287   0.00000  Uiso   1.00
C15    C     0.22396   0.09669   0.03095   0.00000  Uiso   1.00
C16    C     0.14877   0.15469   0.47981   0.00000  Uiso   1.00
C17    C     0.18089   0.17987   0.02411   0.00000  Uiso   1.00
C18    C     0.11655   0.00089   0.24411   0.00000  Uiso   1.00
C19    C     0.30751   0.02344   0.34418   0.00000  Uiso   1.00
C20    C     0.16978   0.23283   0.04337   0.00000  Uiso   1.00
C21    C     0.15923   0.10176   0.46060   0.00000  Uiso   1.00
C22    C     0.13706   0.26123   0.01378   0.00000  Uiso   1.00
C23    C     0.18916   0.07249   0.49126   0.00000  Uiso   1.00
C24    C     0.02161   0.31769   0.24417   0.00000  Uiso   1.00
C25    C     0.31627   0.01683   0.26150   0.00000  Uiso   1.00
C26    C     0.02112   0.17086   0.34123   0.00000  Uiso   1.00
H27    H     0.13125   0.30193   0.02640   0.00000  Uiso   1.00
H28    H     0.12516   0.33170   0.39388   0.00000  Uiso   1.00
H29    H     0.13811   0.29785   0.23365   0.00000  Uiso   1.00
H30    H     0.11368   0.00818   0.28509   0.00000  Uiso   1.00
H31    H     0.14376   0.03295   0.23500   0.00000  Uiso   1.00
H32    H     0.31199   0.06656   0.34998   0.00000  Uiso   1.00
H33    H     0.01624   0.00749   0.34967   0.00000  Uiso   1.00
H34    H     0.28156   0.01174   0.37324   0.00000  Uiso   1.00
H35    H     0.10495   0.06319   0.12677   0.00000  Uiso   1.00
H36    H     0.23379   0.25973   0.37590   0.00000  Uiso   1.00
H37    H     0.19371   0.03153   0.47920   0.00000  Uiso   1.00
H38    H     0.27471   0.21623   0.08479   0.00000  Uiso   1.00
H39    H     0.05748   0.11755   0.41648   0.00000  Uiso   1.00
H40    H     0.32439   0.06673   0.11440   0.00000  Uiso   1.00
H41    H     0.00690   0.26600   0.38628   0.00000  Uiso   1.00
H42    H     0.06328   0.30761   0.46034   0.00000  Uiso   1.00
H43    H     0.26426   0.02561   0.04259   0.00000  Uiso   1.00
H44    H     0.09477   0.29522   0.11287   0.00000  Uiso   1.00
N45    N     0.14695   0.15216   0.23739   0.00000  Uiso   1.00
N46    N     0.18638   0.18117   0.26260   0.00000  Uiso   1.00
O47    O     0.29719   0.24631   0.25309   0.00000  Uiso   1.00
O48    O     0.19883   0.32019   0.10633   0.00000  Uiso   1.00
O49    O     0.11280   0.26630   0.12693   0.00000  Uiso   1.00
O50    O     0.11690   0.08773   0.35996   0.00000  Uiso   1.00
O51    O     0.21724   0.09594   0.38091   0.00000  Uiso   1.00
O52    O     0.16434   0.01057   0.39106   0.00000  Uiso   1.00
O53    O     0.06416   0.33288   0.21614   0.00000  Uiso   1.00
O54    O     0.28094   0.00435   0.29678   0.00000  Uiso   1.00
O55    O     0.16222   0.15353   0.14230   0.00000  Uiso   1.00
O56    O     0.20592   0.08382   0.18101   0.00000  Uiso   1.00
O57    O     0.09939   0.07818   0.16137   0.00000  Uiso   1.00
O58    O     0.03614   0.08702   0.24691   0.00000  Uiso   1.00
O59    O     0.12823   0.25173   0.31708   0.00000  Uiso   1.00
O60    O     0.16654   0.18096   0.35690   0.00000  Uiso   1.00
O61    O     0.23400   0.25386   0.33924   0.00000  Uiso   1.00
O62    O     0.05822   0.23702   0.24501   0.00000  Uiso   1.00
O63    O     0.27512   0.09632   0.25498   0.00000  Uiso   1.00
O64    O     0.30328   0.17397   0.32247   0.00000  Uiso   1.00
O65    O     0.03005   0.15937   0.17753   0.00000  Uiso   1.00
O66    O     0.06431   0.16467   0.31439   0.00000  Uiso   1.00
O67    O     0.26902   0.16866   0.18561   0.00000  Uiso   1.00
O68    O     0.21421   0.24217   0.14355   0.00000  Uiso   1.00
S69    S     0.17743   0.26507   0.10640   0.00000  Uiso   1.00
S70    S     0.16262   0.07561   0.39642   0.00000  Uiso   1.00
S71    S     0.15663   0.11732   0.18005   0.00000  Uiso   1.00
S72    S     0.17588   0.21664   0.31935   0.00000  Uiso   1.00
Zn73   Zn    0.27033   0.17287   0.25539   0.00000  Uiso   1.00
Zn74   Zn    0.06300   0.16046   0.24461   0.00000  Uiso   1.00
C75    C     0.34786   0.26446   0.24932   0.00000  Uiso   1.00
C76    C     0.64555   0.16265   0.15885   0.00000  Uiso   1.00
C77    C     0.36681   0.18915   0.39355   0.00000  Uiso   1.00
C78    C     0.63275   0.14436   0.10674   0.00000  Uiso   1.00
C79    C     0.39881   0.26618   0.44901   0.00000  Uiso   1.00
C80    C     0.59658   0.06718   0.05366   0.00000  Uiso   1.00
C81    C     0.36497   0.24245   0.40826   0.00000  Uiso   1.00
C82    C     0.63291   0.09076   0.09272   0.00000  Uiso   1.00
C83    C     0.39829   0.15914   0.42256   0.00000  Uiso   1.00
C84    C     0.60031   0.17463   0.07866   0.00000  Uiso   1.00
C85    C     0.43993   0.18300   0.45787   0.00000  Uiso   1.00
C86    C     0.65278   0.06891   0.25144   0.00000  Uiso   1.00
C87    C     0.55669   0.15114   0.04525   0.00000  Uiso   1.00
C88    C     0.43754   0.23707   0.47287   0.00000  Uiso   1.00
C89    C     0.55729   0.09669   0.03095   0.00000  Uiso   1.00
C90    C     0.48211   0.15469   0.47981   0.00000  Uiso   1.00
C91    C     0.51422   0.17987   0.02411   0.00000  Uiso   1.00
C92    C     0.44989   0.00089   0.24411   0.00000  Uiso   1.00
C93    C     0.64085   0.02344   0.34418   0.00000  Uiso   1.00
C94    C     0.50311   0.23283   0.04337   0.00000  Uiso   1.00
C95    C     0.49256   0.10176   0.46060   0.00000  Uiso   1.00
C96    C     0.47039   0.26123   0.01378   0.00000  Uiso   1.00
C97    C     0.52249   0.07249   0.49126   0.00000  Uiso   1.00
C98    C     0.35494   0.31769   0.24417   0.00000  Uiso   1.00
C99    C     0.64961   0.01683   0.26150   0.00000  Uiso   1.00
C100   C     0.35445   0.17086   0.34123   0.00000  Uiso   1.00
H101   H     0.46458   0.30193   0.02640   0.00000  Uiso   1.00
H102   H     0.45849   0.33170   0.39388   0.00000  Uiso   1.00
H103   H     0.47144   0.29785   0.23365   0.00000  Uiso   1.00
H104   H     0.44701   0.00818   0.28509   0.00000  Uiso   1.00
H105   H     0.47709   0.03295   0.23500   0.00000  Uiso   1.00
H106   H     0.64532   0.06656   0.34998   0.00000  Uiso   1.00
H107   H     0.34958   0.00749   0.34967   0.00000  Uiso   1.00
H108   H     0.61489   0.01174   0.37324   0.00000  Uiso   1.00
H109   H     0.43829   0.06319   0.12677   0.00000  Uiso   1.00
H110   H     0.56712   0.25973   0.37590   0.00000  Uiso   1.00
H111   H     0.52704   0.03153   0.47920   0.00000  Uiso   1.00
H112   H     0.60805   0.21623   0.08479   0.00000  Uiso   1.00
H113   H     0.39082   0.11755   0.41648   0.00000  Uiso   1.00
H114   H     0.65773   0.06673   0.11440   0.00000  Uiso   1.00
H115   H     0.34023   0.26600   0.38628   0.00000  Uiso   1.00
H116   H     0.39661   0.30761   0.46034   0.00000  Uiso   1.00
H117   H     0.59759   0.02561   0.04259   0.00000  Uiso   1.00
H118   H     0.42810   0.29522   0.11287   0.00000  Uiso   1.00
N119   N     0.48029   0.15216   0.23739   0.00000  Uiso   1.00
N120   N     0.51971   0.18117   0.26260   0.00000  Uiso   1.00
O121   O     0.63052   0.24631   0.25309   0.00000  Uiso   1.00
O122   O     0.53216   0.32019   0.10633   0.00000  Uiso   1.00
O123   O     0.44613   0.26630   0.12693   0.00000  Uiso   1.00
O124   O     0.45023   0.08773   0.35996   0.00000  Uiso   1.00
O125   O     0.55057   0.09594   0.38091   0.00000  Uiso   1.00
O126   O     0.49767   0.01057   0.39106   0.00000  Uiso   1.00
O127   O     0.39749   0.33288   0.21614   0.00000  Uiso   1.00
O128   O     0.61427   0.00435   0.29678   0.00000  Uiso   1.00
O129   O     0.49556   0.15353   0.14230   0.00000  Uiso   1.00
O130   O     0.53925   0.08382   0.18101   0.00000  Uiso   1.00
O131   O     0.43272   0.07818   0.16137   0.00000  Uiso   1.00
O132   O     0.36948   0.08702   0.24691   0.00000  Uiso   1.00
O133   O     0.46156   0.25173   0.31708   0.00000  Uiso   1.00
O134   O     0.49988   0.18096   0.35690   0.00000  Uiso   1.00
O135   O     0.56733   0.25386   0.33924   0.00000  Uiso   1.00
O136   O     0.39155   0.23702   0.24501   0.00000  Uiso   1.00
O137   O     0.60845   0.09632   0.25498   0.00000  Uiso   1.00
O138   O     0.63662   0.17397   0.32247   0.00000  Uiso   1.00
O139   O     0.36338   0.15937   0.17753   0.00000  Uiso   1.00
O140   O     0.39764   0.16467   0.31439   0.00000  Uiso   1.00
O141   O     0.60236   0.16866   0.18561   0.00000  Uiso   1.00
O142   O     0.54754   0.24217   0.14355   0.00000  Uiso   1.00
S143   S     0.51076   0.26507   0.10640   0.00000  Uiso   1.00
S144   S     0.49595   0.07561   0.39642   0.00000  Uiso   1.00
S145   S     0.48997   0.11732   0.18005   0.00000  Uiso   1.00
S146   S     0.50921   0.21664   0.31935   0.00000  Uiso   1.00
Zn147  Zn    0.60366   0.17287   0.25539   0.00000  Uiso   1.00
Zn148  Zn    0.39634   0.16046   0.24461   0.00000  Uiso   1.00
C149   C     0.68119   0.26446   0.24932   0.00000  Uiso   1.00
C150   C     0.97889   0.16265   0.15885   0.00000  Uiso   1.00
C151   C     0.70014   0.18915   0.39355   0.00000  Uiso   1.00
C152   C     0.96608   0.14436   0.10674   0.00000  Uiso   1.00
C153   C     0.73214   0.26618   0.44901   0.00000  Uiso   1.00
C154   C     0.92991   0.06718   0.05366   0.00000  Uiso   1.00
C155   C     0.69831   0.24245   0.40826   0.00000  Uiso   1.00
C156   C     0.96624   0.09076   0.09272   0.00000  Uiso   1.00
C157   C     0.73162   0.15914   0.42256   0.00000  Uiso   1.00
C158   C     0.93364   0.17463   0.07866   0.00000  Uiso   1.00
C159   C     0.77327   0.18300   0.45787   0.00000  Uiso   1.00
C160   C     0.98611   0.06891   0.25144   0.00000  Uiso   1.00
C161   C     0.89003   0.15114   0.04525   0.00000  Uiso   1.00
C162   C     0.77088   0.23707   0.47287   0.00000  Uiso   1.00
C163   C     0.89063   0.09669   0.03095   0.00000  Uiso   1.00
C164   C     0.81544   0.15469   0.47981   0.00000  Uiso   1.00
C165   C     0.84755   0.17987   0.02411   0.00000  Uiso   1.00
C166   C     0.78322   0.00089   0.24411   0.00000  Uiso   1.00
C167   C     0.97418   0.02344   0.34418   0.00000  Uiso   1.00
C168   C     0.83644   0.23283   0.04337   0.00000  Uiso   1.00
C169   C     0.82590   0.10176   0.46060   0.00000  Uiso   1.00
C170   C     0.80372   0.26123   0.01378   0.00000  Uiso   1.00
C171   C     0.85582   0.07249   0.49126   0.00000  Uiso   1.00
C172   C     0.68827   0.31769   0.24417   0.00000  Uiso   1.00
C173   C     0.98294   0.01683   0.26150   0.00000  Uiso   1.00
C174   C     0.68779   0.17086   0.34123   0.00000  Uiso   1.00
H175   H     0.79791   0.30193   0.02640   0.00000  Uiso   1.00
H176   H     0.79183   0.33170   0.39388   0.00000  Uiso   1.00
H177   H     0.80478   0.29785   0.23365   0.00000  Uiso   1.00
H178   H     0.78035   0.00818   0.28509   0.00000  Uiso   1.00
H179   H     0.81042   0.03295   0.23500   0.00000  Uiso   1.00
H180   H     0.97866   0.06656   0.34998   0.00000  Uiso   1.00
H181   H     0.68291   0.00749   0.34967   0.00000  Uiso   1.00
H182   H     0.94822   0.01174   0.37324   0.00000  Uiso   1.00
H183   H     0.77162   0.06319   0.12677   0.00000  Uiso   1.00
H184   H     0.90045   0.25973   0.37590   0.00000  Uiso   1.00
H185   H     0.86038   0.03153   0.47920   0.00000  Uiso   1.00
H186   H     0.94138   0.21623   0.08479   0.00000  Uiso   1.00
H187   H     0.72415   0.11755   0.41648   0.00000  Uiso   1.00
H188   H     0.99106   0.06673   0.11440   0.00000  Uiso   1.00
H189   H     0.67357   0.26600   0.38628   0.00000  Uiso   1.00
H190   H     0.72995   0.30761   0.46034   0.00000  Uiso   1.00
H191   H     0.93092   0.02561   0.04259   0.00000  Uiso   1.00
H192   H     0.76143   0.29522   0.11287   0.00000  Uiso   1.00
N193   N     0.81362   0.15216   0.23739   0.00000  Uiso   1.00
N194   N     0.85305   0.18117   0.26260   0.00000  Uiso   1.00
O195   O     0.96386   0.24631   0.25309   0.00000  Uiso   1.00
O196   O     0.86549   0.32019   0.10633   0.00000  Uiso   1.00
O197   O     0.77947   0.26630   0.12693   0.00000  Uiso   1.00
O198   O     0.78356   0.08773   0.35996   0.00000  Uiso   1.00
O199   O     0.88391   0.09594   0.38091   0.00000  Uiso   1.00
O200   O     0.83100   0.01057   0.39106   0.00000  Uiso   1.00
O201   O     0.73082   0.33288   0.21614   0.00000  Uiso   1.00
O202   O     0.94760   0.00435   0.29678   0.00000  Uiso   1.00
O203   O     0.82889   0.15353   0.14230   0.00000  Uiso   1.00
O204   O     0.87258   0.08382   0.18101   0.00000  Uiso   1.00
O205   O     0.76606   0.07818   0.16137   0.00000  Uiso   1.00
O206   O     0.70281   0.08702   0.24691   0.00000  Uiso   1.00
O207   O     0.79489   0.25173   0.31708   0.00000  Uiso   1.00
O208   O     0.83321   0.18096   0.35690   0.00000  Uiso   1.00
O209   O     0.90066   0.25386   0.33924   0.00000  Uiso   1.00
O210   O     0.72488   0.23702   0.24501   0.00000  Uiso   1.00
O211   O     0.94178   0.09632   0.25498   0.00000  Uiso   1.00
O212   O     0.96995   0.17397   0.32247   0.00000  Uiso   1.00
O213   O     0.69672   0.15937   0.17753   0.00000  Uiso   1.00
O214   O     0.73098   0.16467   0.31439   0.00000  Uiso   1.00
O215   O     0.93569   0.16866   0.18561   0.00000  Uiso   1.00
O216   O     0.88087   0.24217   0.14355   0.00000  Uiso   1.00
S217   S     0.84410   0.26507   0.10640   0.00000  Uiso   1.00
S218   S     0.82929   0.07561   0.39642   0.00000  Uiso   1.00
S219   S     0.82330   0.11732   0.18005   0.00000  Uiso   1.00
S220   S     0.84255   0.21664   0.31935   0.00000  Uiso   1.00
Zn221  Zn    0.93700   0.17287   0.25539   0.00000  Uiso   1.00
Zn222  Zn    0.72967   0.16046   0.24461   0.00000  Uiso   1.00
C223   C     0.01452   0.59780   0.24932   0.00000  Uiso   1.00
C224   C     0.31222   0.49598   0.15885   0.00000  Uiso   1.00
C225   C     0.03347   0.52249   0.39355   0.00000  Uiso   1.00
C226   C     0.29942   0.47770   0.10674   0.00000  Uiso   1.00
C227   C     0.06547   0.59951   0.44901   0.00000  Uiso   1.00
C228   C     0.26325   0.40052   0.05366   0.00000  Uiso   1.00
C229   C     0.03164   0.57579   0.40826   0.00000  Uiso   1.00
C230   C     0.29957   0.42409   0.09272   0.00000  Uiso   1.00
C231   C     0.06495   0.49247   0.42256   0.00000  Uiso   1.00
C232   C     0.26698   0.50796   0.07866   0.00000  Uiso   1.00
C233   C     0.10660   0.51634   0.45787   0.00000  Uiso   1.00
C234   C     0.31945   0.40225   0.25144   0.00000  Uiso   1.00
C235   C     0.22336   0.48448   0.04525   0.00000  Uiso   1.00
C236   C     0.10421   0.57040   0.47287   0.00000  Uiso   1.00
C237   C     0.22396   0.43002   0.03095   0.00000  Uiso   1.00
C238   C     0.14877   0.48802   0.47981   0.00000  Uiso   1.00
C239   C     0.18089   0.51320   0.02411   0.00000  Uiso   1.00
C240   C     0.11655   0.33423   0.24411   0.00000  Uiso   1.00
C241   C     0.30751   0.35677   0.34418   0.00000  Uiso   1.00
C242   C     0.16978   0.56616   0.04337   0.00000  Uiso   1.00
C243   C     0.15923   0.43509   0.46060   0.00000  Uiso   1.00
C244   C     0.13706   0.59456   0.01378   0.00000  Uiso   1.00
C245   C     0.18916   0.40583   0.49126   0.00000  Uiso   1.00
C246   C     0.02161   0.65102   0.24417   0.00000  Uiso   1.00
C247   C     0.31627   0.35016   0.26150   0.00000  Uiso   1.00
C248   C     0.02112   0.50420   0.34123   0.00000  Uiso   1.00
H249   H     0.13125   0.63527   0.02640   0.00000  Uiso   1.00
H250   H     0.12516   0.66504   0.39388   0.00000  Uiso   1.00
H251   H     0.13811   0.63118   0.23365   0.00000  Uiso   1.00
H252   H     0.11368   0.34151   0.28509   0.00000  Uiso   1.00
H253   H     0.14376   0.36629   0.23500   0.00000  Uiso   1.00
H254   H     0.31199   0.39989   0.34998   0.00000  Uiso   1.00
H255   H     0.01624   0.34082   0.34967   0.00000  Uiso   1.00
H256   H     0.28156   0.34507   0.37324   0.00000  Uiso   1.00
H257   H     0.10495   0.39653   0.12677   0.00000  Uiso   1.00
H258   H     0.23379   0.59306   0.37590   0.00000  Uiso   1.00
H259   H     0.19371   0.36487   0.47920   0.00000  Uiso   1.00
H260   H     0.27471   0.54956   0.08479   0.00000  Uiso   1.00
H261   H     0.05748   0.45088   0.41648   0.00000  Uiso   1.00
H262   H     0.32439   0.40006   0.11440   0.00000  Uiso   1.00
H263   H     0.00690   0.59933   0.38628   0.00000  Uiso   1.00
H264   H     0.06328   0.64094   0.46034   0.00000  Uiso   1.00
H265   H     0.26426   0.35895   0.04259   0.00000  Uiso   1.00
H266   H     0.09477   0.62856   0.11287   0.00000  Uiso   1.00
N267   N     0.14695   0.48550   0.23739   0.00000  Uiso   1.00
N268   N     0.18638   0.51450   0.26260   0.00000  Uiso   1.00
O269   O     0.29719   0.57964   0.25309   0.00000  Uiso   1.00
O270   O     0.19883   0.65352   0.10633   0.00000  Uiso   1.00
O271   O     0.11280   0.59963   0.12693   0.00000  Uiso   1.00
O272   O     0.11690   0.42106   0.35996   0.00000  Uiso   1.00
O273   O     0.21724   0.42927   0.38091   0.00000  Uiso   1.00
O274   O     0.16434   0.34390   0.39106   0.00000  Uiso   1.00
O275   O     0.06416   0.66621   0.21614   0.00000  Uiso   1.00
O276   O     0.28094   0.33769   0.29678   0.00000  Uiso   1.00
O277   O     0.16222   0.48686   0.14230   0.00000  Uiso   1.00
O278   O     0.20592   0.41716   0.18101   0.00000  Uiso   1.00
O279   O     0.09939   0.41151   0.16137   0.00000  Uiso   1.00
O280   O     0.03614   0.42036   0.24691   0.00000  Uiso   1.00
O281   O     0.12823   0.58506   0.31708   0.00000  Uiso   1.00
O282   O     0.16654   0.51429   0.35690   0.00000  Uiso   1.00
O283   O     0.23400   0.58719   0.33924   0.00000  Uiso   1.00
O284   O     0.05822   0.57035   0.24501   0.00000  Uiso   1.00
O285   O     0.27512   0.42965   0.25498   0.00000  Uiso   1.00
O286   O     0.30328   0.50730   0.32247   0.00000  Uiso   1.00
O287   O     0.03005   0.49270   0.17753   0.00000  Uiso   1.00
O288   O     0.06431   0.49801   0.31439   0.00000  Uiso   1.00
O289   O     0.26902   0.50199   0.18561   0.00000  Uiso   1.00
O290   O     0.21421   0.57551   0.14355   0.00000  Uiso   1.00
S291   S     0.17743   0.59840   0.10640   0.00000  Uiso   1.00
S292   S     0.16262   0.40894   0.39642   0.00000  Uiso   1.00
S293   S     0.15663   0.45065   0.18005   0.00000  Uiso   1.00
S294   S     0.17588   0.54997   0.31935   0.00000  Uiso   1.00
Zn295  Zn    0.27033   0.50621   0.25539   0.00000  Uiso   1.00
Zn296  Zn    0.06300   0.49379   0.24461   0.00000  Uiso   1.00
C297   C     0.34786   0.59780   0.24932   0.00000  Uiso   1.00
C298   C     0.64555   0.49598   0.15885   0.00000  Uiso   1.00
C299   C     0.36681   0.52249   0.39355   0.00000  Uiso   1.00
C300   C     0.63275   0.47770   0.10674   0.00000  Uiso   1.00
C301   C     0.39881   0.59951   0.44901   0.00000  Uiso   1.00
C302   C     0.59658   0.40052   0.05366   0.00000  Uiso   1.00
C303   C     0.36497   0.57579   0.40826   0.00000  Uiso   1.00
C304   C     0.63291   0.42409   0.09272   0.00000  Uiso   1.00
C305   C     0.39829   0.49247   0.42256   0.00000  Uiso   1.00
C306   C     0.60031   0.50796   0.07866   0.00000  Uiso   1.00
C307   C     0.43993   0.51634   0.45787   0.00000  Uiso   1.00
C308   C     0.65278   0.40225   0.25144   0.00000  Uiso   1.00
C309   C     0.55669   0.48448   0.04525   0.00000  Uiso   1.00
C310   C     0.43754   0.57040   0.47287   0.00000  Uiso   1.00
C311   C     0.55729   0.43002   0.03095   0.00000  Uiso   1.00
C312   C     0.48211   0.48802   0.47981   0.00000  Uiso   1.00
C313   C     0.51422   0.51320   0.02411   0.00000  Uiso   1.00
C314   C     0.44989   0.33423   0.24411   0.00000  Uiso   1.00
C315   C     0.64085   0.35677   0.34418   0.00000  Uiso   1.00
C316   C     0.50311   0.56616   0.04337   0.00000  Uiso   1.00
C317   C     0.49256   0.43509   0.46060   0.00000  Uiso   1.00
C318   C     0.47039   0.59456   0.01378   0.00000  Uiso   1.00
C319   C     0.52249   0.40583   0.49126   0.00000  Uiso   1.00
C320   C     0.35494   0.65102   0.24417   0.00000  Uiso   1.00
C321   C     0.64961   0.35016   0.26150   0.00000  Uiso   1.00
C322   C     0.35445   0.50420   0.34123   0.00000  Uiso   1.00
H323   H     0.46458   0.63527   0.02640   0.00000  Uiso   1.00
H324   H     0.45849   0.66504   0.39388   0.00000  Uiso   1.00
H325   H     0.47144   0.63118   0.23365   0.00000  Uiso   1.00
H326   H     0.44701   0.34151   0.28509   0.00000  Uiso   1.00
H327   H     0.47709   0.36629   0.23500   0.00000  Uiso   1.00
H328   H     0.64532   0.39989   0.34998   0.00000  Uiso   1.00
H329   H     0.34958   0.34082   0.34967   0.00000  Uiso   1.00
H330   H     0.61489   0.34507   0.37324   0.00000  Uiso   1.00
H331   H     0.43829   0.39653   0.12677   0.00000  Uiso   1.00
H332   H     0.56712   0.59306   0.37590   0.00000  Uiso   1.00
H333   H     0.52704   0.36487   0.47920   0.00000  Uiso   1.00
H334   H     0.60805   0.54956   0.08479   0.00000  Uiso   1.00
H335   H     0.39082   0.45088   0.41648   0.00000  Uiso   1.00
H336   H     0.65773   0.40006   0.11440   0.00000  Uiso   1.00
H337   H     0.34023   0.59933   0.38628   0.00000  Uiso   1.00
H338   H     0.39661   0.64094   0.46034   0.00000  Uiso   1.00
H339   H     0.59759   0.35895   0.04259   0.00000  Uiso   1.00
H340   H     0.42810   0.62856   0.11287   0.00000  Uiso   1.00
N341   N     0.48029   0.48550   0.23739   0.00000  Uiso   1.00
N342   N     0.51971   0.51450   0.26260   0.00000  Uiso   1.00
O343   O     0.63052   0.57964   0.25309   0.00000  Uiso   1.00
O344   O     0.53216   0.65352   0.10633   0.00000  Uiso   1.00
O345   O     0.44613   0.59963   0.12693   0.00000  Uiso   1.00
O346   O     0.45023   0.42106   0.35996   0.00000  Uiso   1.00
O347   O     0.55057   0.42927   0.38091   0.00000  Uiso   1.00
O348   O     0.49767   0.34390   0.39106   0.00000  Uiso   1.00
O349   O     0.39749   0.66621   0.21614   0.00000  Uiso   1.00
O350   O     0.61427   0.33769   0.29678   0.00000  Uiso   1.00
O351   O     0.49556   0.48686   0.14230   0.00000  Uiso   1.00
O352   O     0.53925   0.41716   0.18101   0.00000  Uiso   1.00
O353   O     0.43272   0.41151   0.16137   0.00000  Uiso   1.00
O354   O     0.36948   0.42036   0.24691   0.00000  Uiso   1.00
O355   O     0.46156   0.58506   0.31708   0.00000  Uiso   1.00
O356   O     0.49988   0.51429   0.35690   0.00000  Uiso   1.00
O357   O     0.56733   0.58719   0.33924   0.00000  Uiso   1.00
O358   O     0.39155   0.57035   0.24501   0.00000  Uiso   1.00
O359   O     0.60845   0.42965   0.25498   0.00000  Uiso   1.00
O360   O     0.63662   0.50730   0.32247   0.00000  Uiso   1.00
O361   O     0.36338   0.49270   0.17753   0.00000  Uiso   1.00
O362   O     0.39764   0.49801   0.31439   0.00000  Uiso   1.00
O363   O     0.60236   0.50199   0.18561   0.00000  Uiso   1.00
O364   O     0.54754   0.57551   0.14355   0.00000  Uiso   1.00
S365   S     0.51076   0.59840   0.10640   0.00000  Uiso   1.00
S366   S     0.49595   0.40894   0.39642   0.00000  Uiso   1.00
S367   S     0.48997   0.45065   0.18005   0.00000  Uiso   1.00
S368   S     0.50921   0.54997   0.31935   0.00000  Uiso   1.00
Zn369  Zn    0.60366   0.50621   0.25539   0.00000  Uiso   1.00
Zn370  Zn    0.39634   0.49379   0.24461   0.00000  Uiso   1.00
C371   C     0.68119   0.59780   0.24932   0.00000  Uiso   1.00
C372   C     0.97889   0.49598   0.15885   0.00000  Uiso   1.00
C373   C     0.70014   0.52249   0.39355   0.00000  Uiso   1.00
C374   C     0.96608   0.47770   0.10674   0.00000  Uiso   1.00
C375   C     0.73214   0.59951   0.44901   0.00000  Uiso   1.00
C376   C     0.92991   0.40052   0.05366   0.00000  Uiso   1.00
C377   C     0.69831   0.57579   0.40826   0.00000  Uiso   1.00
C378   C     0.96624   0.42409   0.09272   0.00000  Uiso   1.00
C379   C     0.73162   0.49247   0.42256   0.00000  Uiso   1.00
C380   C     0.93364   0.50796   0.07866   0.00000  Uiso   1.00
C381   C     0.77327   0.51634   0.45787   0.00000  Uiso   1.00
C382   C     0.98611   0.40225   0.25144   0.00000  Uiso   1.00
C383   C     0.89003   0.48448   0.04525   0.00000  Uiso   1.00
C384   C     0.77088   0.57040   0.47287   0.00000  Uiso   1.00
C385   C     0.89063   0.43002   0.03095   0.00000  Uiso   1.00
C386   C     0.81544   0.48802   0.47981   0.00000  Uiso   1.00
C387   C     0.84755   0.51320   0.02411   0.00000  Uiso   1.00
C388   C     0.78322   0.33423   0.24411   0.00000  Uiso   1.00
C389   C     0.97418   0.35677   0.34418   0.00000  Uiso   1.00
C390   C     0.83644   0.56616   0.04337   0.00000  Uiso   1.00
C391   C     0.82590   0.43509   0.46060   0.00000  Uiso   1.00
C392   C     0.80372   0.59456   0.01378   0.00000  Uiso   1.00
C393   C     0.85582   0.40583   0.49126   0.00000  Uiso   1.00
C394   C     0.68827   0.65102   0.24417   0.00000  Uiso   1.00
C395   C     0.98294   0.35016   0.26150   0.00000  Uiso   1.00
C396   C     0.68779   0.50420   0.34123   0.00000  Uiso   1.00
H397   H     0.79791   0.63527   0.02640   0.00000  Uiso   1.00
H398   H     0.79183   0.66504   0.39388   0.00000  Uiso   1.00
H399   H     0.80478   0.63118   0.23365   0.00000  Uiso   1.00
H400   H     0.78035   0.34151   0.28509   0.00000  Uiso   1.00
H401   H     0.81042   0.36629   0.23500   0.00000  Uiso   1.00
H402   H     0.97866   0.39989   0.34998   0.00000  Uiso   1.00
H403   H     0.68291   0.34082   0.34967   0.00000  Uiso   1.00
H404   H     0.94822   0.34507   0.37324   0.00000  Uiso   1.00
H405   H     0.77162   0.39653   0.12677   0.00000  Uiso   1.00
H406   H     0.90045   0.59306   0.37590   0.00000  Uiso   1.00
H407   H     0.86038   0.36487   0.47920   0.00000  Uiso   1.00
H408   H     0.94138   0.54956   0.08479   0.00000  Uiso   1.00
H409   H     0.72415   0.45088   0.41648   0.00000  Uiso   1.00
H410   H     0.99106   0.40006   0.11440   0.00000  Uiso   1.00
H411   H     0.67357   0.59933   0.38628   0.00000  Uiso   1.00
H412   H     0.72995   0.64094   0.46034   0.00000  Uiso   1.00
H413   H     0.93092   0.35895   0.04259   0.00000  Uiso   1.00
H414   H     0.76143   0.62856   0.11287   0.00000  Uiso   1.00
N415   N     0.81362   0.48550   0.23739   0.00000  Uiso   1.00
N416   N     0.85305   0.51450   0.26260   0.00000  Uiso   1.00
O417   O     0.96386   0.57964   0.25309   0.00000  Uiso   1.00
O418   O     0.86549   0.65352   0.10633   0.00000  Uiso   1.00
O419   O     0.77947   0.59963   0.12693   0.00000  Uiso   1.00
O420   O     0.78356   0.42106   0.35996   0.00000  Uiso   1.00
O421   O     0.88391   0.42927   0.38091   0.00000  Uiso   1.00
O422   O     0.83100   0.34390   0.39106   0.00000  Uiso   1.00
O423   O     0.73082   0.66621   0.21614   0.00000  Uiso   1.00
O424   O     0.94760   0.33769   0.29678   0.00000  Uiso   1.00
O425   O     0.82889   0.48686   0.14230   0.00000  Uiso   1.00
O426   O     0.87258   0.41716   0.18101   0.00000  Uiso   1.00
O427   O     0.76606   0.41151   0.16137   0.00000  Uiso   1.00
O428   O     0.70281   0.42036   0.24691   0.00000  Uiso   1.00
O429   O     0.79489   0.58506   0.31708   0.00000  Uiso   1.00
O430   O     0.83321   0.51429   0.35690   0.00000  Uiso   1.00
O431   O     0.90066   0.58719   0.33924   0.00000  Uiso   1.00
O432   O     0.72488   0.57035   0.24501   0.00000  Uiso   1.00
O433   O     0.94178   0.42965   0.25498   0.00000  Uiso   1.00
O434   O     0.96995   0.50730   0.32247   0.00000  Uiso   1.00
O435   O     0.69672   0.49270   0.17753   0.00000  Uiso   1.00
O436   O     0.73098   0.49801   0.31439   0.00000  Uiso   1.00
O437   O     0.93569   0.50199   0.18561   0.00000  Uiso   1.00
O438   O     0.88087   0.57551   0.14355   0.00000  Uiso   1.00
S439   S     0.84410   0.59840   0.10640   0.00000  Uiso   1.00
S440   S     0.82929   0.40894   0.39642   0.00000  Uiso   1.00
S441   S     0.82330   0.45065   0.18005   0.00000  Uiso   1.00
S442   S     0.84255   0.54997   0.31935   0.00000  Uiso   1.00
Zn443  Zn    0.93700   0.50621   0.25539   0.00000  Uiso   1.00
Zn444  Zn    0.72967   0.49379   0.24461   0.00000  Uiso   1.00
C445   C     0.01452   0.93113   0.24932   0.00000  Uiso   1.00
C446   C     0.31222   0.82932   0.15885   0.00000  Uiso   1.00
C447   C     0.03347   0.85582   0.39355   0.00000  Uiso   1.00
C448   C     0.29942   0.81103   0.10674   0.00000  Uiso   1.00
C449   C     0.06547   0.93285   0.44901   0.00000  Uiso   1.00
C450   C     0.26325   0.73385   0.05366   0.00000  Uiso   1.00
C451   C     0.03164   0.90912   0.40826   0.00000  Uiso   1.00
C452   C     0.29957   0.75742   0.09272   0.00000  Uiso   1.00
C453   C     0.06495   0.82581   0.42256   0.00000  Uiso   1.00
C454   C     0.26698   0.84130   0.07866   0.00000  Uiso   1.00
C455   C     0.10660   0.84967   0.45787   0.00000  Uiso   1.00
C456   C     0.31945   0.73558   0.25144   0.00000  Uiso   1.00
C457   C     0.22336   0.81781   0.04525   0.00000  Uiso   1.00
C458   C     0.10421   0.90374   0.47287   0.00000  Uiso   1.00
C459   C     0.22396   0.76336   0.03095   0.00000  Uiso   1.00
C460   C     0.14877   0.82136   0.47981   0.00000  Uiso   1.00
C461   C     0.18089   0.84654   0.02411   0.00000  Uiso   1.00
C462   C     0.11655   0.66756   0.24411   0.00000  Uiso   1.00
C463   C     0.30751   0.69011   0.34418   0.00000  Uiso   1.00
C464   C     0.16978   0.89949   0.04337   0.00000  Uiso   1.00
C465   C     0.15923   0.76842   0.46060   0.00000  Uiso   1.00
C466   C     0.13706   0.92789   0.01378   0.00000  Uiso   1.00
C467   C     0.18916   0.73916   0.49126   0.00000  Uiso   1.00
C468   C     0.02161   0.98435   0.24417   0.00000  Uiso   1.00
C469   C     0.31627   0.68350   0.26150   0.00000  Uiso   1.00
C470   C     0.02112   0.83753   0.34123   0.00000  Uiso   1.00
H471   H     0.13125   0.96860   0.02640   0.00000  Uiso   1.00
H472   H     0.12516   0.99837   0.39388   0.00000  Uiso   1.00
H473   H     0.13811   0.96452   0.23365   0.00000  Uiso   1.00
H474   H     0.11368   0.67484   0.28509   0.00000  Uiso   1.00
H475   H     0.14376   0.69962   0.23500   0.00000  Uiso   1.00
H476   H     0.31199   0.73323   0.34998   0.00000  Uiso   1.00
H477   H     0.01624   0.67415   0.34967   0.00000  Uiso   1.00
H478   H     0.28156   0.67841   0.37324   0.00000  Uiso   1.00
H479   H     0.10495   0.72986   0.12677   0.00000  Uiso   1.00
H480   H     0.23379   0.92640   0.37590   0.00000  Uiso   1.00
H481   H     0.19371   0.69820   0.47920   0.00000  Uiso   1.00
H482   H     0.27471   0.88289   0.08479   0.00000  Uiso   1.00
H483   H     0.05748   0.78422   0.41648   0.00000  Uiso   1.00
H484   H     0.32439   0.73339   0.11440   0.00000  Uiso   1.00
H485   H     0.00690   0.93267   0.38628   0.00000  Uiso   1.00
H486   H     0.06328   0.97427   0.46034   0.00000  Uiso   1.00
H487   H     0.26426   0.69228   0.04259   0.00000  Uiso   1.00
H488   H     0.09477   0.96189   0.11287   0.00000  Uiso   1.00
N489   N     0.14695   0.81883   0.23739   0.00000  Uiso   1.00
N490   N     0.18638   0.84784   0.26260   0.00000  Uiso   1.00
O491   O     0.29719   0.91298   0.25309   0.00000  Uiso   1.00
O492   O     0.19883   0.98685   0.10633   0.00000  Uiso   1.00
O493   O     0.11280   0.93297   0.12693   0.00000  Uiso   1.00
O494   O     0.11690   0.75440   0.35996   0.00000  Uiso   1.00
O495   O     0.21724   0.76260   0.38091   0.00000  Uiso   1.00
O496   O     0.16434   0.67723   0.39106   0.00000  Uiso   1.00
O497   O     0.06416   0.99955   0.21614   0.00000  Uiso   1.00
O498   O     0.28094   0.67102   0.29678   0.00000  Uiso   1.00
O499   O     0.16222   0.82020   0.14230   0.00000  Uiso   1.00
O500   O     0.20592   0.75049   0.18101   0.00000  Uiso   1.00
O501   O     0.09939   0.74484   0.16137   0.00000  Uiso   1.00
O502   O     0.03614   0.75369   0.24691   0.00000  Uiso   1.00
O503   O     0.12823   0.91840   0.31708   0.00000  Uiso   1.00
O504   O     0.16654   0.84762   0.35690   0.00000  Uiso   1.00
O505   O     0.23400   0.92052   0.33924   0.00000  Uiso   1.00
O506   O     0.05822   0.90368   0.24501   0.00000  Uiso   1.00
O507   O     0.27512   0.76298   0.25498   0.00000  Uiso   1.00
O508   O     0.30328   0.84063   0.32247   0.00000  Uiso   1.00
O509   O     0.03005   0.82603   0.17753   0.00000  Uiso   1.00
O510   O     0.06431   0.83134   0.31439   0.00000  Uiso   1.00
O511   O     0.26902   0.83533   0.18561   0.00000  Uiso   1.00
O512   O     0.21421   0.90884   0.14355   0.00000  Uiso   1.00
S513   S     0.17743   0.93174   0.10640   0.00000  Uiso   1.00
S514   S     0.16262   0.74227   0.39642   0.00000  Uiso   1.00
S515   S     0.15663   0.78399   0.18005   0.00000  Uiso   1.00
S516   S     0.17588   0.88330   0.31935   0.00000  Uiso   1.00
Zn517  Zn    0.27033   0.83954   0.25539   0.00000  Uiso   1.00
Zn518  Zn    0.06300   0.82713   0.24461   0.00000  Uiso   1.00
C519   C     0.34786   0.93113   0.24932   0.00000  Uiso   1.00
C520   C     0.64555   0.82932   0.15885   0.00000  Uiso   1.00
C521   C     0.36681   0.85582   0.39355   0.00000  Uiso   1.00
C522   C     0.63275   0.81103   0.10674   0.00000  Uiso   1.00
C523   C     0.39881   0.93285   0.44901   0.00000  Uiso   1.00
C524   C     0.59658   0.73385   0.05366   0.00000  Uiso   1.00
C525   C     0.36497   0.90912   0.40826   0.00000  Uiso   1.00
C526   C     0.63291   0.75742   0.09272   0.00000  Uiso   1.00
C527   C     0.39829   0.82581   0.42256   0.00000  Uiso   1.00
C528   C     0.60031   0.84130   0.07866   0.00000  Uiso   1.00
C529   C     0.43993   0.84967   0.45787   0.00000  Uiso   1.00
C530   C     0.65278   0.73558   0.25144   0.00000  Uiso   1.00
C531   C     0.55669   0.81781   0.04525   0.00000  Uiso   1.00
C532   C     0.43754   0.90374   0.47287   0.00000  Uiso   1.00
C533   C     0.55729   0.76336   0.03095   0.00000  Uiso   1.00
C534   C     0.48211   0.82136   0.47981   0.00000  Uiso   1.00
C535   C     0.51422   0.84654   0.02411   0.00000  Uiso   1.00
C536   C     0.44989   0.66756   0.24411   0.00000  Uiso   1.00
C537   C     0.64085   0.69011   0.34418   0.00000  Uiso   1.00
C538   C     0.50311   0.89949   0.04337   0.00000  Uiso   1.00
C539   C     0.49256   0.76842   0.46060   0.00000  Uiso   1.00
C540   C     0.47039   0.92789   0.01378   0.00000  Uiso   1.00
C541   C     0.52249   0.73916   0.49126   0.00000  Uiso   1.00
C542   C     0.35494   0.98435   0.24417   0.00000  Uiso   1.00
C543   C     0.64961   0.68350   0.26150   0.00000  Uiso   1.00
C544   C     0.35445   0.83753   0.34123   0.00000  Uiso   1.00
H545   H     0.46458   0.96860   0.02640   0.00000  Uiso   1.00
H546   H     0.45849   0.99837   0.39388   0.00000  Uiso   1.00
H547   H     0.47144   0.96452   0.23365   0.00000  Uiso   1.00
H548   H     0.44701   0.67484   0.28509   0.00000  Uiso   1.00
H549   H     0.47709   0.69962   0.23500   0.00000  Uiso   1.00
H550   H     0.64532   0.73323   0.34998   0.00000  Uiso   1.00
H551   H     0.34958   0.67415   0.34967   0.00000  Uiso   1.00
H552   H     0.61489   0.67841   0.37324   0.00000  Uiso   1.00
H553   H     0.43829   0.72986   0.12677   0.00000  Uiso   1.00
H554   H     0.56712   0.92640   0.37590   0.00000  Uiso   1.00
H555   H     0.52704   0.69820   0.47920   0.00000  Uiso   1.00
H556   H     0.60805   0.88289   0.08479   0.00000  Uiso   1.00
H557   H     0.39082   0.78422   0.41648   0.00000  Uiso   1.00
H558   H     0.65773   0.73339   0.11440   0.00000  Uiso   1.00
H559   H     0.34023   0.93267   0.38628   0.00000  Uiso   1.00
H560   H     0.39661   0.97427   0.46034   0.00000  Uiso   1.00
H561   H     0.59759   0.69228   0.04259   0.00000  Uiso   1.00
H562   H     0.42810   0.96189   0.11287   0.00000  Uiso   1.00
N563   N     0.48029   0.81883   0.23739   0.00000  Uiso   1.00
N564   N     0.51971   0.84784   0.26260   0.00000  Uiso   1.00
O565   O     0.63052   0.91298   0.25309   0.00000  Uiso   1.00
O566   O     0.53216   0.98685   0.10633   0.00000  Uiso   1.00
O567   O     0.44613   0.93297   0.12693   0.00000  Uiso   1.00
O568   O     0.45023   0.75440   0.35996   0.00000  Uiso   1.00
O569   O     0.55057   0.76260   0.38091   0.00000  Uiso   1.00
O570   O     0.49767   0.67723   0.39106   0.00000  Uiso   1.00
O571   O     0.39749   0.99955   0.21614   0.00000  Uiso   1.00
O572   O     0.61427   0.67102   0.29678   0.00000  Uiso   1.00
O573   O     0.49556   0.82020   0.14230   0.00000  Uiso   1.00
O574   O     0.53925   0.75049   0.18101   0.00000  Uiso   1.00
O575   O     0.43272   0.74484   0.16137   0.00000  Uiso   1.00
O576   O     0.36948   0.75369   0.24691   0.00000  Uiso   1.00
O577   O     0.46156   0.91840   0.31708   0.00000  Uiso   1.00
O578   O     0.49988   0.84762   0.35690   0.00000  Uiso   1.00
O579   O     0.56733   0.92052   0.33924   0.00000  Uiso   1.00
O580   O     0.39155   0.90368   0.24501   0.00000  Uiso   1.00
O581   O     0.60845   0.76298   0.25498   0.00000  Uiso   1.00
O582   O     0.63662   0.84063   0.32247   0.00000  Uiso   1.00
O583   O     0.36338   0.82603   0.17753   0.00000  Uiso   1.00
O584   O     0.39764   0.83134   0.31439   0.00000  Uiso   1.00
O585   O     0.60236   0.83533   0.18561   0.00000  Uiso   1.00
O586   O     0.54754   0.90884   0.14355   0.00000  Uiso   1.00
S587   S     0.51076   0.93174   0.10640   0.00000  Uiso   1.00
S588   S     0.49595   0.74227   0.39642   0.00000  Uiso   1.00
S589   S     0.48997   0.78399   0.18005   0.00000  Uiso   1.00
S590   S     0.50921   0.88330   0.31935   0.00000  Uiso   1.00
Zn591  Zn    0.60366   0.83954   0.25539   0.00000  Uiso   1.00
Zn592  Zn    0.39634   0.82713   0.24461   0.00000  Uiso   1.00
C593   C     0.68119   0.93113   0.24932   0.00000  Uiso   1.00
C594   C     0.97889   0.82932   0.15885   0.00000  Uiso   1.00
C595   C     0.70014   0.85582   0.39355   0.00000  Uiso   1.00
C596   C     0.96608   0.81103   0.10674   0.00000  Uiso   1.00
C597   C     0.73214   0.93285   0.44901   0.00000  Uiso   1.00
C598   C     0.92991   0.73385   0.05366   0.00000  Uiso   1.00
C599   C     0.69831   0.90912   0.40826   0.00000  Uiso   1.00
C600   C     0.96624   0.75742   0.09272   0.00000  Uiso   1.00
C601   C     0.73162   0.82581   0.42256   0.00000  Uiso   1.00
C602   C     0.93364   0.84130   0.07866   0.00000  Uiso   1.00
C603   C     0.77327   0.84967   0.45787   0.00000  Uiso   1.00
C604   C     0.98611   0.73558   0.25144   0.00000  Uiso   1.00
C605   C     0.89003   0.81781   0.04525   0.00000  Uiso   1.00
C606   C     0.77088   0.90374   0.47287   0.00000  Uiso   1.00
C607   C     0.89063   0.76336   0.03095   0.00000  Uiso   1.00
C608   C     0.81544   0.82136   0.47981   0.00000  Uiso   1.00
C609   C     0.84755   0.84654   0.02411   0.00000  Uiso   1.00
C610   C     0.78322   0.66756   0.24411   0.00000  Uiso   1.00
C611   C     0.97418   0.69011   0.34418   0.00000  Uiso   1.00
C612   C     0.83644   0.89949   0.04337   0.00000  Uiso   1.00
C613   C     0.82590   0.76842   0.46060   0.00000  Uiso   1.00
C614   C     0.80372   0.92789   0.01378   0.00000  Uiso   1.00
C615   C     0.85582   0.73916   0.49126   0.00000  Uiso   1.00
C616   C     0.68827   0.98435   0.24417   0.00000  Uiso   1.00
C617   C     0.98294   0.68350   0.26150   0.00000  Uiso   1.00
C618   C     0.68779   0.83753   0.34123   0.00000  Uiso   1.00
H619   H     0.79791   0.96860   0.02640   0.00000  Uiso   1.00
H620   H     0.79183   0.99837   0.39388   0.00000  Uiso   1.00
H621   H     0.80478   0.96452   0.23365   0.00000  Uiso   1.00
H622   H     0.78035   0.67484   0.28509   0.00000  Uiso   1.00
H623   H     0.81042   0.69962   0.23500   0.00000  Uiso   1.00
H624   H     0.97866   0.73323   0.34998   0.00000  Uiso   1.00
H625   H     0.68291   0.67415   0.34967   0.00000  Uiso   1.00
H626   H     0.94822   0.67841   0.37324   0.00000  Uiso   1.00
H627   H     0.77162   0.72986   0.12677   0.00000  Uiso   1.00
H628   H     0.90045   0.92640   0.37590   0.00000  Uiso   1.00
H629   H     0.86038   0.69820   0.47920   0.00000  Uiso   1.00
H630   H     0.94138   0.88289   0.08479   0.00000  Uiso   1.00
H631   H     0.72415   0.78422   0.41648   0.00000  Uiso   1.00
H632   H     0.99106   0.73339   0.11440   0.00000  Uiso   1.00
H633   H     0.67357   0.93267   0.38628   0.00000  Uiso   1.00
H634   H     0.72995   0.97427   0.46034   0.00000  Uiso   1.00
H635   H     0.93092   0.69228   0.04259   0.00000  Uiso   1.00
H636   H     0.76143   0.96189   0.11287   0.00000  Uiso   1.00
N637   N     0.81362   0.81883   0.23739   0.00000  Uiso   1.00
N638   N     0.85305   0.84784   0.26260   0.00000  Uiso   1.00
O639   O     0.96386   0.91298   0.25309   0.00000  Uiso   1.00
O640   O     0.86549   0.98685   0.10633   0.00000  Uiso   1.00
O641   O     0.77947   0.93297   0.12693   0.00000  Uiso   1.00
O642   O     0.78356   0.75440   0.35996   0.00000  Uiso   1.00
O643   O     0.88391   0.76260   0.38091   0.00000  Uiso   1.00
O644   O     0.83100   0.67723   0.39106   0.00000  Uiso   1.00
O645   O     0.73082   0.99955   0.21614   0.00000  Uiso   1.00
O646   O     0.94760   0.67102   0.29678   0.00000  Uiso   1.00
O647   O     0.82889   0.82020   0.14230   0.00000  Uiso   1.00
O648   O     0.87258   0.75049   0.18101   0.00000  Uiso   1.00
O649   O     0.76606   0.74484   0.16137   0.00000  Uiso   1.00
O650   O     0.70281   0.75369   0.24691   0.00000  Uiso   1.00
O651   O     0.79489   0.91840   0.31708   0.00000  Uiso   1.00
O652   O     0.83321   0.84762   0.35690   0.00000  Uiso   1.00
O653   O     0.90066   0.92052   0.33924   0.00000  Uiso   1.00
O654   O     0.72488   0.90368   0.24501   0.00000  Uiso   1.00
O655   O     0.94178   0.76298   0.25498   0.00000  Uiso   1.00
O656   O     0.96995   0.84063   0.32247   0.00000  Uiso   1.00
O657   O     0.69672   0.82603   0.17753   0.00000  Uiso   1.00
O658   O     0.73098   0.83134   0.31439   0.00000  Uiso   1.00
O659   O     0.93569   0.83533   0.18561   0.00000  Uiso   1.00
O660   O     0.88087   0.90884   0.14355   0.00000  Uiso   1.00
S661   S     0.84410   0.93174   0.10640   0.00000  Uiso   1.00
S662   S     0.82929   0.74227   0.39642   0.00000  Uiso   1.00
S663   S     0.82330   0.78399   0.18005   0.00000  Uiso   1.00
S664   S     0.84255   0.88330   0.31935   0.00000  Uiso   1.00
Zn665  Zn    0.93700   0.83954   0.25539   0.00000  Uiso   1.00
Zn666  Zn    0.72967   0.82713   0.24461   0.00000  Uiso   1.00
C667   C     0.01452   0.26446   0.74932   0.00000  Uiso   1.00
C668   C     0.31222   0.16265   0.65885   0.00000  Uiso   1.00
C669   C     0.03347   0.18915   0.89355   0.00000  Uiso   1.00
C670   C     0.29942   0.14436   0.60674   0.00000  Uiso   1.00
C671   C     0.06547   0.26618   0.94901   0.00000  Uiso   1.00
C672   C     0.26325   0.06718   0.55366   0.00000  Uiso   1.00
C673   C     0.03164   0.24245   0.90826   0.00000  Uiso   1.00
C674   C     0.29957   0.09076   0.59272   0.00000  Uiso   1.00
C675   C     0.06495   0.15914   0.92256   0.00000  Uiso   1.00
C676   C     0.26698   0.17463   0.57866   0.00000  Uiso   1.00
C677   C     0.10660   0.18300   0.95787   0.00000  Uiso   1.00
C678   C     0.31945   0.06891   0.75144   0.00000  Uiso   1.00
C679   C     0.22336   0.15114   0.54525   0.00000  Uiso   1.00
C680   C     0.10421   0.23707   0.97287   0.00000  Uiso   1.00
C681   C     0.22396   0.09669   0.53095   0.00000  Uiso   1.00
C682   C     0.14877   0.15469   0.97981   0.00000  Uiso   1.00
C683   C     0.18089   0.17987   0.52411   0.00000  Uiso   1.00
C684   C     0.11655   0.00089   0.74411   0.00000  Uiso   1.00
C685   C     0.30751   0.02344   0.84418   0.00000  Uiso   1.00
C686   C     0.16978   0.23283   0.54337   0.00000  Uiso   1.00
C687   C     0.15923   0.10176   0.96060   0.00000  Uiso   1.00
C688   C     0.13706   0.26123   0.51378   0.00000  Uiso   1.00
C689   C     0.18916   0.07249   0.99126   0.00000  Uiso   1.00
C690   C     0.02161   0.31769   0.74417   0.00000  Uiso   1.00
C691   C     0.31627   0.01683   0.76150   0.00000  Uiso   1.00
C692   C     0.02112   0.17086   0.84123   0.00000  Uiso   1.00
H693   H     0.13125   0.30193   0.52640   0.00000  Uiso   1.00
H694   H     0.12516   0.33170   0.89388   0.00000  Uiso   1.00
H695   H     0.13811   0.29785   0.73365   0.00000  Uiso   1.00
H696   H     0.11368   0.00818   0.78509   0.00000  Uiso   1.00
H697   H     0.14376   0.03295   0.73500   0.00000  Uiso   1.00
H698   H     0.31199   0.06656   0.84998   0.00000  Uiso   1.00
H699   H     0.01624   0.00749   0.84967   0.00000  Uiso   1.00
H700   H     0.28156   0.01174   0.87324   0.00000  Uiso   1.00
H701   H     0.10495   0.06319   0.62677   0.00000  Uiso   1.00
H702   H     0.23379   0.25973   0.87590   0.00000  Uiso   1.00
H703   H     0.19371   0.03153   0.97920   0.00000  Uiso   1.00
H704   H     0.27471   0.21623   0.58479   0.00000  Uiso   1.00
H705   H     0.05748   0.11755   0.91648   0.00000  Uiso   1.00
H706   H     0.32439   0.06673   0.61440   0.00000  Uiso   1.00
H707   H     0.00690   0.26600   0.88628   0.00000  Uiso   1.00
H708   H     0.06328   0.30761   0.96034   0.00000  Uiso   1.00
H709   H     0.26426   0.02561   0.54259   0.00000  Uiso   1.00
H710   H     0.09477   0.29522   0.61287   0.00000  Uiso   1.00
N711   N     0.14695   0.15216   0.73739   0.00000  Uiso   1.00
N712   N     0.18638   0.18117   0.76260   0.00000  Uiso   1.00
O713   O     0.29719   0.24631   0.75309   0.00000  Uiso   1.00
O714   O     0.19883   0.32019   0.60633   0.00000  Uiso   1.00
O715   O     0.11280   0.26630   0.62693   0.00000  Uiso   1.00
O716   O     0.11690   0.08773   0.85996   0.00000  Uiso   1.00
O717   O     0.21724   0.09594   0.88091   0.00000  Uiso   1.00
O718   O     0.16434   0.01057   0.89106   0.00000  Uiso   1.00
O719   O     0.06416   0.33288   0.71614   0.00000  Uiso   1.00
O720   O     0.28094   0.00435   0.79678   0.00000  Uiso   1.00
O721   O     0.16222   0.15353   0.64230   0.00000  Uiso   1.00
O722   O     0.20592   0.08382   0.68101   0.00000  Uiso   1.00
O723   O     0.09939   0.07818   0.66137   0.00000  Uiso   1.00
O724   O     0.03614   0.08702   0.74691   0.00000  Uiso   1.00
O725   O     0.12823   0.25173   0.81708   0.00000  Uiso   1.00
O726   O     0.16654   0.18096   0.85690   0.00000  Uiso   1.00
O727   O     0.23400   0.25386   0.83924   0.00000  Uiso   1.00
O728   O     0.05822   0.23702   0.74501   0.00000  Uiso   1.00
O729   O     0.27512   0.09632   0.75498   0.00000  Uiso   1.00
O730   O     0.30328   0.17397   0.82247   0.00000  Uiso   1.00
O731   O     0.03005   0.15937   0.67753   0.00000  Uiso   1.00
O732   O     0.06431   0.16467   0.81439   0.00000  Uiso   1.00
O733   O     0.26902   0.16866   0.68561   0.00000  Uiso   1.00
O734   O     0.21421   0.24217   0.64355   0.00000  Uiso   1.00
S735   S     0.17743   0.26507   0.60640   0.00000  Uiso   1.00
S736   S     0.16262   0.07561   0.89642   0.00000  Uiso   1.00
S737   S     0.15663   0.11732   0.68005   0.00000  Uiso   1.00
S738   S     0.17588   0.21664   0.81935   0.00000  Uiso   1.00
Zn739  Zn    0.27033   0.17287   0.75539   0.00000  Uiso   1.00
Zn740  Zn    0.06300   0.16046   0.74461   0.00000  Uiso   1.00
C741   C     0.34786   0.26446   0.74932   0.00000  Uiso   1.00
C742   C     0.64555   0.16265   0.65885   0.00000  Uiso   1.00
C743   C     0.36681   0.18915   0.89355   0.00000  Uiso   1.00
C744   C     0.63275   0.14436   0.60674   0.00000  Uiso   1.00
C745   C     0.39881   0.26618   0.94901   0.00000  Uiso   1.00
C746   C     0.59658   0.06718   0.55366   0.00000  Uiso   1.00
C747   C     0.36497   0.24245   0.90826   0.00000  Uiso   1.00
C748   C     0.63291   0.09076   0.59272   0.00000  Uiso   1.00
C749   C     0.39829   0.15914   0.92256   0.00000  Uiso   1.00
C750   C     0.60031   0.17463   0.57866   0.00000  Uiso   1.00
C751   C     0.43993   0.18300   0.95787   0.00000  Uiso   1.00
C752   C     0.65278   0.06891   0.75144   0.00000  Uiso   1.00
C753   C     0.55669   0.15114   0.54525   0.00000  Uiso   1.00
C754   C     0.43754   0.23707   0.97287   0.00000  Uiso   1.00
C755   C     0.55729   0.09669   0.53095   0.00000  Uiso   1.00
C756   C     0.48211   0.15469   0.97981   0.00000  Uiso   1.00
C757   C     0.51422   0.17987   0.52411   0.00000  Uiso   1.00
C758   C     0.44989   0.00089   0.74411   0.00000  Uiso   1.00
C759   C     0.64085   0.02344   0.84418   0.00000  Uiso   1.00
C760   C     0.50311   0.23283   0.54337   0.00000  Uiso   1.00
C761   C     0.49256   0.10176   0.96060   0.00000  Uiso   1.00
C762   C     0.47039   0.26123   0.51378   0.00000  Uiso   1.00
C763   C     0.52249   0.07249   0.99126   0.00000  Uiso   1.00
C764   C     0.35494   0.31769   0.74417   0.00000  Uiso   1.00
C765   C     0.64961   0.01683   0.76150   0.00000  Uiso   1.00
C766   C     0.35445   0.17086   0.84123   0.00000  Uiso   1.00
H767   H     0.46458   0.30193   0.52640   0.00000  Uiso   1.00
H768   H     0.45849   0.33170   0.89388   0.00000  Uiso   1.00
H769   H     0.47144   0.29785   0.73365   0.00000  Uiso   1.00
H770   H     0.44701   0.00818   0.78509   0.00000  Uiso   1.00
H771   H     0.47709   0.03295   0.73500   0.00000  Uiso   1.00
H772   H     0.64532   0.06656   0.84998   0.00000  Uiso   1.00
H773   H     0.34958   0.00749   0.84967   0.00000  Uiso   1.00
H774   H     0.61489   0.01174   0.87324   0.00000  Uiso   1.00
H775   H     0.43829   0.06319   0.62677   0.00000  Uiso   1.00
H776   H     0.56712   0.25973   0.87590   0.00000  Uiso   1.00
H777   H     0.52704   0.03153   0.97920   0.00000  Uiso   1.00
H778   H     0.60805   0.21623   0.58479   0.00000  Uiso   1.00
H779   H     0.39082   0.11755   0.91648   0.00000  Uiso   1.00
H780   H     0.65773   0.06673   0.61440   0.00000  Uiso   1.00
H781   H     0.34023   0.26600   0.88628   0.00000  Uiso   1.00
H782   H     0.39661   0.30761   0.96034   0.00000  Uiso   1.00
H783   H     0.59759   0.02561   0.54259   0.00000  Uiso   1.00
H784   H     0.42810   0.29522   0.61287   0.00000  Uiso   1.00
N785   N     0.48029   0.15216   0.73739   0.00000  Uiso   1.00
N786   N     0.51971   0.18117   0.76260   0.00000  Uiso   1.00
O787   O     0.63052   0.24631   0.75309   0.00000  Uiso   1.00
O788   O     0.53216   0.32019   0.60633   0.00000  Uiso   1.00
O789   O     0.44613   0.26630   0.62693   0.00000  Uiso   1.00
O790   O     0.45023   0.08773   0.85996   0.00000  Uiso   1.00
O791   O     0.55057   0.09594   0.88091   0.00000  Uiso   1.00
O792   O     0.49767   0.01057   0.89106   0.00000  Uiso   1.00
O793   O     0.39749   0.33288   0.71614   0.00000  Uiso   1.00
O794   O     0.61427   0.00435   0.79678   0.00000  Uiso   1.00
O795   O     0.49556   0.15353   0.64230   0.00000  Uiso   1.00
O796   O     0.53925   0.08382   0.68101   0.00000  Uiso   1.00
O797   O     0.43272   0.07818   0.66137   0.00000  Uiso   1.00
O798   O     0.36948   0.08702   0.74691   0.00000  Uiso   1.00
O799   O     0.46156   0.25173   0.81708   0.00000  Uiso   1.00
O800   O     0.49988   0.18096   0.85690   0.00000  Uiso   1.00
O801   O     0.56733   0.25386   0.83924   0.00000  Uiso   1.00
O802   O     0.39155   0.23702   0.74501   0.00000  Uiso   1.00
O803   O     0.60845   0.09632   0.75498   0.00000  Uiso   1.00
O804   O     0.63662   0.17397   0.82247   0.00000  Uiso   1.00
O805   O     0.36338   0.15937   0.67753   0.00000  Uiso   1.00
O806   O     0.39764   0.16467   0.81439   0.00000  Uiso   1.00
O807   O     0.60236   0.16866   0.68561   0.00000  Uiso   1.00
O808   O     0.54754   0.24217   0.64355   0.00000  Uiso   1.00
S809   S     0.51076   0.26507   0.60640   0.00000  Uiso   1.00
S810   S     0.49595   0.07561   0.89642   0.00000  Uiso   1.00
S811   S     0.48997   0.11732   0.68005   0.00000  Uiso   1.00
S812   S     0.50921   0.21664   0.81935   0.00000  Uiso   1.00
Zn813  Zn    0.60366   0.17287   0.75539   0.00000  Uiso   1.00
Zn814  Zn    0.39634   0.16046   0.74461   0.00000  Uiso   1.00
C815   C     0.68119   0.26446   0.74932   0.00000  Uiso   1.00
C816   C     0.97889   0.16265   0.65885   0.00000  Uiso   1.00
C817   C     0.70014   0.18915   0.89355   0.00000  Uiso   1.00
C818   C     0.96608   0.14436   0.60674   0.00000  Uiso   1.00
C819   C     0.73214   0.26618   0.94901   0.00000  Uiso   1.00
C820   C     0.92991   0.06718   0.55366   0.00000  Uiso   1.00
C821   C     0.69831   0.24245   0.90826   0.00000  Uiso   1.00
C822   C     0.96624   0.09076   0.59272   0.00000  Uiso   1.00
C823   C     0.73162   0.15914   0.92256   0.00000  Uiso   1.00
C824   C     0.93364   0.17463   0.57866   0.00000  Uiso   1.00
C825   C     0.77327   0.18300   0.95787   0.00000  Uiso   1.00
C826   C     0.98611   0.06891   0.75144   0.00000  Uiso   1.00
C827   C     0.89003   0.15114   0.54525   0.00000  Uiso   1.00
C828   C     0.77088   0.23707   0.97287   0.00000  Uiso   1.00
C829   C     0.89063   0.09669   0.53095   0.00000  Uiso   1.00
C830   C     0.81544   0.15469   0.97981   0.00000  Uiso   1.00
C831   C     0.84755   0.17987   0.52411   0.00000  Uiso   1.00
C832   C     0.78322   0.00089   0.74411   0.00000  Uiso   1.00
C833   C     0.97418   0.02344   0.84418   0.00000  Uiso   1.00
C834   C     0.83644   0.23283   0.54337   0.00000  Uiso   1.00
C835   C     0.82590   0.10176   0.96060   0.00000  Uiso   1.00
C836   C     0.80372   0.26123   0.51378   0.00000  Uiso   1.00
C837   C     0.85582   0.07249   0.99126   0.00000  Uiso   1.00
C838   C     0.68827   0.31769   0.74417   0.00000  Uiso   1.00
C839   C     0.98294   0.01683   0.76150   0.00000  Uiso   1.00
C840   C     0.68779   0.17086   0.84123   0.00000  Uiso   1.00
H841   H     0.79791   0.30193   0.52640   0.00000  Uiso   1.00
H842   H     0.79183   0.33170   0.89388   0.00000  Uiso   1.00
H843   H     0.80478   0.29785   0.73365   0.00000  Uiso   1.00
H844   H     0.78035   0.00818   0.78509   0.00000  Uiso   1.00
H845   H     0.81042   0.03295   0.73500   0.00000  Uiso   1.00
H846   H     0.97866   0.06656   0.84998   0.00000  Uiso   1.00
H847   H     0.68291   0.00749   0.84967   0.00000  Uiso   1.00
H848   H     0.94822   0.01174   0.87324   0.00000  Uiso   1.00
H849   H     0.77162   0.06319   0.62677   0.00000  Uiso   1.00
H850   H     0.90045   0.25973   0.87590   0.00000  Uiso   1.00
H851   H     0.86038   0.03153   0.97920   0.00000  Uiso   1.00
H852   H     0.94138   0.21623   0.58479   0.00000  Uiso   1.00
H853   H     0.72415   0.11755   0.91648   0.00000  Uiso   1.00
H854   H     0.99106   0.06673   0.61440   0.00000  Uiso   1.00
H855   H     0.67357   0.26600   0.88628   0.00000  Uiso   1.00
H856   H     0.72995   0.30761   0.96034   0.00000  Uiso   1.00
H857   H     0.93092   0.02561   0.54259   0.00000  Uiso   1.00
H858   H     0.76143   0.29522   0.61287   0.00000  Uiso   1.00
N859   N     0.81362   0.15216   0.73739   0.00000  Uiso   1.00
N860   N     0.85305   0.18117   0.76260   0.00000  Uiso   1.00
O861   O     0.96386   0.24631   0.75309   0.00000  Uiso   1.00
O862   O     0.86549   0.32019   0.60633   0.00000  Uiso   1.00
O863   O     0.77947   0.26630   0.62693   0.00000  Uiso   1.00
O864   O     0.78356   0.08773   0.85996   0.00000  Uiso   1.00
O865   O     0.88391   0.09594   0.88091   0.00000  Uiso   1.00
O866   O     0.83100   0.01057   0.89106   0.00000  Uiso   1.00
O867   O     0.73082   0.33288   0.71614   0.00000  Uiso   1.00
O868   O     0.94760   0.00435   0.79678   0.00000  Uiso   1.00
O869   O     0.82889   0.15353   0.64230   0.00000  Uiso   1.00
O870   O     0.87258   0.08382   0.68101   0.00000  Uiso   1.00
O871   O     0.76606   0.07818   0.66137   0.00000  Uiso   1.00
O872   O     0.70281   0.08702   0.74691   0.00000  Uiso   1.00
O873   O     0.79489   0.25173   0.81708   0.00000  Uiso   1.00
O874   O     0.83321   0.18096   0.85690   0.00000  Uiso   1.00
O875   O     0.90066   0.25386   0.83924   0.00000  Uiso   1.00
O876   O     0.72488   0.23702   0.74501   0.00000  Uiso   1.00
O877   O     0.94178   0.09632   0.75498   0.00000  Uiso   1.00
O878   O     0.96995   0.17397   0.82247   0.00000  Uiso   1.00
O879   O     0.69672   0.15937   0.67753   0.00000  Uiso   1.00
O880   O     0.73098   0.16467   0.81439   0.00000  Uiso   1.00
O881   O     0.93569   0.16866   0.68561   0.00000  Uiso   1.00
O882   O     0.88087   0.24217   0.64355   0.00000  Uiso   1.00
S883   S     0.84410   0.26507   0.60640   0.00000  Uiso   1.00
S884   S     0.82929   0.07561   0.89642   0.00000  Uiso   1.00
S885   S     0.82330   0.11732   0.68005   0.00000  Uiso   1.00
S886   S     0.84255   0.21664   0.81935   0.00000  Uiso   1.00
Zn887  Zn    0.93700   0.17287   0.75539   0.00000  Uiso   1.00
Zn888  Zn    0.72967   0.16046   0.74461   0.00000  Uiso   1.00
C889   C     0.01452   0.59780   0.74932   0.00000  Uiso   1.00
C890   C     0.31222   0.49598   0.65885   0.00000  Uiso   1.00
C891   C     0.03347   0.52249   0.89355   0.00000  Uiso   1.00
C892   C     0.29942   0.47770   0.60674   0.00000  Uiso   1.00
C893   C     0.06547   0.59951   0.94901   0.00000  Uiso   1.00
C894   C     0.26325   0.40052   0.55366   0.00000  Uiso   1.00
C895   C     0.03164   0.57579   0.90826   0.00000  Uiso   1.00
C896   C     0.29957   0.42409   0.59272   0.00000  Uiso   1.00
C897   C     0.06495   0.49247   0.92256   0.00000  Uiso   1.00
C898   C     0.26698   0.50796   0.57866   0.00000  Uiso   1.00
C899   C     0.10660   0.51634   0.95787   0.00000  Uiso   1.00
C900   C     0.31945   0.40225   0.75144   0.00000  Uiso   1.00
C901   C     0.22336   0.48448   0.54525   0.00000  Uiso   1.00
C902   C     0.10421   0.57040   0.97287   0.00000  Uiso   1.00
C903   C     0.22396   0.43002   0.53095   0.00000  Uiso   1.00
C904   C     0.14877   0.48802   0.97981   0.00000  Uiso   1.00
C905   C     0.18089   0.51320   0.52411   0.00000  Uiso   1.00
C906   C     0.11655   0.33423   0.74411   0.00000  Uiso   1.00
C907   C     0.30751   0.35677   0.84418   0.00000  Uiso   1.00
C908   C     0.16978   0.56616   0.54337   0.00000  Uiso   1.00
C909   C     0.15923   0.43509   0.96060   0.00000  Uiso   1.00
C910   C     0.13706   0.59456   0.51378   0.00000  Uiso   1.00
C911   C     0.18916   0.40583   0.99126   0.00000  Uiso   1.00
C912   C     0.02161   0.65102   0.74417   0.00000  Uiso   1.00
C913   C     0.31627   0.35016   0.76150   0.00000  Uiso   1.00
C914   C     0.02112   0.50420   0.84123   0.00000  Uiso   1.00
H915   H     0.13125   0.63527   0.52640   0.00000  Uiso   1.00
H916   H     0.12516   0.66504   0.89388   0.00000  Uiso   1.00
H917   H     0.13811   0.63118   0.73365   0.00000  Uiso   1.00
H918   H     0.11368   0.34151   0.78509   0.00000  Uiso   1.00
H919   H     0.14376   0.36629   0.73500   0.00000  Uiso   1.00
H920   H     0.31199   0.39989   0.84998   0.00000  Uiso   1.00
H921   H     0.01624   0.34082   0.84967   0.00000  Uiso   1.00
H922   H     0.28156   0.34507   0.87324   0.00000  Uiso   1.00
H923   H     0.10495   0.39653   0.62677   0.00000  Uiso   1.00
H924   H     0.23379   0.59306   0.87590   0.00000  Uiso   1.00
H925   H     0.19371   0.36487   0.97920   0.00000  Uiso   1.00
H926   H     0.27471   0.54956   0.58479   0.00000  Uiso   1.00
H927   H     0.05748   0.45088   0.91648   0.00000  Uiso   1.00
H928   H     0.32439   0.40006   0.61440   0.00000  Uiso   1.00
H929   H     0.00690   0.59933   0.88628   0.00000  Uiso   1.00
H930   H     0.06328   0.64094   0.96034   0.00000  Uiso   1.00
H931   H     0.26426   0.35895   0.54259   0.00000  Uiso   1.00
H932   H     0.09477   0.62856   0.61287   0.00000  Uiso   1.00
N933   N     0.14695   0.48550   0.73739   0.00000  Uiso   1.00
N934   N     0.18638   0.51450   0.76260   0.00000  Uiso   1.00
O935   O     0.29719   0.57964   0.75309   0.00000  Uiso   1.00
O936   O     0.19883   0.65352   0.60633   0.00000  Uiso   1.00
O937   O     0.11280   0.59963   0.62693   0.00000  Uiso   1.00
O938   O     0.11690   0.42106   0.85996   0.00000  Uiso   1.00
O939   O     0.21724   0.42927   0.88091   0.00000  Uiso   1.00
O940   O     0.16434   0.34390   0.89106   0.00000  Uiso   1.00
O941   O     0.06416   0.66621   0.71614   0.00000  Uiso   1.00
O942   O     0.28094   0.33769   0.79678   0.00000  Uiso   1.00
O943   O     0.16222   0.48686   0.64230   0.00000  Uiso   1.00
O944   O     0.20592   0.41716   0.68101   0.00000  Uiso   1.00
O945   O     0.09939   0.41151   0.66137   0.00000  Uiso   1.00
O946   O     0.03614   0.42036   0.74691   0.00000  Uiso   1.00
O947   O     0.12823   0.58506   0.81708   0.00000  Uiso   1.00
O948   O     0.16654   0.51429   0.85690   0.00000  Uiso   1.00
O949   O     0.23400   0.58719   0.83924   0.00000  Uiso   1.00
O950   O     0.05822   0.57035   0.74501   0.00000  Uiso   1.00
O951   O     0.27512   0.42965   0.75498   0.00000  Uiso   1.00
O952   O     0.30328   0.50730   0.82247   0.00000  Uiso   1.00
O953   O     0.03005   0.49270   0.67753   0.00000  Uiso   1.00
O954   O     0.06431   0.49801   0.81439   0.00000  Uiso   1.00
O955   O     0.26902   0.50199   0.68561   0.00000  Uiso   1.00
O956   O     0.21421   0.57551   0.64355   0.00000  Uiso   1.00
S957   S     0.17743   0.59840   0.60640   0.00000  Uiso   1.00
S958   S     0.16262   0.40894   0.89642   0.00000  Uiso   1.00
S959   S     0.15663   0.45065   0.68005   0.00000  Uiso   1.00
S960   S     0.17588   0.54997   0.81935   0.00000  Uiso   1.00
Zn961  Zn    0.27033   0.50621   0.75539   0.00000  Uiso   1.00
Zn962  Zn    0.06300   0.49379   0.74461   0.00000  Uiso   1.00
C963   C     0.34786   0.59780   0.74932   0.00000  Uiso   1.00
C964   C     0.64555   0.49598   0.65885   0.00000  Uiso   1.00
C965   C     0.36681   0.52249   0.89355   0.00000  Uiso   1.00
C966   C     0.63275   0.47770   0.60674   0.00000  Uiso   1.00
C967   C     0.39881   0.59951   0.94901   0.00000  Uiso   1.00
C968   C     0.59658   0.40052   0.55366   0.00000  Uiso   1.00
C969   C     0.36497   0.57579   0.90826   0.00000  Uiso   1.00
C970   C     0.63291   0.42409   0.59272   0.00000  Uiso   1.00
C971   C     0.39829   0.49247   0.92256   0.00000  Uiso   1.00
C972   C     0.60031   0.50796   0.57866   0.00000  Uiso   1.00
C973   C     0.43993   0.51634   0.95787   0.00000  Uiso   1.00
C974   C     0.65278   0.40225   0.75144   0.00000  Uiso   1.00
C975   C     0.55669   0.48448   0.54525   0.00000  Uiso   1.00
C976   C     0.43754   0.57040   0.97287   0.00000  Uiso   1.00
C977   C     0.55729   0.43002   0.53095   0.00000  Uiso   1.00
C978   C     0.48211   0.48802   0.97981   0.00000  Uiso   1.00
C979   C     0.51422   0.51320   0.52411   0.00000  Uiso   1.00
C980   C     0.44989   0.33423   0.74411   0.00000  Uiso   1.00
C981   C     0.64085   0.35677   0.84418   0.00000  Uiso   1.00
C982   C     0.50311   0.56616   0.54337   0.00000  Uiso   1.00
C983   C     0.49256   0.43509   0.96060   0.00000  Uiso   1.00
C984   C     0.47039   0.59456   0.51378   0.00000  Uiso   1.00
C985   C     0.52249   0.40583   0.99126   0.00000  Uiso   1.00
C986   C     0.35494   0.65102   0.74417   0.00000  Uiso   1.00
C987   C     0.64961   0.35016   0.76150   0.00000  Uiso   1.00
C988   C     0.35445   0.50420   0.84123   0.00000  Uiso   1.00
H989   H     0.46458   0.63527   0.52640   0.00000  Uiso   1.00
H990   H     0.45849   0.66504   0.89388   0.00000  Uiso   1.00
H991   H     0.47144   0.63118   0.73365   0.00000  Uiso   1.00
H992   H     0.44701   0.34151   0.78509   0.00000  Uiso   1.00
H993   H     0.47709   0.36629   0.73500   0.00000  Uiso   1.00
H994   H     0.64532   0.39989   0.84998   0.00000  Uiso   1.00
H995   H     0.34958   0.34082   0.84967   0.00000  Uiso   1.00
H996   H     0.61489   0.34507   0.87324   0.00000  Uiso   1.00
H997   H     0.43829   0.39653   0.62677   0.00000  Uiso   1.00
H998   H     0.56712   0.59306   0.87590   0.00000  Uiso   1.00
H999   H     0.52704   0.36487   0.97920   0.00000  Uiso   1.00
H1000  H     0.60805   0.54956   0.58479   0.00000  Uiso   1.00
H1001  H     0.39082   0.45088   0.91648   0.00000  Uiso   1.00
H1002  H     0.65773   0.40006   0.61440   0.00000  Uiso   1.00
H1003  H     0.34023   0.59933   0.88628   0.00000  Uiso   1.00
H1004  H     0.39661   0.64094   0.96034   0.00000  Uiso   1.00
H1005  H     0.59759   0.35895   0.54259   0.00000  Uiso   1.00
H1006  H     0.42810   0.62856   0.61287   0.00000  Uiso   1.00
N1007  N     0.48029   0.48550   0.73739   0.00000  Uiso   1.00
N1008  N     0.51971   0.51450   0.76260   0.00000  Uiso   1.00
O1009  O     0.63052   0.57964   0.75309   0.00000  Uiso   1.00
O1010  O     0.53216   0.65352   0.60633   0.00000  Uiso   1.00
O1011  O     0.44613   0.59963   0.62693   0.00000  Uiso   1.00
O1012  O     0.45023   0.42106   0.85996   0.00000  Uiso   1.00
O1013  O     0.55057   0.42927   0.88091   0.00000  Uiso   1.00
O1014  O     0.49767   0.34390   0.89106   0.00000  Uiso   1.00
O1015  O     0.39749   0.66621   0.71614   0.00000  Uiso   1.00
O1016  O     0.61427   0.33769   0.79678   0.00000  Uiso   1.00
O1017  O     0.49556   0.48686   0.64230   0.00000  Uiso   1.00
O1018  O     0.53925   0.41716   0.68101   0.00000  Uiso   1.00
O1019  O     0.43272   0.41151   0.66137   0.00000  Uiso   1.00
O1020  O     0.36948   0.42036   0.74691   0.00000  Uiso   1.00
O1021  O     0.46156   0.58506   0.81708   0.00000  Uiso   1.00
O1022  O     0.49988   0.51429   0.85690   0.00000  Uiso   1.00
O1023  O     0.56733   0.58719   0.83924   0.00000  Uiso   1.00
O1024  O     0.39155   0.57035   0.74501   0.00000  Uiso   1.00
O1025  O     0.60845   0.42965   0.75498   0.00000  Uiso   1.00
O1026  O     0.63662   0.50730   0.82247   0.00000  Uiso   1.00
O1027  O     0.36338   0.49270   0.67753   0.00000  Uiso   1.00
O1028  O     0.39764   0.49801   0.81439   0.00000  Uiso   1.00
O1029  O     0.60236   0.50199   0.68561   0.00000  Uiso   1.00
O1030  O     0.54754   0.57551   0.64355   0.00000  Uiso   1.00
S1031  S     0.51076   0.59840   0.60640   0.00000  Uiso   1.00
S1032  S     0.49595   0.40894   0.89642   0.00000  Uiso   1.00
S1033  S     0.48997   0.45065   0.68005   0.00000  Uiso   1.00
S1034  S     0.50921   0.54997   0.81935   0.00000  Uiso   1.00
Zn1035 Zn    0.60366   0.50621   0.75539   0.00000  Uiso   1.00
Zn1036 Zn    0.39634   0.49379   0.74461   0.00000  Uiso   1.00
C1037  C     0.68119   0.59780   0.74932   0.00000  Uiso   1.00
C1038  C     0.97889   0.49598   0.65885   0.00000  Uiso   1.00
C1039  C     0.70014   0.52249   0.89355   0.00000  Uiso   1.00
C1040  C     0.96608   0.47770   0.60674   0.00000  Uiso   1.00
C1041  C     0.73214   0.59951   0.94901   0.00000  Uiso   1.00
C1042  C     0.92991   0.40052   0.55366   0.00000  Uiso   1.00
C1043  C     0.69831   0.57579   0.90826   0.00000  Uiso   1.00
C1044  C     0.96624   0.42409   0.59272   0.00000  Uiso   1.00
C1045  C     0.73162   0.49247   0.92256   0.00000  Uiso   1.00
C1046  C     0.93364   0.50796   0.57866   0.00000  Uiso   1.00
C1047  C     0.77327   0.51634   0.95787   0.00000  Uiso   1.00
C1048  C     0.98611   0.40225   0.75144   0.00000  Uiso   1.00
C1049  C     0.89003   0.48448   0.54525   0.00000  Uiso   1.00
C1050  C     0.77088   0.57040   0.97287   0.00000  Uiso   1.00
C1051  C     0.89063   0.43002   0.53095   0.00000  Uiso   1.00
C1052  C     0.81544   0.48802   0.97981   0.00000  Uiso   1.00
C1053  C     0.84755   0.51320   0.52411   0.00000  Uiso   1.00
C1054  C     0.78322   0.33423   0.74411   0.00000  Uiso   1.00
C1055  C     0.97418   0.35677   0.84418   0.00000  Uiso   1.00
C1056  C     0.83644   0.56616   0.54337   0.00000  Uiso   1.00
C1057  C     0.82590   0.43509   0.96060   0.00000  Uiso   1.00
C1058  C     0.80372   0.59456   0.51378   0.00000  Uiso   1.00
C1059  C     0.85582   0.40583   0.99126   0.00000  Uiso   1.00
C1060  C     0.68827   0.65102   0.74417   0.00000  Uiso   1.00
C1061  C     0.98294   0.35016   0.76150   0.00000  Uiso   1.00
C1062  C     0.68779   0.50420   0.84123   0.00000  Uiso   1.00
H1063  H     0.79791   0.63527   0.52640   0.00000  Uiso   1.00
H1064  H     0.79183   0.66504   0.89388   0.00000  Uiso   1.00
H1065  H     0.80478   0.63118   0.73365   0.00000  Uiso   1.00
H1066  H     0.78035   0.34151   0.78509   0.00000  Uiso   1.00
H1067  H     0.81042   0.36629   0.73500   0.00000  Uiso   1.00
H1068  H     0.97866   0.39989   0.84998   0.00000  Uiso   1.00
H1069  H     0.68291   0.34082   0.84967   0.00000  Uiso   1.00
H1070  H     0.94822   0.34507   0.87324   0.00000  Uiso   1.00
H1071  H     0.77162   0.39653   0.62677   0.00000  Uiso   1.00
H1072  H     0.90045   0.59306   0.87590   0.00000  Uiso   1.00
H1073  H     0.86038   0.36487   0.97920   0.00000  Uiso   1.00
H1074  H     0.94138   0.54956   0.58479   0.00000  Uiso   1.00
H1075  H     0.72415   0.45088   0.91648   0.00000  Uiso   1.00
H1076  H     0.99106   0.40006   0.61440   0.00000  Uiso   1.00
H1077  H     0.67357   0.59933   0.88628   0.00000  Uiso   1.00
H1078  H     0.72995   0.64094   0.96034   0.00000  Uiso   1.00
H1079  H     0.93092   0.35895   0.54259   0.00000  Uiso   1.00
H1080  H     0.76143   0.62856   0.61287   0.00000  Uiso   1.00
N1081  N     0.81362   0.48550   0.73739   0.00000  Uiso   1.00
N1082  N     0.85305   0.51450   0.76260   0.00000  Uiso   1.00
O1083  O     0.96386   0.57964   0.75309   0.00000  Uiso   1.00
O1084  O     0.86549   0.65352   0.60633   0.00000  Uiso   1.00
O1085  O     0.77947   0.59963   0.62693   0.00000  Uiso   1.00
O1086  O     0.78356   0.42106   0.85996   0.00000  Uiso   1.00
O1087  O     0.88391   0.42927   0.88091   0.00000  Uiso   1.00
O1088  O     0.83100   0.34390   0.89106   0.00000  Uiso   1.00
O1089  O     0.73082   0.66621   0.71614   0.00000  Uiso   1.00
O1090  O     0.94760   0.33769   0.79678   0.00000  Uiso   1.00
O1091  O     0.82889   0.48686   0.64230   0.00000  Uiso   1.00
O1092  O     0.87258   0.41716   0.68101   0.00000  Uiso   1.00
O1093  O     0.76606   0.41151   0.66137   0.00000  Uiso   1.00
O1094  O     0.70281   0.42036   0.74691   0.00000  Uiso   1.00
O1095  O     0.79489   0.58506   0.81708   0.00000  Uiso   1.00
O1096  O     0.83321   0.51429   0.85690   0.00000  Uiso   1.00
O1097  O     0.90066   0.58719   0.83924   0.00000  Uiso   1.00
O1098  O     0.72488   0.57035   0.74501   0.00000  Uiso   1.00
O1099  O     0.94178   0.42965   0.75498   0.00000  Uiso   1.00
O1100  O     0.96995   0.50730   0.82247   0.00000  Uiso   1.00
O1101  O     0.69672   0.49270   0.67753   0.00000  Uiso   1.00
O1102  O     0.73098   0.49801   0.81439   0.00000  Uiso   1.00
O1103  O     0.93569   0.50199   0.68561   0.00000  Uiso   1.00
O1104  O     0.88087   0.57551   0.64355   0.00000  Uiso   1.00
S1105  S     0.84410   0.59840   0.60640   0.00000  Uiso   1.00
S1106  S     0.82929   0.40894   0.89642   0.00000  Uiso   1.00
S1107  S     0.82330   0.45065   0.68005   0.00000  Uiso   1.00
S1108  S     0.84255   0.54997   0.81935   0.00000  Uiso   1.00
Zn1109 Zn    0.93700   0.50621   0.75539   0.00000  Uiso   1.00
Zn1110 Zn    0.72967   0.49379   0.74461   0.00000  Uiso   1.00
C1111  C     0.01452   0.93113   0.74932   0.00000  Uiso   1.00
C1112  C     0.31222   0.82932   0.65885   0.00000  Uiso   1.00
C1113  C     0.03347   0.85582   0.89355   0.00000  Uiso   1.00
C1114  C     0.29942   0.81103   0.60674   0.00000  Uiso   1.00
C1115  C     0.06547   0.93285   0.94901   0.00000  Uiso   1.00
C1116  C     0.26325   0.73385   0.55366   0.00000  Uiso   1.00
C1117  C     0.03164   0.90912   0.90826   0.00000  Uiso   1.00
C1118  C     0.29957   0.75742   0.59272   0.00000  Uiso   1.00
C1119  C     0.06495   0.82581   0.92256   0.00000  Uiso   1.00
C1120  C     0.26698   0.84130   0.57866   0.00000  Uiso   1.00
C1121  C     0.10660   0.84967   0.95787   0.00000  Uiso   1.00
C1122  C     0.31945   0.73558   0.75144   0.00000  Uiso   1.00
C1123  C     0.22336   0.81781   0.54525   0.00000  Uiso   1.00
C1124  C     0.10421   0.90374   0.97287   0.00000  Uiso   1.00
C1125  C     0.22396   0.76336   0.53095   0.00000  Uiso   1.00
C1126  C     0.14877   0.82136   0.97981   0.00000  Uiso   1.00
C1127  C     0.18089   0.84654   0.52411   0.00000  Uiso   1.00
C1128  C     0.11655   0.66756   0.74411   0.00000  Uiso   1.00
C1129  C     0.30751   0.69011   0.84418   0.00000  Uiso   1.00
C1130  C     0.16978   0.89949   0.54337   0.00000  Uiso   1.00
C1131  C     0.15923   0.76842   0.96060   0.00000  Uiso   1.00
C1132  C     0.13706   0.92789   0.51378   0.00000  Uiso   1.00
C1133  C     0.18916   0.73916   0.99126   0.00000  Uiso   1.00
C1134  C     0.02161   0.98435   0.74417   0.00000  Uiso   1.00
C1135  C     0.31627   0.68350   0.76150   0.00000  Uiso   1.00
C1136  C     0.02112   0.83753   0.84123   0.00000  Uiso   1.00
H1137  H     0.13125   0.96860   0.52640   0.00000  Uiso   1.00
H1138  H     0.12516   0.99837   0.89388   0.00000  Uiso   1.00
H1139  H     0.13811   0.96452   0.73365   0.00000  Uiso   1.00
H1140  H     0.11368   0.67484   0.78509   0.00000  Uiso   1.00
H1141  H     0.14376   0.69962   0.73500   0.00000  Uiso   1.00
H1142  H     0.31199   0.73323   0.84998   0.00000  Uiso   1.00
H1143  H     0.01624   0.67415   0.84967   0.00000  Uiso   1.00
H1144  H     0.28156   0.67841   0.87324   0.00000  Uiso   1.00
H1145  H     0.10495   0.72986   0.62677   0.00000  Uiso   1.00
H1146  H     0.23379   0.92640   0.87590   0.00000  Uiso   1.00
H1147  H     0.19371   0.69820   0.97920   0.00000  Uiso   1.00
H1148  H     0.27471   0.88289   0.58479   0.00000  Uiso   1.00
H1149  H     0.05748   0.78422   0.91648   0.00000  Uiso   1.00
H1150  H     0.32439   0.73339   0.61440   0.00000  Uiso   1.00
H1151  H     0.00690   0.93267   0.88628   0.00000  Uiso   1.00
H1152  H     0.06328   0.97427   0.96034   0.00000  Uiso   1.00
H1153  H     0.26426   0.69228   0.54259   0.00000  Uiso   1.00
H1154  H     0.09477   0.96189   0.61287   0.00000  Uiso   1.00
N1155  N     0.14695   0.81883   0.73739   0.00000  Uiso   1.00
N1156  N     0.18638   0.84784   0.76260   0.00000  Uiso   1.00
O1157  O     0.29719   0.91298   0.75309   0.00000  Uiso   1.00
O1158  O     0.19883   0.98685   0.60633   0.00000  Uiso   1.00
O1159  O     0.11280   0.93297   0.62693   0.00000  Uiso   1.00
O1160  O     0.11690   0.75440   0.85996   0.00000  Uiso   1.00
O1161  O     0.21724   0.76260   0.88091   0.00000  Uiso   1.00
O1162  O     0.16434   0.67723   0.89106   0.00000  Uiso   1.00
O1163  O     0.06416   0.99955   0.71614   0.00000  Uiso   1.00
O1164  O     0.28094   0.67102   0.79678   0.00000  Uiso   1.00
O1165  O     0.16222   0.82020   0.64230   0.00000  Uiso   1.00
O1166  O     0.20592   0.75049   0.68101   0.00000  Uiso   1.00
O1167  O     0.09939   0.74484   0.66137   0.00000  Uiso   1.00
O1168  O     0.03614   0.75369   0.74691   0.00000  Uiso   1.00
O1169  O     0.12823   0.91840   0.81708   0.00000  Uiso   1.00
O1170  O     0.16654   0.84762   0.85690   0.00000  Uiso   1.00
O1171  O     0.23400   0.92052   0.83924   0.00000  Uiso   1.00
O1172  O     0.05822   0.90368   0.74501   0.00000  Uiso   1.00
O1173  O     0.27512   0.76298   0.75498   0.00000  Uiso   1.00
O1174  O     0.30328   0.84063   0.82247   0.00000  Uiso   1.00
O1175  O     0.03005   0.82603   0.67753   0.00000  Uiso   1.00
O1176  O     0.06431   0.83134   0.81439   0.00000  Uiso   1.00
O1177  O     0.26902   0.83533   0.68561   0.00000  Uiso   1.00
O1178  O     0.21421   0.90884   0.64355   0.00000  Uiso   1.00
S1179  S     0.17743   0.93174   0.60640   0.00000  Uiso   1.00
S1180  S     0.16262   0.74227   0.89642   0.00000  Uiso   1.00
S1181  S     0.15663   0.78399   0.68005   0.00000  Uiso   1.00
S1182  S     0.17588   0.88330   0.81935   0.00000  Uiso   1.00
Zn1183 Zn    0.27033   0.83954   0.75539   0.00000  Uiso   1.00
Zn1184 Zn    0.06300   0.82713   0.74461   0.00000  Uiso   1.00
C1185  C     0.34786   0.93113   0.74932   0.00000  Uiso   1.00
C1186  C     0.64555   0.82932   0.65885   0.00000  Uiso   1.00
C1187  C     0.36681   0.85582   0.89355   0.00000  Uiso   1.00
C1188  C     0.63275   0.81103   0.60674   0.00000  Uiso   1.00
C1189  C     0.39881   0.93285   0.94901   0.00000  Uiso   1.00
C1190  C     0.59658   0.73385   0.55366   0.00000  Uiso   1.00
C1191  C     0.36497   0.90912   0.90826   0.00000  Uiso   1.00
C1192  C     0.63291   0.75742   0.59272   0.00000  Uiso   1.00
C1193  C     0.39829   0.82581   0.92256   0.00000  Uiso   1.00
C1194  C     0.60031   0.84130   0.57866   0.00000  Uiso   1.00
C1195  C     0.43993   0.84967   0.95787   0.00000  Uiso   1.00
C1196  C     0.65278   0.73558   0.75144   0.00000  Uiso   1.00
C1197  C     0.55669   0.81781   0.54525   0.00000  Uiso   1.00
C1198  C     0.43754   0.90374   0.97287   0.00000  Uiso   1.00
C1199  C     0.55729   0.76336   0.53095   0.00000  Uiso   1.00
C1200  C     0.48211   0.82136   0.97981   0.00000  Uiso   1.00
C1201  C     0.51422   0.84654   0.52411   0.00000  Uiso   1.00
C1202  C     0.44989   0.66756   0.74411   0.00000  Uiso   1.00
C1203  C     0.64085   0.69011   0.84418   0.00000  Uiso   1.00
C1204  C     0.50311   0.89949   0.54337   0.00000  Uiso   1.00
C1205  C     0.49256   0.76842   0.96060   0.00000  Uiso   1.00
C1206  C     0.47039   0.92789   0.51378   0.00000  Uiso   1.00
C1207  C     0.52249   0.73916   0.99126   0.00000  Uiso   1.00
C1208  C     0.35494   0.98435   0.74417   0.00000  Uiso   1.00
C1209  C     0.64961   0.68350   0.76150   0.00000  Uiso   1.00
C1210  C     0.35445   0.83753   0.84123   0.00000  Uiso   1.00
H1211  H     0.46458   0.96860   0.52640   0.00000  Uiso   1.00
H1212  H     0.45849   0.99837   0.89388   0.00000  Uiso   1.00
H1213  H     0.47144   0.96452   0.73365   0.00000  Uiso   1.00
H1214  H     0.44701   0.67484   0.78509   0.00000  Uiso   1.00
H1215  H     0.47709   0.69962   0.73500   0.00000  Uiso   1.00
H1216  H     0.64532   0.73323   0.84998   0.00000  Uiso   1.00
H1217  H     0.34958   0.67415   0.84967   0.00000  Uiso   1.00
H1218  H     0.61489   0.67841   0.87324   0.00000  Uiso   1.00
H1219  H     0.43829   0.72986   0.62677   0.00000  Uiso   1.00
H1220  H     0.56712   0.92640   0.87590   0.00000  Uiso   1.00
H1221  H     0.52704   0.69820   0.97920   0.00000  Uiso   1.00
H1222  H     0.60805   0.88289   0.58479   0.00000  Uiso   1.00
H1223  H     0.39082   0.78422   0.91648   0.00000  Uiso   1.00
H1224  H     0.65773   0.73339   0.61440   0.00000  Uiso   1.00
H1225  H     0.34023   0.93267   0.88628   0.00000  Uiso   1.00
H1226  H     0.39661   0.97427   0.96034   0.00000  Uiso   1.00
H1227  H     0.59759   0.69228   0.54259   0.00000  Uiso   1.00
H1228  H     0.42810   0.96189   0.61287   0.00000  Uiso   1.00
N1229  N     0.48029   0.81883   0.73739   0.00000  Uiso   1.00
N1230  N     0.51971   0.84784   0.76260   0.00000  Uiso   1.00
O1231  O     0.63052   0.91298   0.75309   0.00000  Uiso   1.00
O1232  O     0.53216   0.98685   0.60633   0.00000  Uiso   1.00
O1233  O     0.44613   0.93297   0.62693   0.00000  Uiso   1.00
O1234  O     0.45023   0.75440   0.85996   0.00000  Uiso   1.00
O1235  O     0.55057   0.76260   0.88091   0.00000  Uiso   1.00
O1236  O     0.49767   0.67723   0.89106   0.00000  Uiso   1.00
O1237  O     0.39749   0.99955   0.71614   0.00000  Uiso   1.00
O1238  O     0.61427   0.67102   0.79678   0.00000  Uiso   1.00
O1239  O     0.49556   0.82020   0.64230   0.00000  Uiso   1.00
O1240  O     0.53925   0.75049   0.68101   0.00000  Uiso   1.00
O1241  O     0.43272   0.74484   0.66137   0.00000  Uiso   1.00
O1242  O     0.36948   0.75369   0.74691   0.00000  Uiso   1.00
O1243  O     0.46156   0.91840   0.81708   0.00000  Uiso   1.00
O1244  O     0.49988   0.84762   0.85690   0.00000  Uiso   1.00
O1245  O     0.56733   0.92052   0.83924   0.00000  Uiso   1.00
O1246  O     0.39155   0.90368   0.74501   0.00000  Uiso   1.00
O1247  O     0.60845   0.76298   0.75498   0.00000  Uiso   1.00
O1248  O     0.63662   0.84063   0.82247   0.00000  Uiso   1.00
O1249  O     0.36338   0.82603   0.67753   0.00000  Uiso   1.00
O1250  O     0.39764   0.83134   0.81439   0.00000  Uiso   1.00
O1251  O     0.60236   0.83533   0.68561   0.00000  Uiso   1.00
O1252  O     0.54754   0.90884   0.64355   0.00000  Uiso   1.00
S1253  S     0.51076   0.93174   0.60640   0.00000  Uiso   1.00
S1254  S     0.49595   0.74227   0.89642   0.00000  Uiso   1.00
S1255  S     0.48997   0.78399   0.68005   0.00000  Uiso   1.00
S1256  S     0.50921   0.88330   0.81935   0.00000  Uiso   1.00
Zn1257 Zn    0.60366   0.83954   0.75539   0.00000  Uiso   1.00
Zn1258 Zn    0.39634   0.82713   0.74461   0.00000  Uiso   1.00
C1259  C     0.68119   0.93113   0.74932   0.00000  Uiso   1.00
C1260  C     0.97889   0.82932   0.65885   0.00000  Uiso   1.00
C1261  C     0.70014   0.85582   0.89355   0.00000  Uiso   1.00
C1262  C     0.96608   0.81103   0.60674   0.00000  Uiso   1.00
C1263  C     0.73214   0.93285   0.94901   0.00000  Uiso   1.00
C1264  C     0.92991   0.73385   0.55366   0.00000  Uiso   1.00
C1265  C     0.69831   0.90912   0.90826   0.00000  Uiso   1.00
C1266  C     0.96624   0.75742   0.59272   0.00000  Uiso   1.00
C1267  C     0.73162   0.82581   0.92256   0.00000  Uiso   1.00
C1268  C     0.93364   0.84130   0.57866   0.00000  Uiso   1.00
C1269  C     0.77327   0.84967   0.95787   0.00000  Uiso   1.00
C1270  C     0.98611   0.73558   0.75144   0.00000  Uiso   1.00
C1271  C     0.89003   0.81781   0.54525   0.00000  Uiso   1.00
C1272  C     0.77088   0.90374   0.97287   0.00000  Uiso   1.00
C1273  C     0.89063   0.76336   0.53095   0.00000  Uiso   1.00
C1274  C     0.81544   0.82136   0.97981   0.00000  Uiso   1.00
C1275  C     0.84755   0.84654   0.52411   0.00000  Uiso   1.00
C1276  C     0.78322   0.66756   0.74411   0.00000  Uiso   1.00
C1277  C     0.97418   0.69011   0.84418   0.00000  Uiso   1.00
C1278  C     0.83644   0.89949   0.54337   0.00000  Uiso   1.00
C1279  C     0.82590   0.76842   0.96060   0.00000  Uiso   1.00
C1280  C     0.80372   0.92789   0.51378   0.00000  Uiso   1.00
C1281  C     0.85582   0.73916   0.99126   0.00000  Uiso   1.00
C1282  C     0.68827   0.98435   0.74417   0.00000  Uiso   1.00
C1283  C     0.98294   0.68350   0.76150   0.00000  Uiso   1.00
C1284  C     0.68779   0.83753   0.84123   0.00000  Uiso   1.00
H1285  H     0.79791   0.96860   0.52640   0.00000  Uiso   1.00
H1286  H     0.79183   0.99837   0.89388   0.00000  Uiso   1.00
H1287  H     0.80478   0.96452   0.73365   0.00000  Uiso   1.00
H1288  H     0.78035   0.67484   0.78509   0.00000  Uiso   1.00
H1289  H     0.81042   0.69962   0.73500   0.00000  Uiso   1.00
H1290  H     0.97866   0.73323   0.84998   0.00000  Uiso   1.00
H1291  H     0.68291   0.67415   0.84967   0.00000  Uiso   1.00
H1292  H     0.94822   0.67841   0.87324   0.00000  Uiso   1.00
H1293  H     0.77162   0.72986   0.62677   0.00000  Uiso   1.00
H1294  H     0.90045   0.92640   0.87590   0.00000  Uiso   1.00
H1295  H     0.86038   0.69820   0.97920   0.00000  Uiso   1.00
H1296  H     0.94138   0.88289   0.58479   0.00000  Uiso   1.00
H1297  H     0.72415   0.78422   0.91648   0.00000  Uiso   1.00
H1298  H     0.99106   0.73339   0.61440   0.00000  Uiso   1.00
H1299  H     0.67357   0.93267   0.88628   0.00000  Uiso   1.00
H1300  H     0.72995   0.97427   0.96034   0.00000  Uiso   1.00
H1301  H     0.93092   0.69228   0.54259   0.00000  Uiso   1.00
H1302  H     0.76143   0.96189   0.61287   0.00000  Uiso   1.00
N1303  N     0.81362   0.81883   0.73739   0.00000  Uiso   1.00
N1304  N     0.85305   0.84784   0.76260   0.00000  Uiso   1.00
O1305  O     0.96386   0.91298   0.75309   0.00000  Uiso   1.00
O1306  O     0.86549   0.98685   0.60633   0.00000  Uiso   1.00
O1307  O     0.77947   0.93297   0.62693   0.00000  Uiso   1.00
O1308  O     0.78356   0.75440   0.85996   0.00000  Uiso   1.00
O1309  O     0.88391   0.76260   0.88091   0.00000  Uiso   1.00
O1310  O     0.83100   0.67723   0.89106   0.00000  Uiso   1.00
O1311  O     0.73082   0.99955   0.71614   0.00000  Uiso   1.00
O1312  O     0.94760   0.67102   0.79678   0.00000  Uiso   1.00
O1313  O     0.82889   0.82020   0.64230   0.00000  Uiso   1.00
O1314  O     0.87258   0.75049   0.68101   0.00000  Uiso   1.00
O1315  O     0.76606   0.74484   0.66137   0.00000  Uiso   1.00
O1316  O     0.70281   0.75369   0.74691   0.00000  Uiso   1.00
O1317  O     0.79489   0.91840   0.81708   0.00000  Uiso   1.00
O1318  O     0.83321   0.84762   0.85690   0.00000  Uiso   1.00
O1319  O     0.90066   0.92052   0.83924   0.00000  Uiso   1.00
O1320  O     0.72488   0.90368   0.74501   0.00000  Uiso   1.00
O1321  O     0.94178   0.76298   0.75498   0.00000  Uiso   1.00
O1322  O     0.96995   0.84063   0.82247   0.00000  Uiso   1.00
O1323  O     0.69672   0.82603   0.67753   0.00000  Uiso   1.00
O1324  O     0.73098   0.83134   0.81439   0.00000  Uiso   1.00
O1325  O     0.93569   0.83533   0.68561   0.00000  Uiso   1.00
O1326  O     0.88087   0.90884   0.64355   0.00000  Uiso   1.00
S1327  S     0.84410   0.93174   0.60640   0.00000  Uiso   1.00
S1328  S     0.82929   0.74227   0.89642   0.00000  Uiso   1.00
S1329  S     0.82330   0.78399   0.68005   0.00000  Uiso   1.00
S1330  S     0.84255   0.88330   0.81935   0.00000  Uiso   1.00
Zn1331 Zn    0.93700   0.83954   0.75539   0.00000  Uiso   1.00
Zn1332 Zn    0.72967   0.82713   0.74461   0.00000  Uiso   1.00
loop_
_geom_bond_atom_site_label_1
_geom_bond_atom_site_label_2
_geom_bond_distance
_geom_bond_site_symmetry_2
_ccdc_geom_bond_type
C1     O62     1.294   .     A
C1     C24     1.415   .     S
C1     O195    1.300   1_455 S
C2     C4      1.442   .     S
C2     O67     1.310   .     A
C2     O139    1.304   .     S
C3     C9      1.391   .     A
C3     C26     1.446   .     S
C3     C7      1.393   .     A
C4     C10     1.392   .     A
C4     C8      1.395   .     A
C5     H42     1.084   .     S
C5     C14     1.401   .     A
C5     C7      1.384   .     A
C6     H43     1.084   .     S
C6     C15     1.401   .     A
C6     C8      1.383   .     A
C7     H41     1.079   .     S
C8     H40     1.084   .     S
C9     C11     1.399   .     A
C9     H39     1.077   .     S
C10    H38     1.078   .     S
C10    C13     1.398   .     A
C11    C16     1.420   .     A
C11    C14     1.415   .     A
C12    C25     1.418   .     S
C12    O63     1.305   .     A
C12    O132    1.289   .     S
C13    C17     1.422   .     A
C13    C15     1.418   .     A
C14    C688    1.379   .     S
C15    C689    1.380   1_554 S
C16    C21     1.444   .     A
C16    C683    1.446   .     S
C17    C20     1.448   .     A
C17    C682    1.446   1_554 S
C18    H30     1.115   .     S
C18    H31     1.102   .     S
C18    H473    1.110   1_545 S
C18    O497    1.418   1_545 S
C19    H34     1.107   .     S
C19    H32     1.111   .     S
C19    O54     1.415   .     S
C19    H107    1.113   .     S
C20    C22     1.389   .     A
C20    S69     1.800   .     S
C21    S70     1.798   .     S
C21    C23     1.387   .     A
C22    H27     1.086   .     S
C22    C680    1.379   1_554 S
C23    H37     1.084   .     S
C23    C681    1.380   .     S
C24    O53     1.392   .     S
C24    C395    1.347   1_455 S
C25    O54     1.387   .     S
C25    C542    1.347   1_545 S
C26    O66     1.312   .     A
C26    O212    1.304   1_455 S
H28    O274    0.989   .     S
H29    C240    1.110   .     S
H33    C167    1.113   1_455 S
H35    O57     0.991   .     S
H36    O61     0.991   .     S
H44    O49     0.990   .     S
N45    S71     1.733   .     S
N45    N46     1.281   .     D
N45    Zn74    2.051   .     S
N46    S72     1.730   .     S
N46    Zn73    2.051   .     S
O47    Zn73    2.000   .     S
O47    C75     1.300   .     S
O48    S69     1.502   .     D
O49    S69     1.683   .     S
O50    S70     1.498   .     D
O51    S70     1.500   .     D
O52    S70     1.680   .     S
O52    H472    0.989   1_545 S
O53    C240    1.418   .     S
O55    S71     1.495   .     D
O56    S71     1.497   .     D
O57    S71     1.679   .     S
O58    Zn74    2.000   .     S
O58    C160    1.289   1_455 S
O59    S72     1.494   .     D
O60    S72     1.494   .     D
O61    S72     1.675   .     S
O62    Zn74    1.998   .     S
O63    Zn73    1.998   .     S
O64    Zn73    1.935   .     S
O64    C100    1.304   .     S
O65    Zn74    1.935   .     S
O65    C150    1.304   1_455 S
O66    Zn74    1.888   .     S
O67    Zn73    1.888   .     S
O68    S69     1.495   .     D
C75    O136    1.294   .     A
C75    C98     1.415   .     S
C76    C78     1.442   .     S
C76    O141    1.310   .     A
C76    O213    1.304   .     S
C77    C83     1.391   .     A
C77    C100    1.446   .     S
C77    C81     1.393   .     A
C78    C84     1.392   .     A
C78    C82     1.395   .     A
C79    H116    1.084   .     S
C79    C88     1.401   .     A
C79    C81     1.384   .     A
C80    H117    1.084   .     S
C80    C89     1.401   .     A
C80    C82     1.383   .     A
C81    H115    1.079   .     S
C82    H114    1.084   .     S
C83    C85     1.399   .     A
C83    H113    1.077   .     S
C84    H112    1.078   .     S
C84    C87     1.398   .     A
C85    C90     1.420   .     A
C85    C88     1.415   .     A
C86    C99     1.418   .     S
C86    O137    1.305   .     A
C86    O206    1.289   .     S
C87    C91     1.422   .     A
C87    C89     1.418   .     A
C88    C762    1.379   .     S
C89    C763    1.380   1_554 S
C90    C95     1.444   .     A
C90    C757    1.446   .     S
C91    C94     1.448   .     A
C91    C756    1.446   1_554 S
C92    H104    1.115   .     S
C92    H105    1.102   .     S
C92    H547    1.110   1_545 S
C92    O571    1.418   1_545 S
C93    H108    1.107   .     S
C93    H106    1.111   .     S
C93    O128    1.415   .     S
C93    H181    1.113   .     S
C94    C96     1.389   .     A
C94    S143    1.800   .     S
C95    S144    1.798   .     S
C95    C97     1.387   .     A
C96    H101    1.086   .     S
C96    C754    1.379   1_554 S
C97    H111    1.084   .     S
C97    C755    1.380   .     S
C98    O127    1.392   .     S
C98    C247    1.347   .     S
C99    O128    1.387   .     S
C99    C616    1.347   1_545 S
C100   O140    1.312   .     A
H102   O348    0.989   .     S
H103   C314    1.110   .     S
H109   O131    0.991   .     S
H110   O135    0.991   .     S
H118   O123    0.990   .     S
N119   S145    1.733   .     S
N119   N120    1.281   .     D
N119   Zn148   2.051   .     S
N120   S146    1.730   .     S
N120   Zn147   2.051   .     S
O121   Zn147   2.000   .     S
O121   C149    1.300   .     S
O122   S143    1.502   .     D
O123   S143    1.683   .     S
O124   S144    1.498   .     D
O125   S144    1.500   .     D
O126   S144    1.680   .     S
O126   H546    0.989   1_545 S
O127   C314    1.418   .     S
O129   S145    1.495   .     D
O130   S145    1.497   .     D
O131   S145    1.679   .     S
O132   Zn148   2.000   .     S
O133   S146    1.494   .     D
O134   S146    1.494   .     D
O135   S146    1.675   .     S
O136   Zn148   1.998   .     S
O137   Zn147   1.998   .     S
O138   Zn147   1.935   .     S
O138   C174    1.304   .     S
O139   Zn148   1.935   .     S
O140   Zn148   1.888   .     S
O141   Zn147   1.888   .     S
O142   S143    1.495   .     D
C149   O210    1.294   .     A
C149   C172    1.415   .     S
C150   C152    1.442   .     S
C150   O215    1.310   .     A
C150   O65     1.304   1_655 S
C151   C157    1.391   .     A
C151   C174    1.446   .     S
C151   C155    1.393   .     A
C152   C158    1.392   .     A
C152   C156    1.395   .     A
C153   H190    1.084   .     S
C153   C162    1.401   .     A
C153   C155    1.384   .     A
C154   H191    1.084   .     S
C154   C163    1.401   .     A
C154   C156    1.383   .     A
C155   H189    1.079   .     S
C156   H188    1.084   .     S
C157   C159    1.399   .     A
C157   H187    1.077   .     S
C158   H186    1.078   .     S
C158   C161    1.398   .     A
C159   C164    1.420   .     A
C159   C162    1.415   .     A
C160   C173    1.418   .     S
C160   O211    1.305   .     A
C160   O58     1.289   1_655 S
C161   C165    1.422   .     A
C161   C163    1.418   .     A
C162   C836    1.379   .     S
C163   C837    1.380   1_554 S
C164   C169    1.444   .     A
C164   C831    1.446   .     S
C165   C168    1.448   .     A
C165   C830    1.446   1_554 S
C166   H178    1.115   .     S
C166   H179    1.102   .     S
C166   H621    1.110   1_545 S
C166   O645    1.418   1_545 S
C167   H182    1.107   .     S
C167   H180    1.111   .     S
C167   O202    1.415   .     S
C167   H33     1.113   1_655 S
C168   C170    1.389   .     A
C168   S217    1.800   .     S
C169   S218    1.798   .     S
C169   C171    1.387   .     A
C170   H175    1.086   .     S
C170   C828    1.379   1_554 S
C171   H185    1.084   .     S
C171   C829    1.380   .     S
C172   O201    1.392   .     S
C172   C321    1.347   .     S
C173   O202    1.387   .     S
C173   C468    1.347   1_645 S
C174   O214    1.312   .     A
H176   O422    0.989   .     S
H177   C388    1.110   .     S
H183   O205    0.991   .     S
H184   O209    0.991   .     S
H192   O197    0.990   .     S
N193   S219    1.733   .     S
N193   N194    1.281   .     D
N193   Zn222   2.051   .     S
N194   S220    1.730   .     S
N194   Zn221   2.051   .     S
O195   Zn221   2.000   .     S
O195   C1      1.300   1_655 S
O196   S217    1.502   .     D
O197   S217    1.683   .     S
O198   S218    1.498   .     D
O199   S218    1.500   .     D
O200   S218    1.680   .     S
O200   H620    0.989   1_545 S
O201   C388    1.418   .     S
O203   S219    1.495   .     D
O204   S219    1.497   .     D
O205   S219    1.679   .     S
O206   Zn222   2.000   .     S
O207   S220    1.494   .     D
O208   S220    1.494   .     D
O209   S220    1.675   .     S
O210   Zn222   1.998   .     S
O211   Zn221   1.998   .     S
O212   Zn221   1.935   .     S
O212   C26     1.304   1_655 S
O213   Zn222   1.935   .     S
O214   Zn222   1.888   .     S
O215   Zn221   1.888   .     S
O216   S217    1.495   .     D
C223   O284    1.294   .     A
C223   C246    1.415   .     S
C223   O417    1.300   1_455 S
C224   C226    1.442   .     S
C224   O289    1.310   .     A
C224   O361    1.304   .     S
C225   C231    1.391   .     A
C225   C248    1.446   .     S
C225   C229    1.393   .     A
C226   C232    1.392   .     A
C226   C230    1.395   .     A
C227   H264    1.084   .     S
C227   C236    1.401   .     A
C227   C229    1.384   .     A
C228   H265    1.084   .     S
C228   C237    1.401   .     A
C228   C230    1.383   .     A
C229   H263    1.079   .     S
C230   H262    1.084   .     S
C231   C233    1.399   .     A
C231   H261    1.077   .     S
C232   H260    1.078   .     S
C232   C235    1.398   .     A
C233   C238    1.420   .     A
C233   C236    1.415   .     A
C234   C247    1.418   .     S
C234   O285    1.305   .     A
C234   O354    1.289   .     S
C235   C239    1.422   .     A
C235   C237    1.418   .     A
C236   C910    1.379   .     S
C237   C911    1.380   1_554 S
C238   C243    1.444   .     A
C238   C905    1.446   .     S
C239   C242    1.448   .     A
C239   C904    1.446   1_554 S
C240   H252    1.115   .     S
C240   H253    1.102   .     S
C241   H256    1.107   .     S
C241   H254    1.111   .     S
C241   O276    1.415   .     S
C241   H329    1.113   .     S
C242   C244    1.389   .     A
C242   S291    1.800   .     S
C243   S292    1.798   .     S
C243   C245    1.387   .     A
C244   H249    1.086   .     S
C244   C902    1.379   1_554 S
C245   H259    1.084   .     S
C245   C903    1.380   .     S
C246   O275    1.392   .     S
C246   C617    1.347   1_455 S
C247   O276    1.387   .     S
C248   O288    1.312   .     A
C248   O434    1.304   1_455 S
H250   O496    0.989   .     S
H251   C462    1.110   .     S
H255   C389    1.113   1_455 S
H257   O279    0.991   .     S
H258   O283    0.991   .     S
H266   O271    0.990   .     S
N267   S293    1.733   .     S
N267   N268    1.281   .     D
N267   Zn296   2.051   .     S
N268   S294    1.730   .     S
N268   Zn295   2.051   .     S
O269   Zn295   2.000   .     S
O269   C297    1.300   .     S
O270   S291    1.502   .     D
O271   S291    1.683   .     S
O272   S292    1.498   .     D
O273   S292    1.500   .     D
O274   S292    1.680   .     S
O275   C462    1.418   .     S
O277   S293    1.495   .     D
O278   S293    1.497   .     D
O279   S293    1.679   .     S
O280   Zn296   2.000   .     S
O280   C382    1.289   1_455 S
O281   S294    1.494   .     D
O282   S294    1.494   .     D
O283   S294    1.675   .     S
O284   Zn296   1.998   .     S
O285   Zn295   1.998   .     S
O286   Zn295   1.935   .     S
O286   C322    1.304   .     S
O287   Zn296   1.935   .     S
O287   C372    1.304   1_455 S
O288   Zn296   1.888   .     S
O289   Zn295   1.888   .     S
O290   S291    1.495   .     D
C297   O358    1.294   .     A
C297   C320    1.415   .     S
C298   C300    1.442   .     S
C298   O363    1.310   .     A
C298   O435    1.304   .     S
C299   C305    1.391   .     A
C299   C322    1.446   .     S
C299   C303    1.393   .     A
C300   C306    1.392   .     A
C300   C304    1.395   .     A
C301   H338    1.084   .     S
C301   C310    1.401   .     A
C301   C303    1.384   .     A
C302   H339    1.084   .     S
C302   C311    1.401   .     A
C302   C304    1.383   .     A
C303   H337    1.079   .     S
C304   H336    1.084   .     S
C305   C307    1.399   .     A
C305   H335    1.077   .     S
C306   H334    1.078   .     S
C306   C309    1.398   .     A
C307   C312    1.420   .     A
C307   C310    1.415   .     A
C308   C321    1.418   .     S
C308   O359    1.305   .     A
C308   O428    1.289   .     S
C309   C313    1.422   .     A
C309   C311    1.418   .     A
C310   C984    1.379   .     S
C311   C985    1.380   1_554 S
C312   C317    1.444   .     A
C312   C979    1.446   .     S
C313   C316    1.448   .     A
C313   C978    1.446   1_554 S
C314   H326    1.115   .     S
C314   H327    1.102   .     S
C315   H330    1.107   .     S
C315   H328    1.111   .     S
C315   O350    1.415   .     S
C315   H403    1.113   .     S
C316   C318    1.389   .     A
C316   S365    1.800   .     S
C317   S366    1.798   .     S
C317   C319    1.387   .     A
C318   H323    1.086   .     S
C318   C976    1.379   1_554 S
C319   H333    1.084   .     S
C319   C977    1.380   .     S
C320   O349    1.392   .     S
C320   C469    1.347   .     S
C321   O350    1.387   .     S
C322   O362    1.312   .     A
H324   O570    0.989   .     S
H325   C536    1.110   .     S
H331   O353    0.991   .     S
H332   O357    0.991   .     S
H340   O345    0.990   .     S
N341   S367    1.733   .     S
N341   N342    1.281   .     D
N341   Zn370   2.051   .     S
N342   S368    1.730   .     S
N342   Zn369   2.051   .     S
O343   Zn369   2.000   .     S
O343   C371    1.300   .     S
O344   S365    1.502   .     D
O345   S365    1.683   .     S
O346   S366    1.498   .     D
O347   S366    1.500   .     D
O348   S366    1.680   .     S
O349   C536    1.418   .     S
O351   S367    1.495   .     D
O352   S367    1.497   .     D
O353   S367    1.679   .     S
O354   Zn370   2.000   .     S
O355   S368    1.494   .     D
O356   S368    1.494   .     D
O357   S368    1.675   .     S
O358   Zn370   1.998   .     S
O359   Zn369   1.998   .     S
O360   Zn369   1.935   .     S
O360   C396    1.304   .     S
O361   Zn370   1.935   .     S
O362   Zn370   1.888   .     S
O363   Zn369   1.888   .     S
O364   S365    1.495   .     D
C371   O432    1.294   .     A
C371   C394    1.415   .     S
C372   C374    1.442   .     S
C372   O437    1.310   .     A
C372   O287    1.304   1_655 S
C373   C379    1.391   .     A
C373   C396    1.446   .     S
C373   C377    1.393   .     A
C374   C380    1.392   .     A
C374   C378    1.395   .     A
C375   H412    1.084   .     S
C375   C384    1.401   .     A
C375   C377    1.384   .     A
C376   H413    1.084   .     S
C376   C385    1.401   .     A
C376   C378    1.383   .     A
C377   H411    1.079   .     S
C378   H410    1.084   .     S
C379   C381    1.399   .     A
C379   H409    1.077   .     S
C380   H408    1.078   .     S
C380   C383    1.398   .     A
C381   C386    1.420   .     A
C381   C384    1.415   .     A
C382   C395    1.418   .     S
C382   O433    1.305   .     A
C382   O280    1.289   1_655 S
C383   C387    1.422   .     A
C383   C385    1.418   .     A
C384   C1058   1.379   .     S
C385   C1059   1.380   1_554 S
C386   C391    1.444   .     A
C386   C1053   1.446   .     S
C387   C390    1.448   .     A
C387   C1052   1.446   1_554 S
C388   H400    1.115   .     S
C388   H401    1.102   .     S
C389   H404    1.107   .     S
C389   H402    1.111   .     S
C389   O424    1.415   .     S
C389   H255    1.113   1_655 S
C390   C392    1.389   .     A
C390   S439    1.800   .     S
C391   S440    1.798   .     S
C391   C393    1.387   .     A
C392   H397    1.086   .     S
C392   C1050   1.379   1_554 S
C393   H407    1.084   .     S
C393   C1051   1.380   .     S
C394   O423    1.392   .     S
C394   C543    1.347   .     S
C395   O424    1.387   .     S
C395   C24     1.347   1_655 S
C396   O436    1.312   .     A
H398   O644    0.989   .     S
H399   C610    1.110   .     S
H405   O427    0.991   .     S
H406   O431    0.991   .     S
H414   O419    0.990   .     S
N415   S441    1.733   .     S
N415   N416    1.281   .     D
N415   Zn444   2.051   .     S
N416   S442    1.730   .     S
N416   Zn443   2.051   .     S
O417   Zn443   2.000   .     S
O417   C223    1.300   1_655 S
O418   S439    1.502   .     D
O419   S439    1.683   .     S
O420   S440    1.498   .     D
O421   S440    1.500   .     D
O422   S440    1.680   .     S
O423   C610    1.418   .     S
O425   S441    1.495   .     D
O426   S441    1.497   .     D
O427   S441    1.679   .     S
O428   Zn444   2.000   .     S
O429   S442    1.494   .     D
O430   S442    1.494   .     D
O431   S442    1.675   .     S
O432   Zn444   1.998   .     S
O433   Zn443   1.998   .     S
O434   Zn443   1.935   .     S
O434   C248    1.304   1_655 S
O435   Zn444   1.935   .     S
O436   Zn444   1.888   .     S
O437   Zn443   1.888   .     S
O438   S439    1.495   .     D
C445   O506    1.294   .     A
C445   C468    1.415   .     S
C445   O639    1.300   1_455 S
C446   C448    1.442   .     S
C446   O511    1.310   .     A
C446   O583    1.304   .     S
C447   C453    1.391   .     A
C447   C470    1.446   .     S
C447   C451    1.393   .     A
C448   C454    1.392   .     A
C448   C452    1.395   .     A
C449   H486    1.084   .     S
C449   C458    1.401   .     A
C449   C451    1.384   .     A
C450   H487    1.084   .     S
C450   C459    1.401   .     A
C450   C452    1.383   .     A
C451   H485    1.079   .     S
C452   H484    1.084   .     S
C453   C455    1.399   .     A
C453   H483    1.077   .     S
C454   H482    1.078   .     S
C454   C457    1.398   .     A
C455   C460    1.420   .     A
C455   C458    1.415   .     A
C456   C469    1.418   .     S
C456   O507    1.305   .     A
C456   O576    1.289   .     S
C457   C461    1.422   .     A
C457   C459    1.418   .     A
C458   C1132   1.379   .     S
C459   C1133   1.380   1_554 S
C460   C465    1.444   .     A
C460   C1127   1.446   .     S
C461   C464    1.448   .     A
C461   C1126   1.446   1_554 S
C462   H474    1.115   .     S
C462   H475    1.102   .     S
C463   H478    1.107   .     S
C463   H476    1.111   .     S
C463   O498    1.415   .     S
C463   H551    1.113   .     S
C464   C466    1.389   .     A
C464   S513    1.800   .     S
C465   S514    1.798   .     S
C465   C467    1.387   .     A
C466   H471    1.086   .     S
C466   C1124   1.379   1_554 S
C467   H481    1.084   .     S
C467   C1125   1.380   .     S
C468   O497    1.392   .     S
C468   C173    1.347   1_465 S
C469   O498    1.387   .     S
C470   O510    1.312   .     A
C470   O656    1.304   1_455 S
H472   O52     0.989   1_565 S
H473   C18     1.110   1_565 S
H477   C611    1.113   1_455 S
H479   O501    0.991   .     S
H480   O505    0.991   .     S
H488   O493    0.990   .     S
N489   S515    1.733   .     S
N489   N490    1.281   .     D
N489   Zn518   2.051   .     S
N490   S516    1.730   .     S
N490   Zn517   2.051   .     S
O491   Zn517   2.000   .     S
O491   C519    1.300   .     S
O492   S513    1.502   .     D
O493   S513    1.683   .     S
O494   S514    1.498   .     D
O495   S514    1.500   .     D
O496   S514    1.680   .     S
O497   C18     1.418   1_565 S
O499   S515    1.495   .     D
O500   S515    1.497   .     D
O501   S515    1.679   .     S
O502   Zn518   2.000   .     S
O502   C604    1.289   1_455 S
O503   S516    1.494   .     D
O504   S516    1.494   .     D
O505   S516    1.675   .     S
O506   Zn518   1.998   .     S
O507   Zn517   1.998   .     S
O508   Zn517   1.935   .     S
O508   C544    1.304   .     S
O509   Zn518   1.935   .     S
O509   C594    1.304   1_455 S
O510   Zn518   1.888   .     S
O511   Zn517   1.888   .     S
O512   S513    1.495   .     D
C519   O580    1.294   .     A
C519   C542    1.415   .     S
C520   C522    1.442   .     S
C520   O585    1.310   .     A
C520   O657    1.304   .     S
C521   C527    1.391   .     A
C521   C544    1.446   .     S
C521   C525    1.393   .     A
C522   C528    1.392   .     A
C522   C526    1.395   .     A
C523   H560    1.084   .     S
C523   C532    1.401   .     A
C523   C525    1.384   .     A
C524   H561    1.084   .     S
C524   C533    1.401   .     A
C524   C526    1.383   .     A
C525   H559    1.079   .     S
C526   H558    1.084   .     S
C527   C529    1.399   .     A
C527   H557    1.077   .     S
C528   H556    1.078   .     S
C528   C531    1.398   .     A
C529   C534    1.420   .     A
C529   C532    1.415   .     A
C530   C543    1.418   .     S
C530   O581    1.305   .     A
C530   O650    1.289   .     S
C531   C535    1.422   .     A
C531   C533    1.418   .     A
C532   C1206   1.379   .     S
C533   C1207   1.380   1_554 S
C534   C539    1.444   .     A
C534   C1201   1.446   .     S
C535   C538    1.448   .     A
C535   C1200   1.446   1_554 S
C536   H548    1.115   .     S
C536   H549    1.102   .     S
C537   H552    1.107   .     S
C537   H550    1.111   .     S
C537   O572    1.415   .     S
C537   H625    1.113   .     S
C538   C540    1.389   .     A
C538   S587    1.800   .     S
C539   S588    1.798   .     S
C539   C541    1.387   .     A
C540   H545    1.086   .     S
C540   C1198   1.379   1_554 S
C541   H555    1.084   .     S
C541   C1199   1.380   .     S
C542   O571    1.392   .     S
C542   C25     1.347   1_565 S
C543   O572    1.387   .     S
C544   O584    1.312   .     A
H546   O126    0.989   1_565 S
H547   C92     1.110   1_565 S
H553   O575    0.991   .     S
H554   O579    0.991   .     S
H562   O567    0.990   .     S
N563   S589    1.733   .     S
N563   N564    1.281   .     D
N563   Zn592   2.051   .     S
N564   S590    1.730   .     S
N564   Zn591   2.051   .     S
O565   Zn591   2.000   .     S
O565   C593    1.300   .     S
O566   S587    1.502   .     D
O567   S587    1.683   .     S
O568   S588    1.498   .     D
O569   S588    1.500   .     D
O570   S588    1.680   .     S
O571   C92     1.418   1_565 S
O573   S589    1.495   .     D
O574   S589    1.497   .     D
O575   S589    1.679   .     S
O576   Zn592   2.000   .     S
O577   S590    1.494   .     D
O578   S590    1.494   .     D
O579   S590    1.675   .     S
O580   Zn592   1.998   .     S
O581   Zn591   1.998   .     S
O582   Zn591   1.935   .     S
O582   C618    1.304   .     S
O583   Zn592   1.935   .     S
O584   Zn592   1.888   .     S
O585   Zn591   1.888   .     S
O586   S587    1.495   .     D
C593   O654    1.294   .     A
C593   C616    1.415   .     S
C594   C596    1.442   .     S
C594   O659    1.310   .     A
C594   O509    1.304   1_655 S
C595   C601    1.391   .     A
C595   C618    1.446   .     S
C595   C599    1.393   .     A
C596   C602    1.392   .     A
C596   C600    1.395   .     A
C597   H634    1.084   .     S
C597   C606    1.401   .     A
C597   C599    1.384   .     A
C598   H635    1.084   .     S
C598   C607    1.401   .     A
C598   C600    1.383   .     A
C599   H633    1.079   .     S
C600   H632    1.084   .     S
C601   C603    1.399   .     A
C601   H631    1.077   .     S
C602   H630    1.078   .     S
C602   C605    1.398   .     A
C603   C608    1.420   .     A
C603   C606    1.415   .     A
C604   C617    1.418   .     S
C604   O655    1.305   .     A
C604   O502    1.289   1_655 S
C605   C609    1.422   .     A
C605   C607    1.418   .     A
C606   C1280   1.379   .     S
C607   C1281   1.380   1_554 S
C608   C613    1.444   .     A
C608   C1275   1.446   .     S
C609   C612    1.448   .     A
C609   C1274   1.446   1_554 S
C610   H622    1.115   .     S
C610   H623    1.102   .     S
C611   H626    1.107   .     S
C611   H624    1.111   .     S
C611   O646    1.415   .     S
C611   H477    1.113   1_655 S
C612   C614    1.389   .     A
C612   S661    1.800   .     S
C613   S662    1.798   .     S
C613   C615    1.387   .     A
C614   H619    1.086   .     S
C614   C1272   1.379   1_554 S
C615   H629    1.084   .     S
C615   C1273   1.380   .     S
C616   O645    1.392   .     S
C616   C99     1.347   1_565 S
C617   O646    1.387   .     S
C617   C246    1.347   1_655 S
C618   O658    1.312   .     A
H620   O200    0.989   1_565 S
H621   C166    1.110   1_565 S
H627   O649    0.991   .     S
H628   O653    0.991   .     S
H636   O641    0.990   .     S
N637   S663    1.733   .     S
N637   N638    1.281   .     D
N637   Zn666   2.051   .     S
N638   S664    1.730   .     S
N638   Zn665   2.051   .     S
O639   Zn665   2.000   .     S
O639   C445    1.300   1_655 S
O640   S661    1.502   .     D
O641   S661    1.683   .     S
O642   S662    1.498   .     D
O643   S662    1.500   .     D
O644   S662    1.680   .     S
O645   C166    1.418   1_565 S
O647   S663    1.495   .     D
O648   S663    1.497   .     D
O649   S663    1.679   .     S
O650   Zn666   2.000   .     S
O651   S664    1.494   .     D
O652   S664    1.494   .     D
O653   S664    1.675   .     S
O654   Zn666   1.998   .     S
O655   Zn665   1.998   .     S
O656   Zn665   1.935   .     S
O656   C470    1.304   1_655 S
O657   Zn666   1.935   .     S
O658   Zn666   1.888   .     S
O659   Zn665   1.888   .     S
O660   S661    1.495   .     D
C667   O728    1.294   .     A
C667   C690    1.415   .     S
C667   O861    1.300   1_455 S
C668   C670    1.442   .     S
C668   O733    1.310   .     A
C668   O805    1.304   .     S
C669   C675    1.391   .     A
C669   C692    1.446   .     S
C669   C673    1.393   .     A
C670   C676    1.392   .     A
C670   C674    1.395   .     A
C671   H708    1.084   .     S
C671   C680    1.401   .     A
C671   C673    1.384   .     A
C672   H709    1.084   .     S
C672   C681    1.401   .     A
C672   C674    1.383   .     A
C673   H707    1.079   .     S
C674   H706    1.084   .     S
C675   C677    1.399   .     A
C675   H705    1.077   .     S
C676   H704    1.078   .     S
C676   C679    1.398   .     A
C677   C682    1.420   .     A
C677   C680    1.415   .     A
C678   C691    1.418   .     S
C678   O729    1.305   .     A
C678   O798    1.289   .     S
C679   C683    1.422   .     A
C679   C681    1.418   .     A
C680   C22     1.379   1_556 S
C682   C687    1.444   .     A
C682   C17     1.446   1_556 S
C683   C686    1.448   .     A
C684   H696    1.115   .     S
C684   H697    1.102   .     S
C684   H1139   1.110   1_545 S
C684   O1163   1.418   1_545 S
C685   H700    1.107   .     S
C685   H698    1.111   .     S
C685   O720    1.415   .     S
C685   H773    1.113   .     S
C686   C688    1.389   .     A
C686   S735    1.800   .     S
C687   S736    1.798   .     S
C687   C689    1.387   .     A
C688   H693    1.086   .     S
C689   H703    1.084   .     S
C689   C15     1.380   1_556 S
C690   O719    1.392   .     S
C690   C1061   1.347   1_455 S
C691   O720    1.387   .     S
C691   C1208   1.347   1_545 S
C692   O732    1.312   .     A
C692   O878    1.304   1_455 S
H694   O940    0.989   .     S
H695   C906    1.110   .     S
H699   C833    1.113   1_455 S
H701   O723    0.991   .     S
H702   O727    0.991   .     S
H710   O715    0.990   .     S
N711   S737    1.733   .     S
N711   N712    1.281   .     D
N711   Zn740   2.051   .     S
N712   S738    1.730   .     S
N712   Zn739   2.051   .     S
O713   Zn739   2.000   .     S
O713   C741    1.300   .     S
O714   S735    1.502   .     D
O715   S735    1.683   .     S
O716   S736    1.498   .     D
O717   S736    1.500   .     D
O718   S736    1.680   .     S
O718   H1138   0.989   1_545 S
O719   C906    1.418   .     S
O721   S737    1.495   .     D
O722   S737    1.497   .     D
O723   S737    1.679   .     S
O724   Zn740   2.000   .     S
O724   C826    1.289   1_455 S
O725   S738    1.494   .     D
O726   S738    1.494   .     D
O727   S738    1.675   .     S
O728   Zn740   1.998   .     S
O729   Zn739   1.998   .     S
O730   Zn739   1.935   .     S
O730   C766    1.304   .     S
O731   Zn740   1.935   .     S
O731   C816    1.304   1_455 S
O732   Zn740   1.888   .     S
O733   Zn739   1.888   .     S
O734   S735    1.495   .     D
C741   O802    1.294   .     A
C741   C764    1.415   .     S
C742   C744    1.442   .     S
C742   O807    1.310   .     A
C742   O879    1.304   .     S
C743   C749    1.391   .     A
C743   C766    1.446   .     S
C743   C747    1.393   .     A
C744   C750    1.392   .     A
C744   C748    1.395   .     A
C745   H782    1.084   .     S
C745   C754    1.401   .     A
C745   C747    1.384   .     A
C746   H783    1.084   .     S
C746   C755    1.401   .     A
C746   C748    1.383   .     A
C747   H781    1.079   .     S
C748   H780    1.084   .     S
C749   C751    1.399   .     A
C749   H779    1.077   .     S
C750   H778    1.078   .     S
C750   C753    1.398   .     A
C751   C756    1.420   .     A
C751   C754    1.415   .     A
C752   C765    1.418   .     S
C752   O803    1.305   .     A
C752   O872    1.289   .     S
C753   C757    1.422   .     A
C753   C755    1.418   .     A
C754   C96     1.379   1_556 S
C756   C761    1.444   .     A
C756   C91     1.446   1_556 S
C757   C760    1.448   .     A
C758   H770    1.115   .     S
C758   H771    1.102   .     S
C758   H1213   1.110   1_545 S
C758   O1237   1.418   1_545 S
C759   H774    1.107   .     S
C759   H772    1.111   .     S
C759   O794    1.415   .     S
C759   H847    1.113   .     S
C760   C762    1.389   .     A
C760   S809    1.800   .     S
C761   S810    1.798   .     S
C761   C763    1.387   .     A
C762   H767    1.086   .     S
C763   H777    1.084   .     S
C763   C89     1.380   1_556 S
C764   O793    1.392   .     S
C764   C913    1.347   .     S
C765   O794    1.387   .     S
C765   C1282   1.347   1_545 S
C766   O806    1.312   .     A
H768   O1014   0.989   .     S
H769   C980    1.110   .     S
H775   O797    0.991   .     S
H776   O801    0.991   .     S
H784   O789    0.990   .     S
N785   S811    1.733   .     S
N785   N786    1.281   .     D
N785   Zn814   2.051   .     S
N786   S812    1.730   .     S
N786   Zn813   2.051   .     S
O787   Zn813   2.000   .     S
O787   C815    1.300   .     S
O788   S809    1.502   .     D
O789   S809    1.683   .     S
O790   S810    1.498   .     D
O791   S810    1.500   .     D
O792   S810    1.680   .     S
O792   H1212   0.989   1_545 S
O793   C980    1.418   .     S
O795   S811    1.495   .     D
O796   S811    1.497   .     D
O797   S811    1.679   .     S
O798   Zn814   2.000   .     S
O799   S812    1.494   .     D
O800   S812    1.494   .     D
O801   S812    1.675   .     S
O802   Zn814   1.998   .     S
O803   Zn813   1.998   .     S
O804   Zn813   1.935   .     S
O804   C840    1.304   .     S
O805   Zn814   1.935   .     S
O806   Zn814   1.888   .     S
O807   Zn813   1.888   .     S
O808   S809    1.495   .     D
C815   O876    1.294   .     A
C815   C838    1.415   .     S
C816   C818    1.442   .     S
C816   O881    1.310   .     A
C816   O731    1.304   1_655 S
C817   C823    1.391   .     A
C817   C840    1.446   .     S
C817   C821    1.393   .     A
C818   C824    1.392   .     A
C818   C822    1.395   .     A
C819   H856    1.084   .     S
C819   C828    1.401   .     A
C819   C821    1.384   .     A
C820   H857    1.084   .     S
C820   C829    1.401   .     A
C820   C822    1.383   .     A
C821   H855    1.079   .     S
C822   H854    1.084   .     S
C823   C825    1.399   .     A
C823   H853    1.077   .     S
C824   H852    1.078   .     S
C824   C827    1.398   .     A
C825   C830    1.420   .     A
C825   C828    1.415   .     A
C826   C839    1.418   .     S
C826   O877    1.305   .     A
C826   O724    1.289   1_655 S
C827   C831    1.422   .     A
C827   C829    1.418   .     A
C828   C170    1.379   1_556 S
C830   C835    1.444   .     A
C830   C165    1.446   1_556 S
C831   C834    1.448   .     A
C832   H844    1.115   .     S
C832   H845    1.102   .     S
C832   H1287   1.110   1_545 S
C832   O1311   1.418   1_545 S
C833   H848    1.107   .     S
C833   H846    1.111   .     S
C833   O868    1.415   .     S
C833   H699    1.113   1_655 S
C834   C836    1.389   .     A
C834   S883    1.800   .     S
C835   S884    1.798   .     S
C835   C837    1.387   .     A
C836   H841    1.086   .     S
C837   H851    1.084   .     S
C837   C163    1.380   1_556 S
C838   O867    1.392   .     S
C838   C987    1.347   .     S
C839   O868    1.387   .     S
C839   C1134   1.347   1_645 S
C840   O880    1.312   .     A
H842   O1088   0.989   .     S
H843   C1054   1.110   .     S
H849   O871    0.991   .     S
H850   O875    0.991   .     S
H858   O863    0.990   .     S
N859   S885    1.733   .     S
N859   N860    1.281   .     D
N859   Zn888   2.051   .     S
N860   S886    1.730   .     S
N860   Zn887   2.051   .     S
O861   Zn887   2.000   .     S
O861   C667    1.300   1_655 S
O862   S883    1.502   .     D
O863   S883    1.683   .     S
O864   S884    1.498   .     D
O865   S884    1.500   .     D
O866   S884    1.680   .     S
O866   H1286   0.989   1_545 S
O867   C1054   1.418   .     S
O869   S885    1.495   .     D
O870   S885    1.497   .     D
O871   S885    1.679   .     S
O872   Zn888   2.000   .     S
O873   S886    1.494   .     D
O874   S886    1.494   .     D
O875   S886    1.675   .     S
O876   Zn888   1.998   .     S
O877   Zn887   1.998   .     S
O878   Zn887   1.935   .     S
O878   C692    1.304   1_655 S
O879   Zn888   1.935   .     S
O880   Zn888   1.888   .     S
O881   Zn887   1.888   .     S
O882   S883    1.495   .     D
C889   O950    1.294   .     A
C889   C912    1.415   .     S
C889   O1083   1.300   1_455 S
C890   C892    1.442   .     S
C890   O955    1.310   .     A
C890   O1027   1.304   .     S
C891   C897    1.391   .     A
C891   C914    1.446   .     S
C891   C895    1.393   .     A
C892   C898    1.392   .     A
C892   C896    1.395   .     A
C893   H930    1.084   .     S
C893   C902    1.401   .     A
C893   C895    1.384   .     A
C894   H931    1.084   .     S
C894   C903    1.401   .     A
C894   C896    1.383   .     A
C895   H929    1.079   .     S
C896   H928    1.084   .     S
C897   C899    1.399   .     A
C897   H927    1.077   .     S
C898   H926    1.078   .     S
C898   C901    1.398   .     A
C899   C904    1.420   .     A
C899   C902    1.415   .     A
C900   C913    1.418   .     S
C900   O951    1.305   .     A
C900   O1020   1.289   .     S
C901   C905    1.422   .     A
C901   C903    1.418   .     A
C902   C244    1.379   1_556 S
C904   C909    1.444   .     A
C904   C239    1.446   1_556 S
C905   C908    1.448   .     A
C906   H918    1.115   .     S
C906   H919    1.102   .     S
C907   H922    1.107   .     S
C907   H920    1.111   .     S
C907   O942    1.415   .     S
C907   H995    1.113   .     S
C908   C910    1.389   .     A
C908   S957    1.800   .     S
C909   S958    1.798   .     S
C909   C911    1.387   .     A
C910   H915    1.086   .     S
C911   H925    1.084   .     S
C911   C237    1.380   1_556 S
C912   O941    1.392   .     S
C912   C1283   1.347   1_455 S
C913   O942    1.387   .     S
C914   O954    1.312   .     A
C914   O1100   1.304   1_455 S
H916   O1162   0.989   .     S
H917   C1128   1.110   .     S
H921   C1055   1.113   1_455 S
H923   O945    0.991   .     S
H924   O949    0.991   .     S
H932   O937    0.990   .     S
N933   S959    1.733   .     S
N933   N934    1.281   .     D
N933   Zn962   2.051   .     S
N934   S960    1.730   .     S
N934   Zn961   2.051   .     S
O935   Zn961   2.000   .     S
O935   C963    1.300   .     S
O936   S957    1.502   .     D
O937   S957    1.683   .     S
O938   S958    1.498   .     D
O939   S958    1.500   .     D
O940   S958    1.680   .     S
O941   C1128   1.418   .     S
O943   S959    1.495   .     D
O944   S959    1.497   .     D
O945   S959    1.679   .     S
O946   Zn962   2.000   .     S
O946   C1048   1.289   1_455 S
O947   S960    1.494   .     D
O948   S960    1.494   .     D
O949   S960    1.675   .     S
O950   Zn962   1.998   .     S
O951   Zn961   1.998   .     S
O952   Zn961   1.935   .     S
O952   C988    1.304   .     S
O953   Zn962   1.935   .     S
O953   C1038   1.304   1_455 S
O954   Zn962   1.888   .     S
O955   Zn961   1.888   .     S
O956   S957    1.495   .     D
C963   O1024   1.294   .     A
C963   C986    1.415   .     S
C964   C966    1.442   .     S
C964   O1029   1.310   .     A
C964   O1101   1.304   .     S
C965   C971    1.391   .     A
C965   C988    1.446   .     S
C965   C969    1.393   .     A
C966   C972    1.392   .     A
C966   C970    1.395   .     A
C967   H1004   1.084   .     S
C967   C976    1.401   .     A
C967   C969    1.384   .     A
C968   H1005   1.084   .     S
C968   C977    1.401   .     A
C968   C970    1.383   .     A
C969   H1003   1.079   .     S
C970   H1002   1.084   .     S
C971   C973    1.399   .     A
C971   H1001   1.077   .     S
C972   H1000   1.078   .     S
C972   C975    1.398   .     A
C973   C978    1.420   .     A
C973   C976    1.415   .     A
C974   C987    1.418   .     S
C974   O1025   1.305   .     A
C974   O1094   1.289   .     S
C975   C979    1.422   .     A
C975   C977    1.418   .     A
C976   C318    1.379   1_556 S
C978   C983    1.444   .     A
C978   C313    1.446   1_556 S
C979   C982    1.448   .     A
C980   H992    1.115   .     S
C980   H993    1.102   .     S
C981   H996    1.107   .     S
C981   H994    1.111   .     S
C981   O1016   1.415   .     S
C981   H1069   1.113   .     S
C982   C984    1.389   .     A
C982   S1031   1.800   .     S
C983   S1032   1.798   .     S
C983   C985    1.387   .     A
C984   H989    1.086   .     S
C985   H999    1.084   .     S
C985   C311    1.380   1_556 S
C986   O1015   1.392   .     S
C986   C1135   1.347   .     S
C987   O1016   1.387   .     S
C988   O1028   1.312   .     A
H990   O1236   0.989   .     S
H991   C1202   1.110   .     S
H997   O1019   0.991   .     S
H998   O1023   0.991   .     S
H1006  O1011   0.990   .     S
N1007  S1033   1.733   .     S
N1007  N1008   1.281   .     D
N1007  Zn1036  2.051   .     S
N1008  S1034   1.730   .     S
N1008  Zn1035  2.051   .     S
O1009  Zn1035  2.000   .     S
O1009  C1037   1.300   .     S
O1010  S1031   1.502   .     D
O1011  S1031   1.683   .     S
O1012  S1032   1.498   .     D
O1013  S1032   1.500   .     D
O1014  S1032   1.680   .     S
O1015  C1202   1.418   .     S
O1017  S1033   1.495   .     D
O1018  S1033   1.497   .     D
O1019  S1033   1.679   .     S
O1020  Zn1036  2.000   .     S
O1021  S1034   1.494   .     D
O1022  S1034   1.494   .     D
O1023  S1034   1.675   .     S
O1024  Zn1036  1.998   .     S
O1025  Zn1035  1.998   .     S
O1026  Zn1035  1.935   .     S
O1026  C1062   1.304   .     S
O1027  Zn1036  1.935   .     S
O1028  Zn1036  1.888   .     S
O1029  Zn1035  1.888   .     S
O1030  S1031   1.495   .     D
C1037  O1098   1.294   .     A
C1037  C1060   1.415   .     S
C1038  C1040   1.442   .     S
C1038  O1103   1.310   .     A
C1038  O953    1.304   1_655 S
C1039  C1045   1.391   .     A
C1039  C1062   1.446   .     S
C1039  C1043   1.393   .     A
C1040  C1046   1.392   .     A
C1040  C1044   1.395   .     A
C1041  H1078   1.084   .     S
C1041  C1050   1.401   .     A
C1041  C1043   1.384   .     A
C1042  H1079   1.084   .     S
C1042  C1051   1.401   .     A
C1042  C1044   1.383   .     A
C1043  H1077   1.079   .     S
C1044  H1076   1.084   .     S
C1045  C1047   1.399   .     A
C1045  H1075   1.077   .     S
C1046  H1074   1.078   .     S
C1046  C1049   1.398   .     A
C1047  C1052   1.420   .     A
C1047  C1050   1.415   .     A
C1048  C1061   1.418   .     S
C1048  O1099   1.305   .     A
C1048  O946    1.289   1_655 S
C1049  C1053   1.422   .     A
C1049  C1051   1.418   .     A
C1050  C392    1.379   1_556 S
C1052  C1057   1.444   .     A
C1052  C387    1.446   1_556 S
C1053  C1056   1.448   .     A
C1054  H1066   1.115   .     S
C1054  H1067   1.102   .     S
C1055  H1070   1.107   .     S
C1055  H1068   1.111   .     S
C1055  O1090   1.415   .     S
C1055  H921    1.113   1_655 S
C1056  C1058   1.389   .     A
C1056  S1105   1.800   .     S
C1057  S1106   1.798   .     S
C1057  C1059   1.387   .     A
C1058  H1063   1.086   .     S
C1059  H1073   1.084   .     S
C1059  C385    1.380   1_556 S
C1060  O1089   1.392   .     S
C1060  C1209   1.347   .     S
C1061  O1090   1.387   .     S
C1061  C690    1.347   1_655 S
C1062  O1102   1.312   .     A
H1064  O1310   0.989   .     S
H1065  C1276   1.110   .     S
H1071  O1093   0.991   .     S
H1072  O1097   0.991   .     S
H1080  O1085   0.990   .     S
N1081  S1107   1.733   .     S
N1081  N1082   1.281   .     D
N1081  Zn1110  2.051   .     S
N1082  S1108   1.730   .     S
N1082  Zn1109  2.051   .     S
O1083  Zn1109  2.000   .     S
O1083  C889    1.300   1_655 S
O1084  S1105   1.502   .     D
O1085  S1105   1.683   .     S
O1086  S1106   1.498   .     D
O1087  S1106   1.500   .     D
O1088  S1106   1.680   .     S
O1089  C1276   1.418   .     S
O1091  S1107   1.495   .     D
O1092  S1107   1.497   .     D
O1093  S1107   1.679   .     S
O1094  Zn1110  2.000   .     S
O1095  S1108   1.494   .     D
O1096  S1108   1.494   .     D
O1097  S1108   1.675   .     S
O1098  Zn1110  1.998   .     S
O1099  Zn1109  1.998   .     S
O1100  Zn1109  1.935   .     S
O1100  C914    1.304   1_655 S
O1101  Zn1110  1.935   .     S
O1102  Zn1110  1.888   .     S
O1103  Zn1109  1.888   .     S
O1104  S1105   1.495   .     D
C1111  O1172   1.294   .     A
C1111  C1134   1.415   .     S
C1111  O1305   1.300   1_455 S
C1112  C1114   1.442   .     S
C1112  O1177   1.310   .     A
C1112  O1249   1.304   .     S
C1113  C1119   1.391   .     A
C1113  C1136   1.446   .     S
C1113  C1117   1.393   .     A
C1114  C1120   1.392   .     A
C1114  C1118   1.395   .     A
C1115  H1152   1.084   .     S
C1115  C1124   1.401   .     A
C1115  C1117   1.384   .     A
C1116  H1153   1.084   .     S
C1116  C1125   1.401   .     A
C1116  C1118   1.383   .     A
C1117  H1151   1.079   .     S
C1118  H1150   1.084   .     S
C1119  C1121   1.399   .     A
C1119  H1149   1.077   .     S
C1120  H1148   1.078   .     S
C1120  C1123   1.398   .     A
C1121  C1126   1.420   .     A
C1121  C1124   1.415   .     A
C1122  C1135   1.418   .     S
C1122  O1173   1.305   .     A
C1122  O1242   1.289   .     S
C1123  C1127   1.422   .     A
C1123  C1125   1.418   .     A
C1124  C466    1.379   1_556 S
C1126  C1131   1.444   .     A
C1126  C461    1.446   1_556 S
C1127  C1130   1.448   .     A
C1128  H1140   1.115   .     S
C1128  H1141   1.102   .     S
C1129  H1144   1.107   .     S
C1129  H1142   1.111   .     S
C1129  O1164   1.415   .     S
C1129  H1217   1.113   .     S
C1130  C1132   1.389   .     A
C1130  S1179   1.800   .     S
C1131  S1180   1.798   .     S
C1131  C1133   1.387   .     A
C1132  H1137   1.086   .     S
C1133  H1147   1.084   .     S
C1133  C459    1.380   1_556 S
C1134  O1163   1.392   .     S
C1134  C839    1.347   1_465 S
C1135  O1164   1.387   .     S
C1136  O1176   1.312   .     A
C1136  O1322   1.304   1_455 S
H1138  O718    0.989   1_565 S
H1139  C684    1.110   1_565 S
H1143  C1277   1.113   1_455 S
H1145  O1167   0.991   .     S
H1146  O1171   0.991   .     S
H1154  O1159   0.990   .     S
N1155  S1181   1.733   .     S
N1155  N1156   1.281   .     D
N1155  Zn1184  2.051   .     S
N1156  S1182   1.730   .     S
N1156  Zn1183  2.051   .     S
O1157  Zn1183  2.000   .     S
O1157  C1185   1.300   .     S
O1158  S1179   1.502   .     D
O1159  S1179   1.683   .     S
O1160  S1180   1.498   .     D
O1161  S1180   1.500   .     D
O1162  S1180   1.680   .     S
O1163  C684    1.418   1_565 S
O1165  S1181   1.495   .     D
O1166  S1181   1.497   .     D
O1167  S1181   1.679   .     S
O1168  Zn1184  2.000   .     S
O1168  C1270   1.289   1_455 S
O1169  S1182   1.494   .     D
O1170  S1182   1.494   .     D
O1171  S1182   1.675   .     S
O1172  Zn1184  1.998   .     S
O1173  Zn1183  1.998   .     S
O1174  Zn1183  1.935   .     S
O1174  C1210   1.304   .     S
O1175  Zn1184  1.935   .     S
O1175  C1260   1.304   1_455 S
O1176  Zn1184  1.888   .     S
O1177  Zn1183  1.888   .     S
O1178  S1179   1.495   .     D
C1185  O1246   1.294   .     A
C1185  C1208   1.415   .     S
C1186  C1188   1.442   .     S
C1186  O1251   1.310   .     A
C1186  O1323   1.304   .     S
C1187  C1193   1.391   .     A
C1187  C1210   1.446   .     S
C1187  C1191   1.393   .     A
C1188  C1194   1.392   .     A
C1188  C1192   1.395   .     A
C1189  H1226   1.084   .     S
C1189  C1198   1.401   .     A
C1189  C1191   1.384   .     A
C1190  H1227   1.084   .     S
C1190  C1199   1.401   .     A
C1190  C1192   1.383   .     A
C1191  H1225   1.079   .     S
C1192  H1224   1.084   .     S
C1193  C1195   1.399   .     A
C1193  H1223   1.077   .     S
C1194  H1222   1.078   .     S
C1194  C1197   1.398   .     A
C1195  C1200   1.420   .     A
C1195  C1198   1.415   .     A
C1196  C1209   1.418   .     S
C1196  O1247   1.305   .     A
C1196  O1316   1.289   .     S
C1197  C1201   1.422   .     A
C1197  C1199   1.418   .     A
C1198  C540    1.379   1_556 S
C1200  C1205   1.444   .     A
C1200  C535    1.446   1_556 S
C1201  C1204   1.448   .     A
C1202  H1214   1.115   .     S
C1202  H1215   1.102   .     S
C1203  H1218   1.107   .     S
C1203  H1216   1.111   .     S
C1203  O1238   1.415   .     S
C1203  H1291   1.113   .     S
C1204  C1206   1.389   .     A
C1204  S1253   1.800   .     S
C1205  S1254   1.798   .     S
C1205  C1207   1.387   .     A
C1206  H1211   1.086   .     S
C1207  H1221   1.084   .     S
C1207  C533    1.380   1_556 S
C1208  O1237   1.392   .     S
C1208  C691    1.347   1_565 S
C1209  O1238   1.387   .     S
C1210  O1250   1.312   .     A
H1212  O792    0.989   1_565 S
H1213  C758    1.110   1_565 S
H1219  O1241   0.991   .     S
H1220  O1245   0.991   .     S
H1228  O1233   0.990   .     S
N1229  S1255   1.733   .     S
N1229  N1230   1.281   .     D
N1229  Zn1258  2.051   .     S
N1230  S1256   1.730   .     S
N1230  Zn1257  2.051   .     S
O1231  Zn1257  2.000   .     S
O1231  C1259   1.300   .     S
O1232  S1253   1.502   .     D
O1233  S1253   1.683   .     S
O1234  S1254   1.498   .     D
O1235  S1254   1.500   .     D
O1236  S1254   1.680   .     S
O1237  C758    1.418   1_565 S
O1239  S1255   1.495   .     D
O1240  S1255   1.497   .     D
O1241  S1255   1.679   .     S
O1242  Zn1258  2.000   .     S
O1243  S1256   1.494   .     D
O1244  S1256   1.494   .     D
O1245  S1256   1.675   .     S
O1246  Zn1258  1.998   .     S
O1247  Zn1257  1.998   .     S
O1248  Zn1257  1.935   .     S
O1248  C1284   1.304   .     S
O1249  Zn1258  1.935   .     S
O1250  Zn1258  1.888   .     S
O1251  Zn1257  1.888   .     S
O1252  S1253   1.495   .     D
C1259  O1320   1.294   .     A
C1259  C1282   1.415   .     S
C1260  C1262   1.442   .     S
C1260  O1325   1.310   .     A
C1260  O1175   1.304   1_655 S
C1261  C1267   1.391   .     A
C1261  C1284   1.446   .     S
C1261  C1265   1.393   .     A
C1262  C1268   1.392   .     A
C1262  C1266   1.395   .     A
C1263  H1300   1.084   .     S
C1263  C1272   1.401   .     A
C1263  C1265   1.384   .     A
C1264  H1301   1.084   .     S
C1264  C1273   1.401   .     A
C1264  C1266   1.383   .     A
C1265  H1299   1.079   .     S
C1266  H1298   1.084   .     S
C1267  C1269   1.399   .     A
C1267  H1297   1.077   .     S
C1268  H1296   1.078   .     S
C1268  C1271   1.398   .     A
C1269  C1274   1.420   .     A
C1269  C1272   1.415   .     A
C1270  C1283   1.418   .     S
C1270  O1321   1.305   .     A
C1270  O1168   1.289   1_655 S
C1271  C1275   1.422   .     A
C1271  C1273   1.418   .     A
C1272  C614    1.379   1_556 S
C1274  C1279   1.444   .     A
C1274  C609    1.446   1_556 S
C1275  C1278   1.448   .     A
C1276  H1288   1.115   .     S
C1276  H1289   1.102   .     S
C1277  H1292   1.107   .     S
C1277  H1290   1.111   .     S
C1277  O1312   1.415   .     S
C1277  H1143   1.113   1_655 S
C1278  C1280   1.389   .     A
C1278  S1327   1.800   .     S
C1279  S1328   1.798   .     S
C1279  C1281   1.387   .     A
C1280  H1285   1.086   .     S
C1281  H1295   1.084   .     S
C1281  C607    1.380   1_556 S
C1282  O1311   1.392   .     S
C1282  C765    1.347   1_565 S
C1283  O1312   1.387   .     S
C1283  C912    1.347   1_655 S
C1284  O1324   1.312   .     A
H1286  O866    0.989   1_565 S
H1287  C832    1.110   1_565 S
H1293  O1315   0.991   .     S
H1294  O1319   0.991   .     S
H1302  O1307   0.990   .     S
N1303  S1329   1.733   .     S
N1303  N1304   1.281   .     D
N1303  Zn1332  2.051   .     S
N1304  S1330   1.730   .     S
N1304  Zn1331  2.051   .     S
O1305  Zn1331  2.000   .     S
O1305  C1111   1.300   1_655 S
O1306  S1327   1.502   .     D
O1307  S1327   1.683   .     S
O1308  S1328   1.498   .     D
O1309  S1328   1.500   .     D
O1310  S1328   1.680   .     S
O1311  C832    1.418   1_565 S
O1313  S1329   1.495   .     D
O1314  S1329   1.497   .     D
O1315  S1329   1.679   .     S
O1316  Zn1332  2.000   .     S
O1317  S1330   1.494   .     D
O1318  S1330   1.494   .     D
O1319  S1330   1.675   .     S
O1320  Zn1332  1.998   .     S
O1321  Zn1331  1.998   .     S
O1322  Zn1331  1.935   .     S
O1322  C1136   1.304   1_655 S
O1323  Zn1332  1.935   .     S
O1324  Zn1332  1.888   .     S
O1325  Zn1331  1.888   .     S
O1326  S1327   1.495   .     D
