data_str_m2_o1_o1_pcu_sym.52
_audit_creation_date              2020-01-03
_audit_creation_method            'Materials Studio'
_symmetry_space_group_name_H-M    'P1'
_symmetry_Int_Tables_number       1
_symmetry_cell_setting            triclinic
loop_
_symmetry_equiv_pos_as_xyz
  x,y,z
_cell_length_a                    31.6284
_cell_length_b                    30.4953
_cell_length_c                    28.6393
_cell_angle_alpha                 89.1412
_cell_angle_beta                  89.9482
_cell_angle_gamma                 89.9976
loop_
_atom_site_label
_atom_site_type_symbol
_atom_site_fract_x
_atom_site_fract_y
_atom_site_fract_z
_atom_site_U_iso_or_equiv
_atom_site_adp_type
_atom_site_occupancy
C1     C     0.05947   0.19025   0.16699   0.00000  Uiso   1.00
C2     C     0.49824   0.28822   0.30811   0.00000  Uiso   1.00
C3     C     0.49964   0.28819   0.02415   0.00000  Uiso   1.00
C4     C     0.49972   0.21179   0.30917   0.00000  Uiso   1.00
C5     C     0.24831   0.46176   0.02521   0.00000  Uiso   1.00
C6     C     0.24824   0.03822   0.30811   0.00000  Uiso   1.00
C7     C     0.24964   0.03819   0.02415   0.00000  Uiso   1.00
C8     C     0.24972   0.46179   0.30917   0.00000  Uiso   1.00
C9     C     0.38230   0.15140   0.12611   0.00000  Uiso   1.00
C10    C     0.10881   0.36056   0.20793   0.00000  Uiso   1.00
C11    C     0.10921   0.36238   0.12335   0.00000  Uiso   1.00
C12    C     0.44067   0.30944   0.16654   0.00000  Uiso   1.00
C13    C     0.39734   0.13233   0.20669   0.00000  Uiso   1.00
C14    C     0.10977   0.13842   0.20988   0.00000  Uiso   1.00
C15    C     0.39774   0.36788   0.12661   0.00000  Uiso   1.00
C16    C     0.38273   0.34932   0.20736   0.00000  Uiso   1.00
C17    C     0.10927   0.13979   0.12532   0.00000  Uiso   1.00
C18    C     0.13230   0.40140   0.12611   0.00000  Uiso   1.00
C19    C     0.35881   0.11056   0.20793   0.00000  Uiso   1.00
C20    C     0.35921   0.11238   0.12335   0.00000  Uiso   1.00
C21    C     0.14734   0.38233   0.20669   0.00000  Uiso   1.00
C22    C     0.35977   0.38842   0.20988   0.00000  Uiso   1.00
C23    C     0.44060   0.19063   0.16682   0.00000  Uiso   1.00
C24    C     0.14774   0.11787   0.12661   0.00000  Uiso   1.00
C25    C     0.13273   0.09932   0.20736   0.00000  Uiso   1.00
C26    C     0.35927   0.38979   0.12532   0.00000  Uiso   1.00
C27    C     0.09256   0.34419   0.16558   0.00000  Uiso   1.00
C28    C     0.40672   0.15793   0.16667   0.00000  Uiso   1.00
C29    C     0.40700   0.34238   0.16671   0.00000  Uiso   1.00
C30    C     0.09297   0.15625   0.16764   0.00000  Uiso   1.00
C31    C     0.34256   0.09419   0.16558   0.00000  Uiso   1.00
C32    C     0.15672   0.40793   0.16667   0.00000  Uiso   1.00
C33    C     0.15700   0.09238   0.16671   0.00000  Uiso   1.00
C34    C     0.05934   0.30990   0.16630   0.00000  Uiso   1.00
C35    C     0.34297   0.40625   0.16764   0.00000  Uiso   1.00
C36    C     0.30947   0.44025   0.16699   0.00000  Uiso   1.00
C37    C     0.19067   0.05944   0.16654   0.00000  Uiso   1.00
C38    C     0.19060   0.44063   0.16682   0.00000  Uiso   1.00
C39    C     0.30934   0.05990   0.16630   0.00000  Uiso   1.00
C40    C     0.49831   0.21176   0.02521   0.00000  Uiso   1.00
Cu41   Cu   -0.00000   0.25000   0.21355   0.00000  Uiso   1.00
Cu42   Cu    0.00000   0.25000   0.11978   0.00000  Uiso   1.00
Cu43   Cu    0.25000  -0.00000   0.21355   0.00000  Uiso   1.00
Cu44   Cu    0.25000  -0.00000   0.11978   0.00000  Uiso   1.00
H45    H     0.49553   0.18112   0.04389   0.00000  Uiso   1.00
H46    H     0.01598   0.39422   0.26893   0.00000  Uiso   1.00
H47    H     0.10326   0.26994   0.04304   0.00000  Uiso   1.00
H48    H     0.00138   0.10574   0.25305   0.00000  Uiso   1.00
H49    H     0.10495   0.23229   0.28824   0.00000  Uiso   1.00
H50    H     0.48534   0.39843   0.12884   0.00000  Uiso   1.00
H51    H     0.37487   0.23625   0.25079   0.00000  Uiso   1.00
H52    H     0.02975   0.09747   0.10890   0.00000  Uiso   1.00
H53    H     0.12388   0.01499   0.08428   0.00000  Uiso   1.00
H54    H     0.26598   0.14422   0.26893   0.00000  Uiso   1.00
H55    H     0.35326   0.01994   0.04303   0.00000  Uiso   1.00
H56    H     0.49543   0.31883   0.28941   0.00000  Uiso   1.00
H57    H     0.25138   0.35574   0.25306   0.00000  Uiso   1.00
H58    H     0.35495   0.48229   0.28824   0.00000  Uiso   1.00
H59    H     0.23534   0.14843   0.12885   0.00000  Uiso   1.00
H60    H     0.12487   0.48625   0.25078   0.00000  Uiso   1.00
H61    H     0.27975   0.34747   0.10889   0.00000  Uiso   1.00
H62    H     0.49968   0.31869   0.04226   0.00000  Uiso   1.00
H63    H     0.49989   0.18128   0.29105   0.00000  Uiso   1.00
H64    H     0.24553   0.43112   0.04389   0.00000  Uiso   1.00
H65    H     0.24543   0.06883   0.28941   0.00000  Uiso   1.00
H66    H     0.24968   0.06869   0.04226   0.00000  Uiso   1.00
H67    H     0.24989   0.43128   0.29105   0.00000  Uiso   1.00
H68    H     0.37388   0.26499   0.08429   0.00000  Uiso   1.00
N69    N    -0.00000   0.25000   0.28402   0.00000  Uiso   1.00
N70    N    -0.00000   0.25000   0.04931   0.00000  Uiso   1.00
N71    N     0.25000  -0.00000   0.28402   0.00000  Uiso   1.00
N72    N     0.25000  -0.00000   0.04931   0.00000  Uiso   1.00
O73    O     0.04508   0.20491   0.20625   0.00000  Uiso   1.00
O74    O     0.20491   0.04509   0.12709   0.00000  Uiso   1.00
O75    O     0.20491   0.04509   0.20625   0.00000  Uiso   1.00
O76    O     0.29508   0.45491   0.12709   0.00000  Uiso   1.00
O77    O     0.20491   0.45491   0.12709   0.00000  Uiso   1.00
O78    O     0.29508   0.04509   0.20625   0.00000  Uiso   1.00
O79    O     0.29508   0.04509   0.12709   0.00000  Uiso   1.00
O80    O     0.20491   0.45491   0.20625   0.00000  Uiso   1.00
O81    O     0.40553   0.19246   0.04614   0.00000  Uiso   1.00
O82    O     0.32974   0.18888   0.06299   0.00000  Uiso   1.00
O83    O     0.37505   0.24311   0.11017   0.00000  Uiso   1.00
O84    O     0.45491   0.29509   0.12709   0.00000  Uiso   1.00
O85    O     0.08081   0.32340   0.28665   0.00000  Uiso   1.00
O86    O     0.09381   0.40253   0.28839   0.00000  Uiso   1.00
O87    O     0.02775   0.37635   0.24340   0.00000  Uiso   1.00
O88    O     0.06885   0.35005   0.04356   0.00000  Uiso   1.00
O89    O     0.14594   0.35027   0.04005   0.00000  Uiso   1.00
O90    O     0.10994   0.28115   0.07447   0.00000  Uiso   1.00
O91    O     0.42934   0.15212   0.28990   0.00000  Uiso   1.00
O92    O     0.42592   0.07452   0.27030   0.00000  Uiso   1.00
O93    O     0.48389   0.12178   0.22978   0.00000  Uiso   1.00
O94    O     0.07050   0.15230   0.29011   0.00000  Uiso   1.00
O95    O     0.45491   0.29509   0.20625   0.00000  Uiso   1.00
O96    O     0.14762   0.15185   0.29226   0.00000  Uiso   1.00
O97    O     0.11129   0.22045   0.25698   0.00000  Uiso   1.00
O98    O     0.42939   0.34818   0.04329   0.00000  Uiso   1.00
O99    O     0.42714   0.42564   0.06290   0.00000  Uiso   1.00
O100   O     0.48465   0.37755   0.10270   0.00000  Uiso   1.00
O101   O     0.40638   0.30912   0.28755   0.00000  Uiso   1.00
O102   O     0.33050   0.31279   0.27152   0.00000  Uiso   1.00
O103   O     0.37524   0.25781   0.22457   0.00000  Uiso   1.00
O104   O     0.08160   0.17761   0.04704   0.00000  Uiso   1.00
O105   O     0.09419   0.09855   0.04403   0.00000  Uiso   1.00
O106   O     0.04508   0.20491   0.12709   0.00000  Uiso   1.00
O107   O     0.02826   0.12433   0.08909   0.00000  Uiso   1.00
O108   O     0.15553   0.44246   0.04614   0.00000  Uiso   1.00
O109   O     0.07974   0.43888   0.06299   0.00000  Uiso   1.00
O110   O     0.12505   0.49311   0.11017   0.00000  Uiso   1.00
O111   O     0.33081   0.07340   0.28665   0.00000  Uiso   1.00
O112   O     0.34381   0.15253   0.28839   0.00000  Uiso   1.00
O113   O     0.27775   0.12635   0.24340   0.00000  Uiso   1.00
O114   O     0.31885   0.10005   0.04356   0.00000  Uiso   1.00
O115   O     0.39594   0.10027   0.04005   0.00000  Uiso   1.00
O116   O     0.35994   0.03115   0.07447   0.00000  Uiso   1.00
O117   O     0.45491   0.20491   0.12709   0.00000  Uiso   1.00
O118   O     0.17934   0.40212   0.28990   0.00000  Uiso   1.00
O119   O     0.17592   0.32452   0.27030   0.00000  Uiso   1.00
O120   O     0.23389   0.37178   0.22978   0.00000  Uiso   1.00
O121   O     0.32050   0.40230   0.29011   0.00000  Uiso   1.00
O122   O     0.39762   0.40185   0.29226   0.00000  Uiso   1.00
O123   O     0.36129   0.47045   0.25698   0.00000  Uiso   1.00
O124   O     0.17939   0.09817   0.04329   0.00000  Uiso   1.00
O125   O     0.17714   0.17563   0.06290   0.00000  Uiso   1.00
O126   O     0.23465   0.12755   0.10270   0.00000  Uiso   1.00
O127   O     0.15638   0.05912   0.28755   0.00000  Uiso   1.00
O128   O     0.04508   0.29509   0.20625   0.00000  Uiso   1.00
O129   O     0.08050   0.06279   0.27152   0.00000  Uiso   1.00
O130   O     0.12524   0.00781   0.22457   0.00000  Uiso   1.00
O131   O     0.33160   0.42761   0.04704   0.00000  Uiso   1.00
O132   O     0.34419   0.34855   0.04403   0.00000  Uiso   1.00
O133   O     0.27827   0.37433   0.08909   0.00000  Uiso   1.00
O134   O     0.04508   0.29509   0.12709   0.00000  Uiso   1.00
O135   O     0.45491   0.20491   0.20625   0.00000  Uiso   1.00
O136   O     0.29508   0.45491   0.20625   0.00000  Uiso   1.00
S137   S     0.37288   0.19407   0.08415   0.00000  Uiso   1.00
S138   S     0.32801   0.11551   0.25906   0.00000  Uiso   1.00
S139   S     0.35829   0.08612   0.06854   0.00000  Uiso   1.00
S140   S     0.18436   0.36991   0.25125   0.00000  Uiso   1.00
S141   S     0.35965   0.41560   0.26416   0.00000  Uiso   1.00
S142   S     0.18491   0.13017   0.08203   0.00000  Uiso   1.00
S143   S     0.12344   0.05717   0.24994   0.00000  Uiso   1.00
S144   S     0.32865   0.38517   0.07406   0.00000  Uiso   1.00
S145   S     0.07801   0.36551   0.25906   0.00000  Uiso   1.00
S146   S     0.10829   0.33612   0.06854   0.00000  Uiso   1.00
S147   S     0.43436   0.11991   0.25125   0.00000  Uiso   1.00
S148   S     0.10965   0.16560   0.26416   0.00000  Uiso   1.00
S149   S     0.43491   0.38017   0.08203   0.00000  Uiso   1.00
S150   S     0.37344   0.30717   0.24994   0.00000  Uiso   1.00
S151   S     0.07865   0.13517   0.07406   0.00000  Uiso   1.00
S152   S     0.12288   0.44407   0.08415   0.00000  Uiso   1.00
C153   C     0.55947   0.19025   0.16699   0.00000  Uiso   1.00
C154   C     0.99824   0.28822   0.30811   0.00000  Uiso   1.00
C155   C     0.99964   0.28819   0.02415   0.00000  Uiso   1.00
C156   C     0.99972   0.21179   0.30917   0.00000  Uiso   1.00
C157   C     0.74831   0.46176   0.02521   0.00000  Uiso   1.00
C158   C     0.74824   0.03822   0.30811   0.00000  Uiso   1.00
C159   C     0.74964   0.03819   0.02415   0.00000  Uiso   1.00
C160   C     0.74972   0.46179   0.30917   0.00000  Uiso   1.00
C161   C     0.88230   0.15140   0.12611   0.00000  Uiso   1.00
C162   C     0.60881   0.36056   0.20793   0.00000  Uiso   1.00
C163   C     0.60921   0.36238   0.12335   0.00000  Uiso   1.00
C164   C     0.94067   0.30944   0.16654   0.00000  Uiso   1.00
C165   C     0.89734   0.13233   0.20669   0.00000  Uiso   1.00
C166   C     0.60977   0.13842   0.20988   0.00000  Uiso   1.00
C167   C     0.89774   0.36788   0.12661   0.00000  Uiso   1.00
C168   C     0.88273   0.34932   0.20736   0.00000  Uiso   1.00
C169   C     0.60927   0.13979   0.12532   0.00000  Uiso   1.00
C170   C     0.63230   0.40140   0.12611   0.00000  Uiso   1.00
C171   C     0.85881   0.11056   0.20793   0.00000  Uiso   1.00
C172   C     0.85921   0.11238   0.12335   0.00000  Uiso   1.00
C173   C     0.64734   0.38233   0.20669   0.00000  Uiso   1.00
C174   C     0.85977   0.38842   0.20988   0.00000  Uiso   1.00
C175   C     0.94060   0.19063   0.16682   0.00000  Uiso   1.00
C176   C     0.64774   0.11787   0.12661   0.00000  Uiso   1.00
C177   C     0.63273   0.09932   0.20736   0.00000  Uiso   1.00
C178   C     0.85927   0.38979   0.12532   0.00000  Uiso   1.00
C179   C     0.59256   0.34419   0.16558   0.00000  Uiso   1.00
C180   C     0.90672   0.15793   0.16667   0.00000  Uiso   1.00
C181   C     0.90700   0.34238   0.16671   0.00000  Uiso   1.00
C182   C     0.59297   0.15625   0.16764   0.00000  Uiso   1.00
C183   C     0.84256   0.09419   0.16558   0.00000  Uiso   1.00
C184   C     0.65672   0.40793   0.16667   0.00000  Uiso   1.00
C185   C     0.65700   0.09238   0.16671   0.00000  Uiso   1.00
C186   C     0.55934   0.30990   0.16630   0.00000  Uiso   1.00
C187   C     0.84297   0.40625   0.16764   0.00000  Uiso   1.00
C188   C     0.80947   0.44025   0.16699   0.00000  Uiso   1.00
C189   C     0.69067   0.05944   0.16654   0.00000  Uiso   1.00
C190   C     0.69060   0.44063   0.16682   0.00000  Uiso   1.00
C191   C     0.80934   0.05990   0.16630   0.00000  Uiso   1.00
C192   C     0.99831   0.21176   0.02521   0.00000  Uiso   1.00
Cu193  Cu    0.50000   0.25000   0.21355   0.00000  Uiso   1.00
Cu194  Cu    0.50000   0.25000   0.11978   0.00000  Uiso   1.00
Cu195  Cu    0.75000  -0.00000   0.21355   0.00000  Uiso   1.00
Cu196  Cu    0.75000  -0.00000   0.11978   0.00000  Uiso   1.00
H197   H     0.99553   0.18112   0.04389   0.00000  Uiso   1.00
H198   H     0.51598   0.39422   0.26893   0.00000  Uiso   1.00
H199   H     0.60326   0.26994   0.04304   0.00000  Uiso   1.00
H200   H     0.50138   0.10574   0.25305   0.00000  Uiso   1.00
H201   H     0.60495   0.23229   0.28824   0.00000  Uiso   1.00
H202   H     0.98534   0.39843   0.12884   0.00000  Uiso   1.00
H203   H     0.87487   0.23625   0.25079   0.00000  Uiso   1.00
H204   H     0.52975   0.09747   0.10890   0.00000  Uiso   1.00
H205   H     0.62388   0.01499   0.08428   0.00000  Uiso   1.00
H206   H     0.76598   0.14422   0.26893   0.00000  Uiso   1.00
H207   H     0.85326   0.01994   0.04303   0.00000  Uiso   1.00
H208   H     0.99543   0.31883   0.28941   0.00000  Uiso   1.00
H209   H     0.75138   0.35574   0.25306   0.00000  Uiso   1.00
H210   H     0.85495   0.48229   0.28824   0.00000  Uiso   1.00
H211   H     0.73534   0.14843   0.12885   0.00000  Uiso   1.00
H212   H     0.62487   0.48625   0.25078   0.00000  Uiso   1.00
H213   H     0.77975   0.34747   0.10889   0.00000  Uiso   1.00
H214   H     0.99968   0.31869   0.04226   0.00000  Uiso   1.00
H215   H     0.99989   0.18128   0.29105   0.00000  Uiso   1.00
H216   H     0.74553   0.43112   0.04389   0.00000  Uiso   1.00
H217   H     0.74543   0.06883   0.28941   0.00000  Uiso   1.00
H218   H     0.74968   0.06869   0.04226   0.00000  Uiso   1.00
H219   H     0.74989   0.43128   0.29105   0.00000  Uiso   1.00
H220   H     0.87388   0.26499   0.08429   0.00000  Uiso   1.00
N221   N     0.50000   0.25000   0.28402   0.00000  Uiso   1.00
N222   N     0.50000   0.25000   0.04931   0.00000  Uiso   1.00
N223   N     0.75000  -0.00000   0.28402   0.00000  Uiso   1.00
N224   N     0.75000  -0.00000   0.04931   0.00000  Uiso   1.00
O225   O     0.54508   0.20491   0.20625   0.00000  Uiso   1.00
O226   O     0.70491   0.04509   0.12709   0.00000  Uiso   1.00
O227   O     0.70491   0.04509   0.20625   0.00000  Uiso   1.00
O228   O     0.79508   0.45491   0.12709   0.00000  Uiso   1.00
O229   O     0.70491   0.45491   0.12709   0.00000  Uiso   1.00
O230   O     0.79508   0.04509   0.20625   0.00000  Uiso   1.00
O231   O     0.79508   0.04509   0.12709   0.00000  Uiso   1.00
O232   O     0.70491   0.45491   0.20625   0.00000  Uiso   1.00
O233   O     0.90553   0.19246   0.04614   0.00000  Uiso   1.00
O234   O     0.82974   0.18888   0.06299   0.00000  Uiso   1.00
O235   O     0.87505   0.24311   0.11017   0.00000  Uiso   1.00
O236   O     0.95491   0.29509   0.12709   0.00000  Uiso   1.00
O237   O     0.58081   0.32340   0.28665   0.00000  Uiso   1.00
O238   O     0.59381   0.40253   0.28839   0.00000  Uiso   1.00
O239   O     0.52775   0.37635   0.24340   0.00000  Uiso   1.00
O240   O     0.56885   0.35005   0.04356   0.00000  Uiso   1.00
O241   O     0.64594   0.35027   0.04005   0.00000  Uiso   1.00
O242   O     0.60994   0.28115   0.07447   0.00000  Uiso   1.00
O243   O     0.92934   0.15212   0.28990   0.00000  Uiso   1.00
O244   O     0.92592   0.07452   0.27030   0.00000  Uiso   1.00
O245   O     0.98389   0.12178   0.22978   0.00000  Uiso   1.00
O246   O     0.57050   0.15230   0.29011   0.00000  Uiso   1.00
O247   O     0.95491   0.29509   0.20625   0.00000  Uiso   1.00
O248   O     0.64762   0.15185   0.29226   0.00000  Uiso   1.00
O249   O     0.61129   0.22045   0.25698   0.00000  Uiso   1.00
O250   O     0.92939   0.34818   0.04329   0.00000  Uiso   1.00
O251   O     0.92714   0.42564   0.06290   0.00000  Uiso   1.00
O252   O     0.98465   0.37755   0.10270   0.00000  Uiso   1.00
O253   O     0.90638   0.30912   0.28755   0.00000  Uiso   1.00
O254   O     0.83050   0.31279   0.27152   0.00000  Uiso   1.00
O255   O     0.87524   0.25781   0.22457   0.00000  Uiso   1.00
O256   O     0.58160   0.17761   0.04704   0.00000  Uiso   1.00
O257   O     0.59419   0.09855   0.04403   0.00000  Uiso   1.00
O258   O     0.54508   0.20491   0.12709   0.00000  Uiso   1.00
O259   O     0.52826   0.12433   0.08909   0.00000  Uiso   1.00
O260   O     0.65553   0.44246   0.04614   0.00000  Uiso   1.00
O261   O     0.57974   0.43888   0.06299   0.00000  Uiso   1.00
O262   O     0.62505   0.49311   0.11017   0.00000  Uiso   1.00
O263   O     0.83081   0.07340   0.28665   0.00000  Uiso   1.00
O264   O     0.84381   0.15253   0.28839   0.00000  Uiso   1.00
O265   O     0.77775   0.12635   0.24340   0.00000  Uiso   1.00
O266   O     0.81885   0.10005   0.04356   0.00000  Uiso   1.00
O267   O     0.89594   0.10027   0.04005   0.00000  Uiso   1.00
O268   O     0.85994   0.03115   0.07447   0.00000  Uiso   1.00
O269   O     0.95491   0.20491   0.12709   0.00000  Uiso   1.00
O270   O     0.67934   0.40212   0.28990   0.00000  Uiso   1.00
O271   O     0.67592   0.32452   0.27030   0.00000  Uiso   1.00
O272   O     0.73389   0.37178   0.22978   0.00000  Uiso   1.00
O273   O     0.82050   0.40230   0.29011   0.00000  Uiso   1.00
O274   O     0.89762   0.40185   0.29226   0.00000  Uiso   1.00
O275   O     0.86129   0.47045   0.25698   0.00000  Uiso   1.00
O276   O     0.67939   0.09817   0.04329   0.00000  Uiso   1.00
O277   O     0.67714   0.17563   0.06290   0.00000  Uiso   1.00
O278   O     0.73465   0.12755   0.10270   0.00000  Uiso   1.00
O279   O     0.65638   0.05912   0.28755   0.00000  Uiso   1.00
O280   O     0.54508   0.29509   0.20625   0.00000  Uiso   1.00
O281   O     0.58050   0.06279   0.27152   0.00000  Uiso   1.00
O282   O     0.62524   0.00781   0.22457   0.00000  Uiso   1.00
O283   O     0.83160   0.42761   0.04704   0.00000  Uiso   1.00
O284   O     0.84419   0.34855   0.04403   0.00000  Uiso   1.00
O285   O     0.77827   0.37433   0.08909   0.00000  Uiso   1.00
O286   O     0.54508   0.29509   0.12709   0.00000  Uiso   1.00
O287   O     0.95491   0.20491   0.20625   0.00000  Uiso   1.00
O288   O     0.79508   0.45491   0.20625   0.00000  Uiso   1.00
S289   S     0.87288   0.19407   0.08415   0.00000  Uiso   1.00
S290   S     0.82801   0.11551   0.25906   0.00000  Uiso   1.00
S291   S     0.85829   0.08612   0.06854   0.00000  Uiso   1.00
S292   S     0.68436   0.36991   0.25125   0.00000  Uiso   1.00
S293   S     0.85965   0.41560   0.26416   0.00000  Uiso   1.00
S294   S     0.68491   0.13017   0.08203   0.00000  Uiso   1.00
S295   S     0.62344   0.05717   0.24994   0.00000  Uiso   1.00
S296   S     0.82865   0.38517   0.07406   0.00000  Uiso   1.00
S297   S     0.57801   0.36551   0.25906   0.00000  Uiso   1.00
S298   S     0.60829   0.33612   0.06854   0.00000  Uiso   1.00
S299   S     0.93436   0.11991   0.25125   0.00000  Uiso   1.00
S300   S     0.60965   0.16560   0.26416   0.00000  Uiso   1.00
S301   S     0.93491   0.38017   0.08203   0.00000  Uiso   1.00
S302   S     0.87344   0.30717   0.24994   0.00000  Uiso   1.00
S303   S     0.57865   0.13517   0.07406   0.00000  Uiso   1.00
S304   S     0.62288   0.44407   0.08415   0.00000  Uiso   1.00
C305   C     0.05947   0.69025   0.16699   0.00000  Uiso   1.00
C306   C     0.49824   0.78822   0.30811   0.00000  Uiso   1.00
C307   C     0.49964   0.78819   0.02415   0.00000  Uiso   1.00
C308   C     0.49972   0.71179   0.30917   0.00000  Uiso   1.00
C309   C     0.24831   0.96176   0.02521   0.00000  Uiso   1.00
C310   C     0.24824   0.53822   0.30811   0.00000  Uiso   1.00
C311   C     0.24964   0.53819   0.02415   0.00000  Uiso   1.00
C312   C     0.24972   0.96179   0.30917   0.00000  Uiso   1.00
C313   C     0.38230   0.65140   0.12611   0.00000  Uiso   1.00
C314   C     0.10881   0.86056   0.20793   0.00000  Uiso   1.00
C315   C     0.10921   0.86238   0.12335   0.00000  Uiso   1.00
C316   C     0.44067   0.80944   0.16654   0.00000  Uiso   1.00
C317   C     0.39734   0.63233   0.20669   0.00000  Uiso   1.00
C318   C     0.10977   0.63842   0.20988   0.00000  Uiso   1.00
C319   C     0.39774   0.86788   0.12661   0.00000  Uiso   1.00
C320   C     0.38273   0.84932   0.20736   0.00000  Uiso   1.00
C321   C     0.10927   0.63979   0.12532   0.00000  Uiso   1.00
C322   C     0.13230   0.90140   0.12611   0.00000  Uiso   1.00
C323   C     0.35881   0.61056   0.20793   0.00000  Uiso   1.00
C324   C     0.35921   0.61238   0.12335   0.00000  Uiso   1.00
C325   C     0.14734   0.88233   0.20669   0.00000  Uiso   1.00
C326   C     0.35977   0.88842   0.20988   0.00000  Uiso   1.00
C327   C     0.44060   0.69063   0.16682   0.00000  Uiso   1.00
C328   C     0.14774   0.61787   0.12661   0.00000  Uiso   1.00
C329   C     0.13273   0.59932   0.20736   0.00000  Uiso   1.00
C330   C     0.35927   0.88979   0.12532   0.00000  Uiso   1.00
C331   C     0.09256   0.84419   0.16558   0.00000  Uiso   1.00
C332   C     0.40672   0.65793   0.16667   0.00000  Uiso   1.00
C333   C     0.40700   0.84238   0.16671   0.00000  Uiso   1.00
C334   C     0.09297   0.65625   0.16764   0.00000  Uiso   1.00
C335   C     0.34256   0.59419   0.16558   0.00000  Uiso   1.00
C336   C     0.15672   0.90793   0.16667   0.00000  Uiso   1.00
C337   C     0.15700   0.59238   0.16671   0.00000  Uiso   1.00
C338   C     0.05934   0.80990   0.16630   0.00000  Uiso   1.00
C339   C     0.34297   0.90625   0.16764   0.00000  Uiso   1.00
C340   C     0.30947   0.94025   0.16699   0.00000  Uiso   1.00
C341   C     0.19067   0.55944   0.16654   0.00000  Uiso   1.00
C342   C     0.19060   0.94063   0.16682   0.00000  Uiso   1.00
C343   C     0.30934   0.55990   0.16630   0.00000  Uiso   1.00
C344   C     0.49831   0.71176   0.02521   0.00000  Uiso   1.00
Cu345  Cu   -0.00000   0.75000   0.21355   0.00000  Uiso   1.00
Cu346  Cu    0.00000   0.75000   0.11978   0.00000  Uiso   1.00
Cu347  Cu    0.25000   0.50000   0.21355   0.00000  Uiso   1.00
Cu348  Cu    0.25000   0.50000   0.11978   0.00000  Uiso   1.00
H349   H     0.49553   0.68112   0.04389   0.00000  Uiso   1.00
H350   H     0.01598   0.89422   0.26893   0.00000  Uiso   1.00
H351   H     0.10326   0.76994   0.04304   0.00000  Uiso   1.00
H352   H     0.00138   0.60574   0.25305   0.00000  Uiso   1.00
H353   H     0.10495   0.73229   0.28824   0.00000  Uiso   1.00
H354   H     0.48534   0.89843   0.12884   0.00000  Uiso   1.00
H355   H     0.37487   0.73625   0.25079   0.00000  Uiso   1.00
H356   H     0.02975   0.59747   0.10890   0.00000  Uiso   1.00
H357   H     0.12388   0.51499   0.08428   0.00000  Uiso   1.00
H358   H     0.26598   0.64422   0.26893   0.00000  Uiso   1.00
H359   H     0.35326   0.51994   0.04303   0.00000  Uiso   1.00
H360   H     0.49543   0.81883   0.28941   0.00000  Uiso   1.00
H361   H     0.25138   0.85574   0.25306   0.00000  Uiso   1.00
H362   H     0.35495   0.98229   0.28824   0.00000  Uiso   1.00
H363   H     0.23534   0.64843   0.12885   0.00000  Uiso   1.00
H364   H     0.12487   0.98625   0.25078   0.00000  Uiso   1.00
H365   H     0.27975   0.84747   0.10889   0.00000  Uiso   1.00
H366   H     0.49968   0.81869   0.04226   0.00000  Uiso   1.00
H367   H     0.49989   0.68128   0.29105   0.00000  Uiso   1.00
H368   H     0.24553   0.93112   0.04389   0.00000  Uiso   1.00
H369   H     0.24543   0.56883   0.28941   0.00000  Uiso   1.00
H370   H     0.24968   0.56869   0.04226   0.00000  Uiso   1.00
H371   H     0.24989   0.93128   0.29105   0.00000  Uiso   1.00
H372   H     0.37388   0.76499   0.08429   0.00000  Uiso   1.00
N373   N    -0.00000   0.75000   0.28402   0.00000  Uiso   1.00
N374   N    -0.00000   0.75000   0.04931   0.00000  Uiso   1.00
N375   N     0.25000   0.50000   0.28402   0.00000  Uiso   1.00
N376   N     0.25000   0.50000   0.04931   0.00000  Uiso   1.00
O377   O     0.04508   0.70491   0.20625   0.00000  Uiso   1.00
O378   O     0.20491   0.54509   0.12709   0.00000  Uiso   1.00
O379   O     0.20491   0.54509   0.20625   0.00000  Uiso   1.00
O380   O     0.29508   0.95491   0.12709   0.00000  Uiso   1.00
O381   O     0.20491   0.95491   0.12709   0.00000  Uiso   1.00
O382   O     0.29508   0.54509   0.20625   0.00000  Uiso   1.00
O383   O     0.29508   0.54509   0.12709   0.00000  Uiso   1.00
O384   O     0.20491   0.95491   0.20625   0.00000  Uiso   1.00
O385   O     0.40553   0.69246   0.04614   0.00000  Uiso   1.00
O386   O     0.32974   0.68888   0.06299   0.00000  Uiso   1.00
O387   O     0.37505   0.74311   0.11017   0.00000  Uiso   1.00
O388   O     0.45491   0.79509   0.12709   0.00000  Uiso   1.00
O389   O     0.08081   0.82340   0.28665   0.00000  Uiso   1.00
O390   O     0.09381   0.90253   0.28839   0.00000  Uiso   1.00
O391   O     0.02775   0.87635   0.24340   0.00000  Uiso   1.00
O392   O     0.06885   0.85005   0.04356   0.00000  Uiso   1.00
O393   O     0.14594   0.85027   0.04005   0.00000  Uiso   1.00
O394   O     0.10994   0.78115   0.07447   0.00000  Uiso   1.00
O395   O     0.42934   0.65212   0.28990   0.00000  Uiso   1.00
O396   O     0.42592   0.57452   0.27030   0.00000  Uiso   1.00
O397   O     0.48389   0.62178   0.22978   0.00000  Uiso   1.00
O398   O     0.07050   0.65230   0.29011   0.00000  Uiso   1.00
O399   O     0.45491   0.79509   0.20625   0.00000  Uiso   1.00
O400   O     0.14762   0.65185   0.29226   0.00000  Uiso   1.00
O401   O     0.11129   0.72045   0.25698   0.00000  Uiso   1.00
O402   O     0.42939   0.84818   0.04329   0.00000  Uiso   1.00
O403   O     0.42714   0.92564   0.06290   0.00000  Uiso   1.00
O404   O     0.48465   0.87755   0.10270   0.00000  Uiso   1.00
O405   O     0.40638   0.80912   0.28755   0.00000  Uiso   1.00
O406   O     0.33050   0.81279   0.27152   0.00000  Uiso   1.00
O407   O     0.37524   0.75781   0.22457   0.00000  Uiso   1.00
O408   O     0.08160   0.67761   0.04704   0.00000  Uiso   1.00
O409   O     0.09419   0.59855   0.04403   0.00000  Uiso   1.00
O410   O     0.04508   0.70491   0.12709   0.00000  Uiso   1.00
O411   O     0.02826   0.62433   0.08909   0.00000  Uiso   1.00
O412   O     0.15553   0.94246   0.04614   0.00000  Uiso   1.00
O413   O     0.07974   0.93888   0.06299   0.00000  Uiso   1.00
O414   O     0.12505   0.99311   0.11017   0.00000  Uiso   1.00
O415   O     0.33081   0.57340   0.28665   0.00000  Uiso   1.00
O416   O     0.34381   0.65253   0.28839   0.00000  Uiso   1.00
O417   O     0.27775   0.62635   0.24340   0.00000  Uiso   1.00
O418   O     0.31885   0.60005   0.04356   0.00000  Uiso   1.00
O419   O     0.39594   0.60027   0.04005   0.00000  Uiso   1.00
O420   O     0.35994   0.53115   0.07447   0.00000  Uiso   1.00
O421   O     0.45491   0.70491   0.12709   0.00000  Uiso   1.00
O422   O     0.17934   0.90212   0.28990   0.00000  Uiso   1.00
O423   O     0.17592   0.82452   0.27030   0.00000  Uiso   1.00
O424   O     0.23389   0.87178   0.22978   0.00000  Uiso   1.00
O425   O     0.32050   0.90230   0.29011   0.00000  Uiso   1.00
O426   O     0.39762   0.90185   0.29226   0.00000  Uiso   1.00
O427   O     0.36129   0.97045   0.25698   0.00000  Uiso   1.00
O428   O     0.17939   0.59817   0.04329   0.00000  Uiso   1.00
O429   O     0.17714   0.67563   0.06290   0.00000  Uiso   1.00
O430   O     0.23465   0.62755   0.10270   0.00000  Uiso   1.00
O431   O     0.15638   0.55912   0.28755   0.00000  Uiso   1.00
O432   O     0.04508   0.79509   0.20625   0.00000  Uiso   1.00
O433   O     0.08050   0.56279   0.27152   0.00000  Uiso   1.00
O434   O     0.12524   0.50781   0.22457   0.00000  Uiso   1.00
O435   O     0.33160   0.92761   0.04704   0.00000  Uiso   1.00
O436   O     0.34419   0.84855   0.04403   0.00000  Uiso   1.00
O437   O     0.27827   0.87433   0.08909   0.00000  Uiso   1.00
O438   O     0.04508   0.79509   0.12709   0.00000  Uiso   1.00
O439   O     0.45491   0.70491   0.20625   0.00000  Uiso   1.00
O440   O     0.29508   0.95491   0.20625   0.00000  Uiso   1.00
S441   S     0.37288   0.69407   0.08415   0.00000  Uiso   1.00
S442   S     0.32801   0.61551   0.25906   0.00000  Uiso   1.00
S443   S     0.35829   0.58612   0.06854   0.00000  Uiso   1.00
S444   S     0.18436   0.86991   0.25125   0.00000  Uiso   1.00
S445   S     0.35965   0.91560   0.26416   0.00000  Uiso   1.00
S446   S     0.18491   0.63017   0.08203   0.00000  Uiso   1.00
S447   S     0.12344   0.55717   0.24994   0.00000  Uiso   1.00
S448   S     0.32865   0.88517   0.07406   0.00000  Uiso   1.00
S449   S     0.07801   0.86551   0.25906   0.00000  Uiso   1.00
S450   S     0.10829   0.83612   0.06854   0.00000  Uiso   1.00
S451   S     0.43436   0.61991   0.25125   0.00000  Uiso   1.00
S452   S     0.10965   0.66560   0.26416   0.00000  Uiso   1.00
S453   S     0.43491   0.88017   0.08203   0.00000  Uiso   1.00
S454   S     0.37344   0.80717   0.24994   0.00000  Uiso   1.00
S455   S     0.07865   0.63517   0.07406   0.00000  Uiso   1.00
S456   S     0.12288   0.94407   0.08415   0.00000  Uiso   1.00
C457   C     0.55947   0.69025   0.16699   0.00000  Uiso   1.00
C458   C     0.99824   0.78822   0.30811   0.00000  Uiso   1.00
C459   C     0.99964   0.78819   0.02415   0.00000  Uiso   1.00
C460   C     0.99972   0.71179   0.30917   0.00000  Uiso   1.00
C461   C     0.74831   0.96176   0.02521   0.00000  Uiso   1.00
C462   C     0.74824   0.53822   0.30811   0.00000  Uiso   1.00
C463   C     0.74964   0.53819   0.02415   0.00000  Uiso   1.00
C464   C     0.74972   0.96179   0.30917   0.00000  Uiso   1.00
C465   C     0.88230   0.65140   0.12611   0.00000  Uiso   1.00
C466   C     0.60881   0.86056   0.20793   0.00000  Uiso   1.00
C467   C     0.60921   0.86238   0.12335   0.00000  Uiso   1.00
C468   C     0.94067   0.80944   0.16654   0.00000  Uiso   1.00
C469   C     0.89734   0.63233   0.20669   0.00000  Uiso   1.00
C470   C     0.60977   0.63842   0.20988   0.00000  Uiso   1.00
C471   C     0.89774   0.86788   0.12661   0.00000  Uiso   1.00
C472   C     0.88273   0.84932   0.20736   0.00000  Uiso   1.00
C473   C     0.60927   0.63979   0.12532   0.00000  Uiso   1.00
C474   C     0.63230   0.90140   0.12611   0.00000  Uiso   1.00
C475   C     0.85881   0.61056   0.20793   0.00000  Uiso   1.00
C476   C     0.85921   0.61238   0.12335   0.00000  Uiso   1.00
C477   C     0.64734   0.88233   0.20669   0.00000  Uiso   1.00
C478   C     0.85977   0.88842   0.20988   0.00000  Uiso   1.00
C479   C     0.94060   0.69063   0.16682   0.00000  Uiso   1.00
C480   C     0.64774   0.61787   0.12661   0.00000  Uiso   1.00
C481   C     0.63273   0.59932   0.20736   0.00000  Uiso   1.00
C482   C     0.85927   0.88979   0.12532   0.00000  Uiso   1.00
C483   C     0.59256   0.84419   0.16558   0.00000  Uiso   1.00
C484   C     0.90672   0.65793   0.16667   0.00000  Uiso   1.00
C485   C     0.90700   0.84238   0.16671   0.00000  Uiso   1.00
C486   C     0.59297   0.65625   0.16764   0.00000  Uiso   1.00
C487   C     0.84256   0.59419   0.16558   0.00000  Uiso   1.00
C488   C     0.65672   0.90793   0.16667   0.00000  Uiso   1.00
C489   C     0.65700   0.59238   0.16671   0.00000  Uiso   1.00
C490   C     0.55934   0.80990   0.16630   0.00000  Uiso   1.00
C491   C     0.84297   0.90625   0.16764   0.00000  Uiso   1.00
C492   C     0.80947   0.94025   0.16699   0.00000  Uiso   1.00
C493   C     0.69067   0.55944   0.16654   0.00000  Uiso   1.00
C494   C     0.69060   0.94063   0.16682   0.00000  Uiso   1.00
C495   C     0.80934   0.55990   0.16630   0.00000  Uiso   1.00
C496   C     0.99831   0.71176   0.02521   0.00000  Uiso   1.00
Cu497  Cu    0.50000   0.75000   0.21355   0.00000  Uiso   1.00
Cu498  Cu    0.50000   0.75000   0.11978   0.00000  Uiso   1.00
Cu499  Cu    0.75000   0.50000   0.21355   0.00000  Uiso   1.00
Cu500  Cu    0.75000   0.50000   0.11978   0.00000  Uiso   1.00
H501   H     0.99553   0.68112   0.04389   0.00000  Uiso   1.00
H502   H     0.51598   0.89422   0.26893   0.00000  Uiso   1.00
H503   H     0.60326   0.76994   0.04304   0.00000  Uiso   1.00
H504   H     0.50138   0.60574   0.25305   0.00000  Uiso   1.00
H505   H     0.60495   0.73229   0.28824   0.00000  Uiso   1.00
H506   H     0.98534   0.89843   0.12884   0.00000  Uiso   1.00
H507   H     0.87487   0.73625   0.25079   0.00000  Uiso   1.00
H508   H     0.52975   0.59747   0.10890   0.00000  Uiso   1.00
H509   H     0.62388   0.51499   0.08428   0.00000  Uiso   1.00
H510   H     0.76598   0.64422   0.26893   0.00000  Uiso   1.00
H511   H     0.85326   0.51994   0.04303   0.00000  Uiso   1.00
H512   H     0.99543   0.81883   0.28941   0.00000  Uiso   1.00
H513   H     0.75138   0.85574   0.25306   0.00000  Uiso   1.00
H514   H     0.85495   0.98229   0.28824   0.00000  Uiso   1.00
H515   H     0.73534   0.64843   0.12885   0.00000  Uiso   1.00
H516   H     0.62487   0.98625   0.25078   0.00000  Uiso   1.00
H517   H     0.77975   0.84747   0.10889   0.00000  Uiso   1.00
H518   H     0.99968   0.81869   0.04226   0.00000  Uiso   1.00
H519   H     0.99989   0.68128   0.29105   0.00000  Uiso   1.00
H520   H     0.74553   0.93112   0.04389   0.00000  Uiso   1.00
H521   H     0.74543   0.56883   0.28941   0.00000  Uiso   1.00
H522   H     0.74968   0.56869   0.04226   0.00000  Uiso   1.00
H523   H     0.74989   0.93128   0.29105   0.00000  Uiso   1.00
H524   H     0.87388   0.76499   0.08429   0.00000  Uiso   1.00
N525   N     0.50000   0.75000   0.28402   0.00000  Uiso   1.00
N526   N     0.50000   0.75000   0.04931   0.00000  Uiso   1.00
N527   N     0.75000   0.50000   0.28402   0.00000  Uiso   1.00
N528   N     0.75000   0.50000   0.04931   0.00000  Uiso   1.00
O529   O     0.54508   0.70491   0.20625   0.00000  Uiso   1.00
O530   O     0.70491   0.54509   0.12709   0.00000  Uiso   1.00
O531   O     0.70491   0.54509   0.20625   0.00000  Uiso   1.00
O532   O     0.79508   0.95491   0.12709   0.00000  Uiso   1.00
O533   O     0.70491   0.95491   0.12709   0.00000  Uiso   1.00
O534   O     0.79508   0.54509   0.20625   0.00000  Uiso   1.00
O535   O     0.79508   0.54509   0.12709   0.00000  Uiso   1.00
O536   O     0.70491   0.95491   0.20625   0.00000  Uiso   1.00
O537   O     0.90553   0.69246   0.04614   0.00000  Uiso   1.00
O538   O     0.82974   0.68888   0.06299   0.00000  Uiso   1.00
O539   O     0.87505   0.74311   0.11017   0.00000  Uiso   1.00
O540   O     0.95491   0.79509   0.12709   0.00000  Uiso   1.00
O541   O     0.58081   0.82340   0.28665   0.00000  Uiso   1.00
O542   O     0.59381   0.90253   0.28839   0.00000  Uiso   1.00
O543   O     0.52775   0.87635   0.24340   0.00000  Uiso   1.00
O544   O     0.56885   0.85005   0.04356   0.00000  Uiso   1.00
O545   O     0.64594   0.85027   0.04005   0.00000  Uiso   1.00
O546   O     0.60994   0.78115   0.07447   0.00000  Uiso   1.00
O547   O     0.92934   0.65212   0.28990   0.00000  Uiso   1.00
O548   O     0.92592   0.57452   0.27030   0.00000  Uiso   1.00
O549   O     0.98389   0.62178   0.22978   0.00000  Uiso   1.00
O550   O     0.57050   0.65230   0.29011   0.00000  Uiso   1.00
O551   O     0.95491   0.79509   0.20625   0.00000  Uiso   1.00
O552   O     0.64762   0.65185   0.29226   0.00000  Uiso   1.00
O553   O     0.61129   0.72045   0.25698   0.00000  Uiso   1.00
O554   O     0.92939   0.84818   0.04329   0.00000  Uiso   1.00
O555   O     0.92714   0.92564   0.06290   0.00000  Uiso   1.00
O556   O     0.98465   0.87755   0.10270   0.00000  Uiso   1.00
O557   O     0.90638   0.80912   0.28755   0.00000  Uiso   1.00
O558   O     0.83050   0.81279   0.27152   0.00000  Uiso   1.00
O559   O     0.87524   0.75781   0.22457   0.00000  Uiso   1.00
O560   O     0.58160   0.67761   0.04704   0.00000  Uiso   1.00
O561   O     0.59419   0.59855   0.04403   0.00000  Uiso   1.00
O562   O     0.54508   0.70491   0.12709   0.00000  Uiso   1.00
O563   O     0.52826   0.62433   0.08909   0.00000  Uiso   1.00
O564   O     0.65553   0.94246   0.04614   0.00000  Uiso   1.00
O565   O     0.57974   0.93888   0.06299   0.00000  Uiso   1.00
O566   O     0.62505   0.99311   0.11017   0.00000  Uiso   1.00
O567   O     0.83081   0.57340   0.28665   0.00000  Uiso   1.00
O568   O     0.84381   0.65253   0.28839   0.00000  Uiso   1.00
O569   O     0.77775   0.62635   0.24340   0.00000  Uiso   1.00
O570   O     0.81885   0.60005   0.04356   0.00000  Uiso   1.00
O571   O     0.89594   0.60027   0.04005   0.00000  Uiso   1.00
O572   O     0.85994   0.53115   0.07447   0.00000  Uiso   1.00
O573   O     0.95491   0.70491   0.12709   0.00000  Uiso   1.00
O574   O     0.67934   0.90212   0.28990   0.00000  Uiso   1.00
O575   O     0.67592   0.82452   0.27030   0.00000  Uiso   1.00
O576   O     0.73389   0.87178   0.22978   0.00000  Uiso   1.00
O577   O     0.82050   0.90230   0.29011   0.00000  Uiso   1.00
O578   O     0.89762   0.90185   0.29226   0.00000  Uiso   1.00
O579   O     0.86129   0.97045   0.25698   0.00000  Uiso   1.00
O580   O     0.67939   0.59817   0.04329   0.00000  Uiso   1.00
O581   O     0.67714   0.67563   0.06290   0.00000  Uiso   1.00
O582   O     0.73465   0.62755   0.10270   0.00000  Uiso   1.00
O583   O     0.65638   0.55912   0.28755   0.00000  Uiso   1.00
O584   O     0.54508   0.79509   0.20625   0.00000  Uiso   1.00
O585   O     0.58050   0.56279   0.27152   0.00000  Uiso   1.00
O586   O     0.62524   0.50781   0.22457   0.00000  Uiso   1.00
O587   O     0.83160   0.92761   0.04704   0.00000  Uiso   1.00
O588   O     0.84419   0.84855   0.04403   0.00000  Uiso   1.00
O589   O     0.77827   0.87433   0.08909   0.00000  Uiso   1.00
O590   O     0.54508   0.79509   0.12709   0.00000  Uiso   1.00
O591   O     0.95491   0.70491   0.20625   0.00000  Uiso   1.00
O592   O     0.79508   0.95491   0.20625   0.00000  Uiso   1.00
S593   S     0.87288   0.69407   0.08415   0.00000  Uiso   1.00
S594   S     0.82801   0.61551   0.25906   0.00000  Uiso   1.00
S595   S     0.85829   0.58612   0.06854   0.00000  Uiso   1.00
S596   S     0.68436   0.86991   0.25125   0.00000  Uiso   1.00
S597   S     0.85965   0.91560   0.26416   0.00000  Uiso   1.00
S598   S     0.68491   0.63017   0.08203   0.00000  Uiso   1.00
S599   S     0.62344   0.55717   0.24994   0.00000  Uiso   1.00
S600   S     0.82865   0.88517   0.07406   0.00000  Uiso   1.00
S601   S     0.57801   0.86551   0.25906   0.00000  Uiso   1.00
S602   S     0.60829   0.83612   0.06854   0.00000  Uiso   1.00
S603   S     0.93436   0.61991   0.25125   0.00000  Uiso   1.00
S604   S     0.60965   0.66560   0.26416   0.00000  Uiso   1.00
S605   S     0.93491   0.88017   0.08203   0.00000  Uiso   1.00
S606   S     0.87344   0.80717   0.24994   0.00000  Uiso   1.00
S607   S     0.57865   0.63517   0.07406   0.00000  Uiso   1.00
S608   S     0.62288   0.94407   0.08415   0.00000  Uiso   1.00
C609   C     0.05947   0.19025   0.50033   0.00000  Uiso   1.00
C610   C     0.49824   0.28822   0.64145   0.00000  Uiso   1.00
C611   C     0.49964   0.28819   0.35749   0.00000  Uiso   1.00
C612   C     0.49972   0.21179   0.64250   0.00000  Uiso   1.00
C613   C     0.24831   0.46176   0.35855   0.00000  Uiso   1.00
C614   C     0.24824   0.03822   0.64145   0.00000  Uiso   1.00
C615   C     0.24964   0.03819   0.35749   0.00000  Uiso   1.00
C616   C     0.24972   0.46179   0.64250   0.00000  Uiso   1.00
C617   C     0.38230   0.15140   0.45945   0.00000  Uiso   1.00
C618   C     0.10881   0.36056   0.54126   0.00000  Uiso   1.00
C619   C     0.10921   0.36238   0.45668   0.00000  Uiso   1.00
C620   C     0.44067   0.30944   0.49988   0.00000  Uiso   1.00
C621   C     0.39734   0.13233   0.54002   0.00000  Uiso   1.00
C622   C     0.10977   0.13842   0.54322   0.00000  Uiso   1.00
C623   C     0.39774   0.36788   0.45994   0.00000  Uiso   1.00
C624   C     0.38273   0.34932   0.54069   0.00000  Uiso   1.00
C625   C     0.10927   0.13979   0.45866   0.00000  Uiso   1.00
C626   C     0.13230   0.40140   0.45945   0.00000  Uiso   1.00
C627   C     0.35881   0.11056   0.54126   0.00000  Uiso   1.00
C628   C     0.35921   0.11238   0.45668   0.00000  Uiso   1.00
C629   C     0.14734   0.38233   0.54002   0.00000  Uiso   1.00
C630   C     0.35977   0.38842   0.54322   0.00000  Uiso   1.00
C631   C     0.44060   0.19063   0.50015   0.00000  Uiso   1.00
C632   C     0.14774   0.11787   0.45994   0.00000  Uiso   1.00
C633   C     0.13273   0.09932   0.54069   0.00000  Uiso   1.00
C634   C     0.35927   0.38979   0.45866   0.00000  Uiso   1.00
C635   C     0.09256   0.34419   0.49891   0.00000  Uiso   1.00
C636   C     0.40672   0.15793   0.50001   0.00000  Uiso   1.00
C637   C     0.40700   0.34238   0.50004   0.00000  Uiso   1.00
C638   C     0.09297   0.15625   0.50097   0.00000  Uiso   1.00
C639   C     0.34256   0.09419   0.49891   0.00000  Uiso   1.00
C640   C     0.15672   0.40793   0.50001   0.00000  Uiso   1.00
C641   C     0.15700   0.09238   0.50004   0.00000  Uiso   1.00
C642   C     0.05934   0.30990   0.49963   0.00000  Uiso   1.00
C643   C     0.34297   0.40625   0.50097   0.00000  Uiso   1.00
C644   C     0.30947   0.44025   0.50033   0.00000  Uiso   1.00
C645   C     0.19067   0.05944   0.49988   0.00000  Uiso   1.00
C646   C     0.19060   0.44063   0.50015   0.00000  Uiso   1.00
C647   C     0.30934   0.05990   0.49963   0.00000  Uiso   1.00
C648   C     0.49831   0.21176   0.35855   0.00000  Uiso   1.00
Cu649  Cu   -0.00000   0.25000   0.54689   0.00000  Uiso   1.00
Cu650  Cu    0.00000   0.25000   0.45311   0.00000  Uiso   1.00
Cu651  Cu    0.25000  -0.00000   0.54689   0.00000  Uiso   1.00
Cu652  Cu    0.25000  -0.00000   0.45311   0.00000  Uiso   1.00
H653   H     0.49553   0.18112   0.37722   0.00000  Uiso   1.00
H654   H     0.01598   0.39422   0.60226   0.00000  Uiso   1.00
H655   H     0.10326   0.26994   0.37637   0.00000  Uiso   1.00
H656   H     0.00138   0.10574   0.58639   0.00000  Uiso   1.00
H657   H     0.10495   0.23229   0.62158   0.00000  Uiso   1.00
H658   H     0.48534   0.39843   0.46218   0.00000  Uiso   1.00
H659   H     0.37487   0.23625   0.58412   0.00000  Uiso   1.00
H660   H     0.02975   0.09747   0.44223   0.00000  Uiso   1.00
H661   H     0.12388   0.01499   0.41762   0.00000  Uiso   1.00
H662   H     0.26598   0.14422   0.60226   0.00000  Uiso   1.00
H663   H     0.35326   0.01994   0.37637   0.00000  Uiso   1.00
H664   H     0.49543   0.31883   0.62274   0.00000  Uiso   1.00
H665   H     0.25138   0.35574   0.58639   0.00000  Uiso   1.00
H666   H     0.35495   0.48229   0.62158   0.00000  Uiso   1.00
H667   H     0.23534   0.14843   0.46218   0.00000  Uiso   1.00
H668   H     0.12487   0.48625   0.58412   0.00000  Uiso   1.00
H669   H     0.27975   0.34747   0.44223   0.00000  Uiso   1.00
H670   H     0.49968   0.31869   0.37559   0.00000  Uiso   1.00
H671   H     0.49989   0.18128   0.62439   0.00000  Uiso   1.00
H672   H     0.24553   0.43112   0.37722   0.00000  Uiso   1.00
H673   H     0.24543   0.06883   0.62274   0.00000  Uiso   1.00
H674   H     0.24968   0.06869   0.37559   0.00000  Uiso   1.00
H675   H     0.24989   0.43128   0.62439   0.00000  Uiso   1.00
H676   H     0.37388   0.26499   0.41762   0.00000  Uiso   1.00
N677   N    -0.00000   0.25000   0.61736   0.00000  Uiso   1.00
N678   N    -0.00000   0.25000   0.38264   0.00000  Uiso   1.00
N679   N     0.25000  -0.00000   0.61736   0.00000  Uiso   1.00
N680   N     0.25000  -0.00000   0.38264   0.00000  Uiso   1.00
O681   O     0.04508   0.20491   0.53958   0.00000  Uiso   1.00
O682   O     0.20491   0.04509   0.46042   0.00000  Uiso   1.00
O683   O     0.20491   0.04509   0.53958   0.00000  Uiso   1.00
O684   O     0.29508   0.45491   0.46042   0.00000  Uiso   1.00
O685   O     0.20491   0.45491   0.46042   0.00000  Uiso   1.00
O686   O     0.29508   0.04509   0.53958   0.00000  Uiso   1.00
O687   O     0.29508   0.04509   0.46042   0.00000  Uiso   1.00
O688   O     0.20491   0.45491   0.53958   0.00000  Uiso   1.00
O689   O     0.40553   0.19246   0.37948   0.00000  Uiso   1.00
O690   O     0.32974   0.18888   0.39632   0.00000  Uiso   1.00
O691   O     0.37505   0.24311   0.44350   0.00000  Uiso   1.00
O692   O     0.45491   0.29509   0.46042   0.00000  Uiso   1.00
O693   O     0.08081   0.32340   0.61999   0.00000  Uiso   1.00
O694   O     0.09381   0.40253   0.62172   0.00000  Uiso   1.00
O695   O     0.02775   0.37635   0.57673   0.00000  Uiso   1.00
O696   O     0.06885   0.35005   0.37689   0.00000  Uiso   1.00
O697   O     0.14594   0.35027   0.37339   0.00000  Uiso   1.00
O698   O     0.10994   0.28115   0.40780   0.00000  Uiso   1.00
O699   O     0.42934   0.15212   0.62323   0.00000  Uiso   1.00
O700   O     0.42592   0.07452   0.60363   0.00000  Uiso   1.00
O701   O     0.48389   0.12178   0.56311   0.00000  Uiso   1.00
O702   O     0.07050   0.15230   0.62344   0.00000  Uiso   1.00
O703   O     0.45491   0.29509   0.53958   0.00000  Uiso   1.00
O704   O     0.14762   0.15185   0.62559   0.00000  Uiso   1.00
O705   O     0.11129   0.22045   0.59032   0.00000  Uiso   1.00
O706   O     0.42939   0.34818   0.37662   0.00000  Uiso   1.00
O707   O     0.42714   0.42564   0.39623   0.00000  Uiso   1.00
O708   O     0.48465   0.37755   0.43603   0.00000  Uiso   1.00
O709   O     0.40638   0.30912   0.62088   0.00000  Uiso   1.00
O710   O     0.33050   0.31279   0.60486   0.00000  Uiso   1.00
O711   O     0.37524   0.25781   0.55790   0.00000  Uiso   1.00
O712   O     0.08160   0.17761   0.38038   0.00000  Uiso   1.00
O713   O     0.09419   0.09855   0.37736   0.00000  Uiso   1.00
O714   O     0.04508   0.20491   0.46042   0.00000  Uiso   1.00
O715   O     0.02826   0.12433   0.42242   0.00000  Uiso   1.00
O716   O     0.15553   0.44246   0.37948   0.00000  Uiso   1.00
O717   O     0.07974   0.43888   0.39632   0.00000  Uiso   1.00
O718   O     0.12505   0.49311   0.44350   0.00000  Uiso   1.00
O719   O     0.33081   0.07340   0.61999   0.00000  Uiso   1.00
O720   O     0.34381   0.15253   0.62172   0.00000  Uiso   1.00
O721   O     0.27775   0.12635   0.57673   0.00000  Uiso   1.00
O722   O     0.31885   0.10005   0.37689   0.00000  Uiso   1.00
O723   O     0.39594   0.10027   0.37339   0.00000  Uiso   1.00
O724   O     0.35994   0.03115   0.40780   0.00000  Uiso   1.00
O725   O     0.45491   0.20491   0.46042   0.00000  Uiso   1.00
O726   O     0.17934   0.40212   0.62323   0.00000  Uiso   1.00
O727   O     0.17592   0.32452   0.60363   0.00000  Uiso   1.00
O728   O     0.23389   0.37178   0.56311   0.00000  Uiso   1.00
O729   O     0.32050   0.40230   0.62344   0.00000  Uiso   1.00
O730   O     0.39762   0.40185   0.62559   0.00000  Uiso   1.00
O731   O     0.36129   0.47045   0.59032   0.00000  Uiso   1.00
O732   O     0.17939   0.09817   0.37662   0.00000  Uiso   1.00
O733   O     0.17714   0.17563   0.39623   0.00000  Uiso   1.00
O734   O     0.23465   0.12755   0.43603   0.00000  Uiso   1.00
O735   O     0.15638   0.05912   0.62088   0.00000  Uiso   1.00
O736   O     0.04508   0.29509   0.53958   0.00000  Uiso   1.00
O737   O     0.08050   0.06279   0.60486   0.00000  Uiso   1.00
O738   O     0.12524   0.00781   0.55790   0.00000  Uiso   1.00
O739   O     0.33160   0.42761   0.38038   0.00000  Uiso   1.00
O740   O     0.34419   0.34855   0.37736   0.00000  Uiso   1.00
O741   O     0.27827   0.37433   0.42242   0.00000  Uiso   1.00
O742   O     0.04508   0.29509   0.46042   0.00000  Uiso   1.00
O743   O     0.45491   0.20491   0.53958   0.00000  Uiso   1.00
O744   O     0.29508   0.45491   0.53958   0.00000  Uiso   1.00
S745   S     0.37288   0.19407   0.41748   0.00000  Uiso   1.00
S746   S     0.32801   0.11551   0.59239   0.00000  Uiso   1.00
S747   S     0.35829   0.08612   0.40187   0.00000  Uiso   1.00
S748   S     0.18436   0.36991   0.58458   0.00000  Uiso   1.00
S749   S     0.35965   0.41560   0.59749   0.00000  Uiso   1.00
S750   S     0.18491   0.13017   0.41536   0.00000  Uiso   1.00
S751   S     0.12344   0.05717   0.58328   0.00000  Uiso   1.00
S752   S     0.32865   0.38517   0.40739   0.00000  Uiso   1.00
S753   S     0.07801   0.36551   0.59239   0.00000  Uiso   1.00
S754   S     0.10829   0.33612   0.40187   0.00000  Uiso   1.00
S755   S     0.43436   0.11991   0.58458   0.00000  Uiso   1.00
S756   S     0.10965   0.16560   0.59749   0.00000  Uiso   1.00
S757   S     0.43491   0.38017   0.41536   0.00000  Uiso   1.00
S758   S     0.37344   0.30717   0.58328   0.00000  Uiso   1.00
S759   S     0.07865   0.13517   0.40739   0.00000  Uiso   1.00
S760   S     0.12288   0.44407   0.41748   0.00000  Uiso   1.00
C761   C     0.55947   0.19025   0.50033   0.00000  Uiso   1.00
C762   C     0.99824   0.28822   0.64145   0.00000  Uiso   1.00
C763   C     0.99964   0.28819   0.35749   0.00000  Uiso   1.00
C764   C     0.99972   0.21179   0.64250   0.00000  Uiso   1.00
C765   C     0.74831   0.46176   0.35855   0.00000  Uiso   1.00
C766   C     0.74824   0.03822   0.64145   0.00000  Uiso   1.00
C767   C     0.74964   0.03819   0.35749   0.00000  Uiso   1.00
C768   C     0.74972   0.46179   0.64250   0.00000  Uiso   1.00
C769   C     0.88230   0.15140   0.45945   0.00000  Uiso   1.00
C770   C     0.60881   0.36056   0.54126   0.00000  Uiso   1.00
C771   C     0.60921   0.36238   0.45668   0.00000  Uiso   1.00
C772   C     0.94067   0.30944   0.49988   0.00000  Uiso   1.00
C773   C     0.89734   0.13233   0.54002   0.00000  Uiso   1.00
C774   C     0.60977   0.13842   0.54322   0.00000  Uiso   1.00
C775   C     0.89774   0.36788   0.45994   0.00000  Uiso   1.00
C776   C     0.88273   0.34932   0.54069   0.00000  Uiso   1.00
C777   C     0.60927   0.13979   0.45866   0.00000  Uiso   1.00
C778   C     0.63230   0.40140   0.45945   0.00000  Uiso   1.00
C779   C     0.85881   0.11056   0.54126   0.00000  Uiso   1.00
C780   C     0.85921   0.11238   0.45668   0.00000  Uiso   1.00
C781   C     0.64734   0.38233   0.54002   0.00000  Uiso   1.00
C782   C     0.85977   0.38842   0.54322   0.00000  Uiso   1.00
C783   C     0.94060   0.19063   0.50015   0.00000  Uiso   1.00
C784   C     0.64774   0.11787   0.45994   0.00000  Uiso   1.00
C785   C     0.63273   0.09932   0.54069   0.00000  Uiso   1.00
C786   C     0.85927   0.38979   0.45866   0.00000  Uiso   1.00
C787   C     0.59256   0.34419   0.49891   0.00000  Uiso   1.00
C788   C     0.90672   0.15793   0.50001   0.00000  Uiso   1.00
C789   C     0.90700   0.34238   0.50004   0.00000  Uiso   1.00
C790   C     0.59297   0.15625   0.50097   0.00000  Uiso   1.00
C791   C     0.84256   0.09419   0.49891   0.00000  Uiso   1.00
C792   C     0.65672   0.40793   0.50001   0.00000  Uiso   1.00
C793   C     0.65700   0.09238   0.50004   0.00000  Uiso   1.00
C794   C     0.55934   0.30990   0.49963   0.00000  Uiso   1.00
C795   C     0.84297   0.40625   0.50097   0.00000  Uiso   1.00
C796   C     0.80947   0.44025   0.50033   0.00000  Uiso   1.00
C797   C     0.69067   0.05944   0.49988   0.00000  Uiso   1.00
C798   C     0.69060   0.44063   0.50015   0.00000  Uiso   1.00
C799   C     0.80934   0.05990   0.49963   0.00000  Uiso   1.00
C800   C     0.99831   0.21176   0.35855   0.00000  Uiso   1.00
Cu801  Cu    0.50000   0.25000   0.54689   0.00000  Uiso   1.00
Cu802  Cu    0.50000   0.25000   0.45311   0.00000  Uiso   1.00
Cu803  Cu    0.75000  -0.00000   0.54689   0.00000  Uiso   1.00
Cu804  Cu    0.75000  -0.00000   0.45311   0.00000  Uiso   1.00
H805   H     0.99553   0.18112   0.37722   0.00000  Uiso   1.00
H806   H     0.51598   0.39422   0.60226   0.00000  Uiso   1.00
H807   H     0.60326   0.26994   0.37637   0.00000  Uiso   1.00
H808   H     0.50138   0.10574   0.58639   0.00000  Uiso   1.00
H809   H     0.60495   0.23229   0.62158   0.00000  Uiso   1.00
H810   H     0.98534   0.39843   0.46218   0.00000  Uiso   1.00
H811   H     0.87487   0.23625   0.58412   0.00000  Uiso   1.00
H812   H     0.52975   0.09747   0.44223   0.00000  Uiso   1.00
H813   H     0.62388   0.01499   0.41762   0.00000  Uiso   1.00
H814   H     0.76598   0.14422   0.60226   0.00000  Uiso   1.00
H815   H     0.85326   0.01994   0.37637   0.00000  Uiso   1.00
H816   H     0.99543   0.31883   0.62274   0.00000  Uiso   1.00
H817   H     0.75138   0.35574   0.58639   0.00000  Uiso   1.00
H818   H     0.85495   0.48229   0.62158   0.00000  Uiso   1.00
H819   H     0.73534   0.14843   0.46218   0.00000  Uiso   1.00
H820   H     0.62487   0.48625   0.58412   0.00000  Uiso   1.00
H821   H     0.77975   0.34747   0.44223   0.00000  Uiso   1.00
H822   H     0.99968   0.31869   0.37559   0.00000  Uiso   1.00
H823   H     0.99989   0.18128   0.62439   0.00000  Uiso   1.00
H824   H     0.74553   0.43112   0.37722   0.00000  Uiso   1.00
H825   H     0.74543   0.06883   0.62274   0.00000  Uiso   1.00
H826   H     0.74968   0.06869   0.37559   0.00000  Uiso   1.00
H827   H     0.74989   0.43128   0.62439   0.00000  Uiso   1.00
H828   H     0.87388   0.26499   0.41762   0.00000  Uiso   1.00
N829   N     0.50000   0.25000   0.61736   0.00000  Uiso   1.00
N830   N     0.50000   0.25000   0.38264   0.00000  Uiso   1.00
N831   N     0.75000  -0.00000   0.61736   0.00000  Uiso   1.00
N832   N     0.75000  -0.00000   0.38264   0.00000  Uiso   1.00
O833   O     0.54508   0.20491   0.53958   0.00000  Uiso   1.00
O834   O     0.70491   0.04509   0.46042   0.00000  Uiso   1.00
O835   O     0.70491   0.04509   0.53958   0.00000  Uiso   1.00
O836   O     0.79508   0.45491   0.46042   0.00000  Uiso   1.00
O837   O     0.70491   0.45491   0.46042   0.00000  Uiso   1.00
O838   O     0.79508   0.04509   0.53958   0.00000  Uiso   1.00
O839   O     0.79508   0.04509   0.46042   0.00000  Uiso   1.00
O840   O     0.70491   0.45491   0.53958   0.00000  Uiso   1.00
O841   O     0.90553   0.19246   0.37948   0.00000  Uiso   1.00
O842   O     0.82974   0.18888   0.39632   0.00000  Uiso   1.00
O843   O     0.87505   0.24311   0.44350   0.00000  Uiso   1.00
O844   O     0.95491   0.29509   0.46042   0.00000  Uiso   1.00
O845   O     0.58081   0.32340   0.61999   0.00000  Uiso   1.00
O846   O     0.59381   0.40253   0.62172   0.00000  Uiso   1.00
O847   O     0.52775   0.37635   0.57673   0.00000  Uiso   1.00
O848   O     0.56885   0.35005   0.37689   0.00000  Uiso   1.00
O849   O     0.64594   0.35027   0.37339   0.00000  Uiso   1.00
O850   O     0.60994   0.28115   0.40780   0.00000  Uiso   1.00
O851   O     0.92934   0.15212   0.62323   0.00000  Uiso   1.00
O852   O     0.92592   0.07452   0.60363   0.00000  Uiso   1.00
O853   O     0.98389   0.12178   0.56311   0.00000  Uiso   1.00
O854   O     0.57050   0.15230   0.62344   0.00000  Uiso   1.00
O855   O     0.95491   0.29509   0.53958   0.00000  Uiso   1.00
O856   O     0.64762   0.15185   0.62559   0.00000  Uiso   1.00
O857   O     0.61129   0.22045   0.59032   0.00000  Uiso   1.00
O858   O     0.92939   0.34818   0.37662   0.00000  Uiso   1.00
O859   O     0.92714   0.42564   0.39623   0.00000  Uiso   1.00
O860   O     0.98465   0.37755   0.43603   0.00000  Uiso   1.00
O861   O     0.90638   0.30912   0.62088   0.00000  Uiso   1.00
O862   O     0.83050   0.31279   0.60486   0.00000  Uiso   1.00
O863   O     0.87524   0.25781   0.55790   0.00000  Uiso   1.00
O864   O     0.58160   0.17761   0.38038   0.00000  Uiso   1.00
O865   O     0.59419   0.09855   0.37736   0.00000  Uiso   1.00
O866   O     0.54508   0.20491   0.46042   0.00000  Uiso   1.00
O867   O     0.52826   0.12433   0.42242   0.00000  Uiso   1.00
O868   O     0.65553   0.44246   0.37948   0.00000  Uiso   1.00
O869   O     0.57974   0.43888   0.39632   0.00000  Uiso   1.00
O870   O     0.62505   0.49311   0.44350   0.00000  Uiso   1.00
O871   O     0.83081   0.07340   0.61999   0.00000  Uiso   1.00
O872   O     0.84381   0.15253   0.62172   0.00000  Uiso   1.00
O873   O     0.77775   0.12635   0.57673   0.00000  Uiso   1.00
O874   O     0.81885   0.10005   0.37689   0.00000  Uiso   1.00
O875   O     0.89594   0.10027   0.37339   0.00000  Uiso   1.00
O876   O     0.85994   0.03115   0.40780   0.00000  Uiso   1.00
O877   O     0.95491   0.20491   0.46042   0.00000  Uiso   1.00
O878   O     0.67934   0.40212   0.62323   0.00000  Uiso   1.00
O879   O     0.67592   0.32452   0.60363   0.00000  Uiso   1.00
O880   O     0.73389   0.37178   0.56311   0.00000  Uiso   1.00
O881   O     0.82050   0.40230   0.62344   0.00000  Uiso   1.00
O882   O     0.89762   0.40185   0.62559   0.00000  Uiso   1.00
O883   O     0.86129   0.47045   0.59032   0.00000  Uiso   1.00
O884   O     0.67939   0.09817   0.37662   0.00000  Uiso   1.00
O885   O     0.67714   0.17563   0.39623   0.00000  Uiso   1.00
O886   O     0.73465   0.12755   0.43603   0.00000  Uiso   1.00
O887   O     0.65638   0.05912   0.62088   0.00000  Uiso   1.00
O888   O     0.54508   0.29509   0.53958   0.00000  Uiso   1.00
O889   O     0.58050   0.06279   0.60486   0.00000  Uiso   1.00
O890   O     0.62524   0.00781   0.55790   0.00000  Uiso   1.00
O891   O     0.83160   0.42761   0.38038   0.00000  Uiso   1.00
O892   O     0.84419   0.34855   0.37736   0.00000  Uiso   1.00
O893   O     0.77827   0.37433   0.42242   0.00000  Uiso   1.00
O894   O     0.54508   0.29509   0.46042   0.00000  Uiso   1.00
O895   O     0.95491   0.20491   0.53958   0.00000  Uiso   1.00
O896   O     0.79508   0.45491   0.53958   0.00000  Uiso   1.00
S897   S     0.87288   0.19407   0.41748   0.00000  Uiso   1.00
S898   S     0.82801   0.11551   0.59239   0.00000  Uiso   1.00
S899   S     0.85829   0.08612   0.40187   0.00000  Uiso   1.00
S900   S     0.68436   0.36991   0.58458   0.00000  Uiso   1.00
S901   S     0.85965   0.41560   0.59749   0.00000  Uiso   1.00
S902   S     0.68491   0.13017   0.41536   0.00000  Uiso   1.00
S903   S     0.62344   0.05717   0.58328   0.00000  Uiso   1.00
S904   S     0.82865   0.38517   0.40739   0.00000  Uiso   1.00
S905   S     0.57801   0.36551   0.59239   0.00000  Uiso   1.00
S906   S     0.60829   0.33612   0.40187   0.00000  Uiso   1.00
S907   S     0.93436   0.11991   0.58458   0.00000  Uiso   1.00
S908   S     0.60965   0.16560   0.59749   0.00000  Uiso   1.00
S909   S     0.93491   0.38017   0.41536   0.00000  Uiso   1.00
S910   S     0.87344   0.30717   0.58328   0.00000  Uiso   1.00
S911   S     0.57865   0.13517   0.40739   0.00000  Uiso   1.00
S912   S     0.62288   0.44407   0.41748   0.00000  Uiso   1.00
C913   C     0.05947   0.69025   0.50033   0.00000  Uiso   1.00
C914   C     0.49824   0.78822   0.64145   0.00000  Uiso   1.00
C915   C     0.49964   0.78819   0.35749   0.00000  Uiso   1.00
C916   C     0.49972   0.71179   0.64250   0.00000  Uiso   1.00
C917   C     0.24831   0.96176   0.35855   0.00000  Uiso   1.00
C918   C     0.24824   0.53822   0.64145   0.00000  Uiso   1.00
C919   C     0.24964   0.53819   0.35749   0.00000  Uiso   1.00
C920   C     0.24972   0.96179   0.64250   0.00000  Uiso   1.00
C921   C     0.38230   0.65140   0.45945   0.00000  Uiso   1.00
C922   C     0.10881   0.86056   0.54126   0.00000  Uiso   1.00
C923   C     0.10921   0.86238   0.45668   0.00000  Uiso   1.00
C924   C     0.44067   0.80944   0.49988   0.00000  Uiso   1.00
C925   C     0.39734   0.63233   0.54002   0.00000  Uiso   1.00
C926   C     0.10977   0.63842   0.54322   0.00000  Uiso   1.00
C927   C     0.39774   0.86788   0.45994   0.00000  Uiso   1.00
C928   C     0.38273   0.84932   0.54069   0.00000  Uiso   1.00
C929   C     0.10927   0.63979   0.45866   0.00000  Uiso   1.00
C930   C     0.13230   0.90140   0.45945   0.00000  Uiso   1.00
C931   C     0.35881   0.61056   0.54126   0.00000  Uiso   1.00
C932   C     0.35921   0.61238   0.45668   0.00000  Uiso   1.00
C933   C     0.14734   0.88233   0.54002   0.00000  Uiso   1.00
C934   C     0.35977   0.88842   0.54322   0.00000  Uiso   1.00
C935   C     0.44060   0.69063   0.50015   0.00000  Uiso   1.00
C936   C     0.14774   0.61787   0.45994   0.00000  Uiso   1.00
C937   C     0.13273   0.59932   0.54069   0.00000  Uiso   1.00
C938   C     0.35927   0.88979   0.45866   0.00000  Uiso   1.00
C939   C     0.09256   0.84419   0.49891   0.00000  Uiso   1.00
C940   C     0.40672   0.65793   0.50001   0.00000  Uiso   1.00
C941   C     0.40700   0.84238   0.50004   0.00000  Uiso   1.00
C942   C     0.09297   0.65625   0.50097   0.00000  Uiso   1.00
C943   C     0.34256   0.59419   0.49891   0.00000  Uiso   1.00
C944   C     0.15672   0.90793   0.50001   0.00000  Uiso   1.00
C945   C     0.15700   0.59238   0.50004   0.00000  Uiso   1.00
C946   C     0.05934   0.80990   0.49963   0.00000  Uiso   1.00
C947   C     0.34297   0.90625   0.50097   0.00000  Uiso   1.00
C948   C     0.30947   0.94025   0.50033   0.00000  Uiso   1.00
C949   C     0.19067   0.55944   0.49988   0.00000  Uiso   1.00
C950   C     0.19060   0.94063   0.50015   0.00000  Uiso   1.00
C951   C     0.30934   0.55990   0.49963   0.00000  Uiso   1.00
C952   C     0.49831   0.71176   0.35855   0.00000  Uiso   1.00
Cu953  Cu   -0.00000   0.75000   0.54689   0.00000  Uiso   1.00
Cu954  Cu    0.00000   0.75000   0.45311   0.00000  Uiso   1.00
Cu955  Cu    0.25000   0.50000   0.54689   0.00000  Uiso   1.00
Cu956  Cu    0.25000   0.50000   0.45311   0.00000  Uiso   1.00
H957   H     0.49553   0.68112   0.37722   0.00000  Uiso   1.00
H958   H     0.01598   0.89422   0.60226   0.00000  Uiso   1.00
H959   H     0.10326   0.76994   0.37637   0.00000  Uiso   1.00
H960   H     0.00138   0.60574   0.58639   0.00000  Uiso   1.00
H961   H     0.10495   0.73229   0.62158   0.00000  Uiso   1.00
H962   H     0.48534   0.89843   0.46218   0.00000  Uiso   1.00
H963   H     0.37487   0.73625   0.58412   0.00000  Uiso   1.00
H964   H     0.02975   0.59747   0.44223   0.00000  Uiso   1.00
H965   H     0.12388   0.51499   0.41762   0.00000  Uiso   1.00
H966   H     0.26598   0.64422   0.60226   0.00000  Uiso   1.00
H967   H     0.35326   0.51994   0.37637   0.00000  Uiso   1.00
H968   H     0.49543   0.81883   0.62274   0.00000  Uiso   1.00
H969   H     0.25138   0.85574   0.58639   0.00000  Uiso   1.00
H970   H     0.35495   0.98229   0.62158   0.00000  Uiso   1.00
H971   H     0.23534   0.64843   0.46218   0.00000  Uiso   1.00
H972   H     0.12487   0.98625   0.58412   0.00000  Uiso   1.00
H973   H     0.27975   0.84747   0.44223   0.00000  Uiso   1.00
H974   H     0.49968   0.81869   0.37559   0.00000  Uiso   1.00
H975   H     0.49989   0.68128   0.62439   0.00000  Uiso   1.00
H976   H     0.24553   0.93112   0.37722   0.00000  Uiso   1.00
H977   H     0.24543   0.56883   0.62274   0.00000  Uiso   1.00
H978   H     0.24968   0.56869   0.37559   0.00000  Uiso   1.00
H979   H     0.24989   0.93128   0.62439   0.00000  Uiso   1.00
H980   H     0.37388   0.76499   0.41762   0.00000  Uiso   1.00
N981   N    -0.00000   0.75000   0.61736   0.00000  Uiso   1.00
N982   N    -0.00000   0.75000   0.38264   0.00000  Uiso   1.00
N983   N     0.25000   0.50000   0.61736   0.00000  Uiso   1.00
N984   N     0.25000   0.50000   0.38264   0.00000  Uiso   1.00
O985   O     0.04508   0.70491   0.53958   0.00000  Uiso   1.00
O986   O     0.20491   0.54509   0.46042   0.00000  Uiso   1.00
O987   O     0.20491   0.54509   0.53958   0.00000  Uiso   1.00
O988   O     0.29508   0.95491   0.46042   0.00000  Uiso   1.00
O989   O     0.20491   0.95491   0.46042   0.00000  Uiso   1.00
O990   O     0.29508   0.54509   0.53958   0.00000  Uiso   1.00
O991   O     0.29508   0.54509   0.46042   0.00000  Uiso   1.00
O992   O     0.20491   0.95491   0.53958   0.00000  Uiso   1.00
O993   O     0.40553   0.69246   0.37948   0.00000  Uiso   1.00
O994   O     0.32974   0.68888   0.39632   0.00000  Uiso   1.00
O995   O     0.37505   0.74311   0.44350   0.00000  Uiso   1.00
O996   O     0.45491   0.79509   0.46042   0.00000  Uiso   1.00
O997   O     0.08081   0.82340   0.61999   0.00000  Uiso   1.00
O998   O     0.09381   0.90253   0.62172   0.00000  Uiso   1.00
O999   O     0.02775   0.87635   0.57673   0.00000  Uiso   1.00
O1000  O     0.06885   0.85005   0.37689   0.00000  Uiso   1.00
O1001  O     0.14594   0.85027   0.37339   0.00000  Uiso   1.00
O1002  O     0.10994   0.78115   0.40780   0.00000  Uiso   1.00
O1003  O     0.42934   0.65212   0.62323   0.00000  Uiso   1.00
O1004  O     0.42592   0.57452   0.60363   0.00000  Uiso   1.00
O1005  O     0.48389   0.62178   0.56311   0.00000  Uiso   1.00
O1006  O     0.07050   0.65230   0.62344   0.00000  Uiso   1.00
O1007  O     0.45491   0.79509   0.53958   0.00000  Uiso   1.00
O1008  O     0.14762   0.65185   0.62559   0.00000  Uiso   1.00
O1009  O     0.11129   0.72045   0.59032   0.00000  Uiso   1.00
O1010  O     0.42939   0.84818   0.37662   0.00000  Uiso   1.00
O1011  O     0.42714   0.92564   0.39623   0.00000  Uiso   1.00
O1012  O     0.48465   0.87755   0.43603   0.00000  Uiso   1.00
O1013  O     0.40638   0.80912   0.62088   0.00000  Uiso   1.00
O1014  O     0.33050   0.81279   0.60486   0.00000  Uiso   1.00
O1015  O     0.37524   0.75781   0.55790   0.00000  Uiso   1.00
O1016  O     0.08160   0.67761   0.38038   0.00000  Uiso   1.00
O1017  O     0.09419   0.59855   0.37736   0.00000  Uiso   1.00
O1018  O     0.04508   0.70491   0.46042   0.00000  Uiso   1.00
O1019  O     0.02826   0.62433   0.42242   0.00000  Uiso   1.00
O1020  O     0.15553   0.94246   0.37948   0.00000  Uiso   1.00
O1021  O     0.07974   0.93888   0.39632   0.00000  Uiso   1.00
O1022  O     0.12505   0.99311   0.44350   0.00000  Uiso   1.00
O1023  O     0.33081   0.57340   0.61999   0.00000  Uiso   1.00
O1024  O     0.34381   0.65253   0.62172   0.00000  Uiso   1.00
O1025  O     0.27775   0.62635   0.57673   0.00000  Uiso   1.00
O1026  O     0.31885   0.60005   0.37689   0.00000  Uiso   1.00
O1027  O     0.39594   0.60027   0.37339   0.00000  Uiso   1.00
O1028  O     0.35994   0.53115   0.40780   0.00000  Uiso   1.00
O1029  O     0.45491   0.70491   0.46042   0.00000  Uiso   1.00
O1030  O     0.17934   0.90212   0.62323   0.00000  Uiso   1.00
O1031  O     0.17592   0.82452   0.60363   0.00000  Uiso   1.00
O1032  O     0.23389   0.87178   0.56311   0.00000  Uiso   1.00
O1033  O     0.32050   0.90230   0.62344   0.00000  Uiso   1.00
O1034  O     0.39762   0.90185   0.62559   0.00000  Uiso   1.00
O1035  O     0.36129   0.97045   0.59032   0.00000  Uiso   1.00
O1036  O     0.17939   0.59817   0.37662   0.00000  Uiso   1.00
O1037  O     0.17714   0.67563   0.39623   0.00000  Uiso   1.00
O1038  O     0.23465   0.62755   0.43603   0.00000  Uiso   1.00
O1039  O     0.15638   0.55912   0.62088   0.00000  Uiso   1.00
O1040  O     0.04508   0.79509   0.53958   0.00000  Uiso   1.00
O1041  O     0.08050   0.56279   0.60486   0.00000  Uiso   1.00
O1042  O     0.12524   0.50781   0.55790   0.00000  Uiso   1.00
O1043  O     0.33160   0.92761   0.38038   0.00000  Uiso   1.00
O1044  O     0.34419   0.84855   0.37736   0.00000  Uiso   1.00
O1045  O     0.27827   0.87433   0.42242   0.00000  Uiso   1.00
O1046  O     0.04508   0.79509   0.46042   0.00000  Uiso   1.00
O1047  O     0.45491   0.70491   0.53958   0.00000  Uiso   1.00
O1048  O     0.29508   0.95491   0.53958   0.00000  Uiso   1.00
S1049  S     0.37288   0.69407   0.41748   0.00000  Uiso   1.00
S1050  S     0.32801   0.61551   0.59239   0.00000  Uiso   1.00
S1051  S     0.35829   0.58612   0.40187   0.00000  Uiso   1.00
S1052  S     0.18436   0.86991   0.58458   0.00000  Uiso   1.00
S1053  S     0.35965   0.91560   0.59749   0.00000  Uiso   1.00
S1054  S     0.18491   0.63017   0.41536   0.00000  Uiso   1.00
S1055  S     0.12344   0.55717   0.58328   0.00000  Uiso   1.00
S1056  S     0.32865   0.88517   0.40739   0.00000  Uiso   1.00
S1057  S     0.07801   0.86551   0.59239   0.00000  Uiso   1.00
S1058  S     0.10829   0.83612   0.40187   0.00000  Uiso   1.00
S1059  S     0.43436   0.61991   0.58458   0.00000  Uiso   1.00
S1060  S     0.10965   0.66560   0.59749   0.00000  Uiso   1.00
S1061  S     0.43491   0.88017   0.41536   0.00000  Uiso   1.00
S1062  S     0.37344   0.80717   0.58328   0.00000  Uiso   1.00
S1063  S     0.07865   0.63517   0.40739   0.00000  Uiso   1.00
S1064  S     0.12288   0.94407   0.41748   0.00000  Uiso   1.00
C1065  C     0.55947   0.69025   0.50033   0.00000  Uiso   1.00
C1066  C     0.99824   0.78822   0.64145   0.00000  Uiso   1.00
C1067  C     0.99964   0.78819   0.35749   0.00000  Uiso   1.00
C1068  C     0.99972   0.71179   0.64250   0.00000  Uiso   1.00
C1069  C     0.74831   0.96176   0.35855   0.00000  Uiso   1.00
C1070  C     0.74824   0.53822   0.64145   0.00000  Uiso   1.00
C1071  C     0.74964   0.53819   0.35749   0.00000  Uiso   1.00
C1072  C     0.74972   0.96179   0.64250   0.00000  Uiso   1.00
C1073  C     0.88230   0.65140   0.45945   0.00000  Uiso   1.00
C1074  C     0.60881   0.86056   0.54126   0.00000  Uiso   1.00
C1075  C     0.60921   0.86238   0.45668   0.00000  Uiso   1.00
C1076  C     0.94067   0.80944   0.49988   0.00000  Uiso   1.00
C1077  C     0.89734   0.63233   0.54002   0.00000  Uiso   1.00
C1078  C     0.60977   0.63842   0.54322   0.00000  Uiso   1.00
C1079  C     0.89774   0.86788   0.45994   0.00000  Uiso   1.00
C1080  C     0.88273   0.84932   0.54069   0.00000  Uiso   1.00
C1081  C     0.60927   0.63979   0.45866   0.00000  Uiso   1.00
C1082  C     0.63230   0.90140   0.45945   0.00000  Uiso   1.00
C1083  C     0.85881   0.61056   0.54126   0.00000  Uiso   1.00
C1084  C     0.85921   0.61238   0.45668   0.00000  Uiso   1.00
C1085  C     0.64734   0.88233   0.54002   0.00000  Uiso   1.00
C1086  C     0.85977   0.88842   0.54322   0.00000  Uiso   1.00
C1087  C     0.94060   0.69063   0.50015   0.00000  Uiso   1.00
C1088  C     0.64774   0.61787   0.45994   0.00000  Uiso   1.00
C1089  C     0.63273   0.59932   0.54069   0.00000  Uiso   1.00
C1090  C     0.85927   0.88979   0.45866   0.00000  Uiso   1.00
C1091  C     0.59256   0.84419   0.49891   0.00000  Uiso   1.00
C1092  C     0.90672   0.65793   0.50001   0.00000  Uiso   1.00
C1093  C     0.90700   0.84238   0.50004   0.00000  Uiso   1.00
C1094  C     0.59297   0.65625   0.50097   0.00000  Uiso   1.00
C1095  C     0.84256   0.59419   0.49891   0.00000  Uiso   1.00
C1096  C     0.65672   0.90793   0.50001   0.00000  Uiso   1.00
C1097  C     0.65700   0.59238   0.50004   0.00000  Uiso   1.00
C1098  C     0.55934   0.80990   0.49963   0.00000  Uiso   1.00
C1099  C     0.84297   0.90625   0.50097   0.00000  Uiso   1.00
C1100  C     0.80947   0.94025   0.50033   0.00000  Uiso   1.00
C1101  C     0.69067   0.55944   0.49988   0.00000  Uiso   1.00
C1102  C     0.69060   0.94063   0.50015   0.00000  Uiso   1.00
C1103  C     0.80934   0.55990   0.49963   0.00000  Uiso   1.00
C1104  C     0.99831   0.71176   0.35855   0.00000  Uiso   1.00
Cu1105 Cu    0.50000   0.75000   0.54689   0.00000  Uiso   1.00
Cu1106 Cu    0.50000   0.75000   0.45311   0.00000  Uiso   1.00
Cu1107 Cu    0.75000   0.50000   0.54689   0.00000  Uiso   1.00
Cu1108 Cu    0.75000   0.50000   0.45311   0.00000  Uiso   1.00
H1109  H     0.99553   0.68112   0.37722   0.00000  Uiso   1.00
H1110  H     0.51598   0.89422   0.60226   0.00000  Uiso   1.00
H1111  H     0.60326   0.76994   0.37637   0.00000  Uiso   1.00
H1112  H     0.50138   0.60574   0.58639   0.00000  Uiso   1.00
H1113  H     0.60495   0.73229   0.62158   0.00000  Uiso   1.00
H1114  H     0.98534   0.89843   0.46218   0.00000  Uiso   1.00
H1115  H     0.87487   0.73625   0.58412   0.00000  Uiso   1.00
H1116  H     0.52975   0.59747   0.44223   0.00000  Uiso   1.00
H1117  H     0.62388   0.51499   0.41762   0.00000  Uiso   1.00
H1118  H     0.76598   0.64422   0.60226   0.00000  Uiso   1.00
H1119  H     0.85326   0.51994   0.37637   0.00000  Uiso   1.00
H1120  H     0.99543   0.81883   0.62274   0.00000  Uiso   1.00
H1121  H     0.75138   0.85574   0.58639   0.00000  Uiso   1.00
H1122  H     0.85495   0.98229   0.62158   0.00000  Uiso   1.00
H1123  H     0.73534   0.64843   0.46218   0.00000  Uiso   1.00
H1124  H     0.62487   0.98625   0.58412   0.00000  Uiso   1.00
H1125  H     0.77975   0.84747   0.44223   0.00000  Uiso   1.00
H1126  H     0.99968   0.81869   0.37559   0.00000  Uiso   1.00
H1127  H     0.99989   0.68128   0.62439   0.00000  Uiso   1.00
H1128  H     0.74553   0.93112   0.37722   0.00000  Uiso   1.00
H1129  H     0.74543   0.56883   0.62274   0.00000  Uiso   1.00
H1130  H     0.74968   0.56869   0.37559   0.00000  Uiso   1.00
H1131  H     0.74989   0.93128   0.62439   0.00000  Uiso   1.00
H1132  H     0.87388   0.76499   0.41762   0.00000  Uiso   1.00
N1133  N     0.50000   0.75000   0.61736   0.00000  Uiso   1.00
N1134  N     0.50000   0.75000   0.38264   0.00000  Uiso   1.00
N1135  N     0.75000   0.50000   0.61736   0.00000  Uiso   1.00
N1136  N     0.75000   0.50000   0.38264   0.00000  Uiso   1.00
O1137  O     0.54508   0.70491   0.53958   0.00000  Uiso   1.00
O1138  O     0.70491   0.54509   0.46042   0.00000  Uiso   1.00
O1139  O     0.70491   0.54509   0.53958   0.00000  Uiso   1.00
O1140  O     0.79508   0.95491   0.46042   0.00000  Uiso   1.00
O1141  O     0.70491   0.95491   0.46042   0.00000  Uiso   1.00
O1142  O     0.79508   0.54509   0.53958   0.00000  Uiso   1.00
O1143  O     0.79508   0.54509   0.46042   0.00000  Uiso   1.00
O1144  O     0.70491   0.95491   0.53958   0.00000  Uiso   1.00
O1145  O     0.90553   0.69246   0.37948   0.00000  Uiso   1.00
O1146  O     0.82974   0.68888   0.39632   0.00000  Uiso   1.00
O1147  O     0.87505   0.74311   0.44350   0.00000  Uiso   1.00
O1148  O     0.95491   0.79509   0.46042   0.00000  Uiso   1.00
O1149  O     0.58081   0.82340   0.61999   0.00000  Uiso   1.00
O1150  O     0.59381   0.90253   0.62172   0.00000  Uiso   1.00
O1151  O     0.52775   0.87635   0.57673   0.00000  Uiso   1.00
O1152  O     0.56885   0.85005   0.37689   0.00000  Uiso   1.00
O1153  O     0.64594   0.85027   0.37339   0.00000  Uiso   1.00
O1154  O     0.60994   0.78115   0.40780   0.00000  Uiso   1.00
O1155  O     0.92934   0.65212   0.62323   0.00000  Uiso   1.00
O1156  O     0.92592   0.57452   0.60363   0.00000  Uiso   1.00
O1157  O     0.98389   0.62178   0.56311   0.00000  Uiso   1.00
O1158  O     0.57050   0.65230   0.62344   0.00000  Uiso   1.00
O1159  O     0.95491   0.79509   0.53958   0.00000  Uiso   1.00
O1160  O     0.64762   0.65185   0.62559   0.00000  Uiso   1.00
O1161  O     0.61129   0.72045   0.59032   0.00000  Uiso   1.00
O1162  O     0.92939   0.84818   0.37662   0.00000  Uiso   1.00
O1163  O     0.92714   0.92564   0.39623   0.00000  Uiso   1.00
O1164  O     0.98465   0.87755   0.43603   0.00000  Uiso   1.00
O1165  O     0.90638   0.80912   0.62088   0.00000  Uiso   1.00
O1166  O     0.83050   0.81279   0.60486   0.00000  Uiso   1.00
O1167  O     0.87524   0.75781   0.55790   0.00000  Uiso   1.00
O1168  O     0.58160   0.67761   0.38038   0.00000  Uiso   1.00
O1169  O     0.59419   0.59855   0.37736   0.00000  Uiso   1.00
O1170  O     0.54508   0.70491   0.46042   0.00000  Uiso   1.00
O1171  O     0.52826   0.62433   0.42242   0.00000  Uiso   1.00
O1172  O     0.65553   0.94246   0.37948   0.00000  Uiso   1.00
O1173  O     0.57974   0.93888   0.39632   0.00000  Uiso   1.00
O1174  O     0.62505   0.99311   0.44350   0.00000  Uiso   1.00
O1175  O     0.83081   0.57340   0.61999   0.00000  Uiso   1.00
O1176  O     0.84381   0.65253   0.62172   0.00000  Uiso   1.00
O1177  O     0.77775   0.62635   0.57673   0.00000  Uiso   1.00
O1178  O     0.81885   0.60005   0.37689   0.00000  Uiso   1.00
O1179  O     0.89594   0.60027   0.37339   0.00000  Uiso   1.00
O1180  O     0.85994   0.53115   0.40780   0.00000  Uiso   1.00
O1181  O     0.95491   0.70491   0.46042   0.00000  Uiso   1.00
O1182  O     0.67934   0.90212   0.62323   0.00000  Uiso   1.00
O1183  O     0.67592   0.82452   0.60363   0.00000  Uiso   1.00
O1184  O     0.73389   0.87178   0.56311   0.00000  Uiso   1.00
O1185  O     0.82050   0.90230   0.62344   0.00000  Uiso   1.00
O1186  O     0.89762   0.90185   0.62559   0.00000  Uiso   1.00
O1187  O     0.86129   0.97045   0.59032   0.00000  Uiso   1.00
O1188  O     0.67939   0.59817   0.37662   0.00000  Uiso   1.00
O1189  O     0.67714   0.67563   0.39623   0.00000  Uiso   1.00
O1190  O     0.73465   0.62755   0.43603   0.00000  Uiso   1.00
O1191  O     0.65638   0.55912   0.62088   0.00000  Uiso   1.00
O1192  O     0.54508   0.79509   0.53958   0.00000  Uiso   1.00
O1193  O     0.58050   0.56279   0.60486   0.00000  Uiso   1.00
O1194  O     0.62524   0.50781   0.55790   0.00000  Uiso   1.00
O1195  O     0.83160   0.92761   0.38038   0.00000  Uiso   1.00
O1196  O     0.84419   0.84855   0.37736   0.00000  Uiso   1.00
O1197  O     0.77827   0.87433   0.42242   0.00000  Uiso   1.00
O1198  O     0.54508   0.79509   0.46042   0.00000  Uiso   1.00
O1199  O     0.95491   0.70491   0.53958   0.00000  Uiso   1.00
O1200  O     0.79508   0.95491   0.53958   0.00000  Uiso   1.00
S1201  S     0.87288   0.69407   0.41748   0.00000  Uiso   1.00
S1202  S     0.82801   0.61551   0.59239   0.00000  Uiso   1.00
S1203  S     0.85829   0.58612   0.40187   0.00000  Uiso   1.00
S1204  S     0.68436   0.86991   0.58458   0.00000  Uiso   1.00
S1205  S     0.85965   0.91560   0.59749   0.00000  Uiso   1.00
S1206  S     0.68491   0.63017   0.41536   0.00000  Uiso   1.00
S1207  S     0.62344   0.55717   0.58328   0.00000  Uiso   1.00
S1208  S     0.82865   0.88517   0.40739   0.00000  Uiso   1.00
S1209  S     0.57801   0.86551   0.59239   0.00000  Uiso   1.00
S1210  S     0.60829   0.83612   0.40187   0.00000  Uiso   1.00
S1211  S     0.93436   0.61991   0.58458   0.00000  Uiso   1.00
S1212  S     0.60965   0.66560   0.59749   0.00000  Uiso   1.00
S1213  S     0.93491   0.88017   0.41536   0.00000  Uiso   1.00
S1214  S     0.87344   0.80717   0.58328   0.00000  Uiso   1.00
S1215  S     0.57865   0.63517   0.40739   0.00000  Uiso   1.00
S1216  S     0.62288   0.94407   0.41748   0.00000  Uiso   1.00
C1217  C     0.05947   0.19025   0.83366   0.00000  Uiso   1.00
C1218  C     0.49824   0.28822   0.97478   0.00000  Uiso   1.00
C1219  C     0.49964   0.28819   0.69082   0.00000  Uiso   1.00
C1220  C     0.49972   0.21179   0.97584   0.00000  Uiso   1.00
C1221  C     0.24831   0.46176   0.69188   0.00000  Uiso   1.00
C1222  C     0.24824   0.03822   0.97478   0.00000  Uiso   1.00
C1223  C     0.24964   0.03819   0.69082   0.00000  Uiso   1.00
C1224  C     0.24972   0.46179   0.97584   0.00000  Uiso   1.00
C1225  C     0.38230   0.15140   0.79278   0.00000  Uiso   1.00
C1226  C     0.10881   0.36056   0.87459   0.00000  Uiso   1.00
C1227  C     0.10921   0.36238   0.79001   0.00000  Uiso   1.00
C1228  C     0.44067   0.30944   0.83321   0.00000  Uiso   1.00
C1229  C     0.39734   0.13233   0.87335   0.00000  Uiso   1.00
C1230  C     0.10977   0.13842   0.87655   0.00000  Uiso   1.00
C1231  C     0.39774   0.36788   0.79327   0.00000  Uiso   1.00
C1232  C     0.38273   0.34932   0.87403   0.00000  Uiso   1.00
C1233  C     0.10927   0.13979   0.79199   0.00000  Uiso   1.00
C1234  C     0.13230   0.40140   0.79278   0.00000  Uiso   1.00
C1235  C     0.35881   0.11056   0.87459   0.00000  Uiso   1.00
C1236  C     0.35921   0.11238   0.79001   0.00000  Uiso   1.00
C1237  C     0.14734   0.38233   0.87335   0.00000  Uiso   1.00
C1238  C     0.35977   0.38842   0.87655   0.00000  Uiso   1.00
C1239  C     0.44060   0.19063   0.83348   0.00000  Uiso   1.00
C1240  C     0.14774   0.11787   0.79327   0.00000  Uiso   1.00
C1241  C     0.13273   0.09932   0.87403   0.00000  Uiso   1.00
C1242  C     0.35927   0.38979   0.79199   0.00000  Uiso   1.00
C1243  C     0.09256   0.34419   0.83225   0.00000  Uiso   1.00
C1244  C     0.40672   0.15793   0.83334   0.00000  Uiso   1.00
C1245  C     0.40700   0.34238   0.83338   0.00000  Uiso   1.00
C1246  C     0.09297   0.15625   0.83430   0.00000  Uiso   1.00
C1247  C     0.34256   0.09419   0.83225   0.00000  Uiso   1.00
C1248  C     0.15672   0.40793   0.83334   0.00000  Uiso   1.00
C1249  C     0.15700   0.09238   0.83338   0.00000  Uiso   1.00
C1250  C     0.05934   0.30990   0.83296   0.00000  Uiso   1.00
C1251  C     0.34297   0.40625   0.83430   0.00000  Uiso   1.00
C1252  C     0.30947   0.44025   0.83366   0.00000  Uiso   1.00
C1253  C     0.19067   0.05944   0.83321   0.00000  Uiso   1.00
C1254  C     0.19060   0.44063   0.83348   0.00000  Uiso   1.00
C1255  C     0.30934   0.05990   0.83296   0.00000  Uiso   1.00
C1256  C     0.49831   0.21176   0.69188   0.00000  Uiso   1.00
Cu1257 Cu   -0.00000   0.25000   0.88022   0.00000  Uiso   1.00
Cu1258 Cu    0.00000   0.25000   0.78645   0.00000  Uiso   1.00
Cu1259 Cu    0.25000  -0.00000   0.88022   0.00000  Uiso   1.00
Cu1260 Cu    0.25000  -0.00000   0.78645   0.00000  Uiso   1.00
H1261  H     0.49553   0.18112   0.71056   0.00000  Uiso   1.00
H1262  H     0.01598   0.39422   0.93559   0.00000  Uiso   1.00
H1263  H     0.10326   0.26994   0.70970   0.00000  Uiso   1.00
H1264  H     0.00138   0.10574   0.91972   0.00000  Uiso   1.00
H1265  H     0.10495   0.23229   0.95491   0.00000  Uiso   1.00
H1266  H     0.48534   0.39843   0.79551   0.00000  Uiso   1.00
H1267  H     0.37487   0.23625   0.91745   0.00000  Uiso   1.00
H1268  H     0.02975   0.09747   0.77557   0.00000  Uiso   1.00
H1269  H     0.12388   0.01499   0.75095   0.00000  Uiso   1.00
H1270  H     0.26598   0.14422   0.93559   0.00000  Uiso   1.00
H1271  H     0.35326   0.01994   0.70970   0.00000  Uiso   1.00
H1272  H     0.49543   0.31883   0.95607   0.00000  Uiso   1.00
H1273  H     0.25138   0.35574   0.91973   0.00000  Uiso   1.00
H1274  H     0.35495   0.48229   0.95491   0.00000  Uiso   1.00
H1275  H     0.23534   0.14843   0.79551   0.00000  Uiso   1.00
H1276  H     0.12487   0.48625   0.91745   0.00000  Uiso   1.00
H1277  H     0.27975   0.34747   0.77556   0.00000  Uiso   1.00
H1278  H     0.49968   0.31869   0.70892   0.00000  Uiso   1.00
H1279  H     0.49989   0.18128   0.95772   0.00000  Uiso   1.00
H1280  H     0.24553   0.43112   0.71056   0.00000  Uiso   1.00
H1281  H     0.24543   0.06883   0.95607   0.00000  Uiso   1.00
H1282  H     0.24968   0.06869   0.70892   0.00000  Uiso   1.00
H1283  H     0.24989   0.43128   0.95772   0.00000  Uiso   1.00
H1284  H     0.37388   0.26499   0.75095   0.00000  Uiso   1.00
N1285  N    -0.00000   0.25000   0.95069   0.00000  Uiso   1.00
N1286  N    -0.00000   0.25000   0.71598   0.00000  Uiso   1.00
N1287  N     0.25000  -0.00000   0.95069   0.00000  Uiso   1.00
N1288  N     0.25000  -0.00000   0.71598   0.00000  Uiso   1.00
O1289  O     0.04508   0.20491   0.87291   0.00000  Uiso   1.00
O1290  O     0.20491   0.04509   0.79375   0.00000  Uiso   1.00
O1291  O     0.20491   0.04509   0.87291   0.00000  Uiso   1.00
O1292  O     0.29508   0.45491   0.79375   0.00000  Uiso   1.00
O1293  O     0.20491   0.45491   0.79375   0.00000  Uiso   1.00
O1294  O     0.29508   0.04509   0.87291   0.00000  Uiso   1.00
O1295  O     0.29508   0.04509   0.79375   0.00000  Uiso   1.00
O1296  O     0.20491   0.45491   0.87291   0.00000  Uiso   1.00
O1297  O     0.40553   0.19246   0.71281   0.00000  Uiso   1.00
O1298  O     0.32974   0.18888   0.72966   0.00000  Uiso   1.00
O1299  O     0.37505   0.24311   0.77684   0.00000  Uiso   1.00
O1300  O     0.45491   0.29509   0.79375   0.00000  Uiso   1.00
O1301  O     0.08081   0.32340   0.95332   0.00000  Uiso   1.00
O1302  O     0.09381   0.40253   0.95506   0.00000  Uiso   1.00
O1303  O     0.02775   0.37635   0.91007   0.00000  Uiso   1.00
O1304  O     0.06885   0.35005   0.71023   0.00000  Uiso   1.00
O1305  O     0.14594   0.35027   0.70672   0.00000  Uiso   1.00
O1306  O     0.10994   0.28115   0.74113   0.00000  Uiso   1.00
O1307  O     0.42934   0.15212   0.95656   0.00000  Uiso   1.00
O1308  O     0.42592   0.07452   0.93697   0.00000  Uiso   1.00
O1309  O     0.48389   0.12178   0.89645   0.00000  Uiso   1.00
O1310  O     0.07050   0.15230   0.95677   0.00000  Uiso   1.00
O1311  O     0.45491   0.29509   0.87291   0.00000  Uiso   1.00
O1312  O     0.14762   0.15185   0.95892   0.00000  Uiso   1.00
O1313  O     0.11129   0.22045   0.92365   0.00000  Uiso   1.00
O1314  O     0.42939   0.34818   0.70995   0.00000  Uiso   1.00
O1315  O     0.42714   0.42564   0.72956   0.00000  Uiso   1.00
O1316  O     0.48465   0.37755   0.76937   0.00000  Uiso   1.00
O1317  O     0.40638   0.30912   0.95422   0.00000  Uiso   1.00
O1318  O     0.33050   0.31279   0.93819   0.00000  Uiso   1.00
O1319  O     0.37524   0.25781   0.89124   0.00000  Uiso   1.00
O1320  O     0.08160   0.17761   0.71371   0.00000  Uiso   1.00
O1321  O     0.09419   0.09855   0.71069   0.00000  Uiso   1.00
O1322  O     0.04508   0.20491   0.79375   0.00000  Uiso   1.00
O1323  O     0.02826   0.12433   0.75575   0.00000  Uiso   1.00
O1324  O     0.15553   0.44246   0.71281   0.00000  Uiso   1.00
O1325  O     0.07974   0.43888   0.72966   0.00000  Uiso   1.00
O1326  O     0.12505   0.49311   0.77684   0.00000  Uiso   1.00
O1327  O     0.33081   0.07340   0.95332   0.00000  Uiso   1.00
O1328  O     0.34381   0.15253   0.95506   0.00000  Uiso   1.00
O1329  O     0.27775   0.12635   0.91007   0.00000  Uiso   1.00
O1330  O     0.31885   0.10005   0.71023   0.00000  Uiso   1.00
O1331  O     0.39594   0.10027   0.70672   0.00000  Uiso   1.00
O1332  O     0.35994   0.03115   0.74113   0.00000  Uiso   1.00
O1333  O     0.45491   0.20491   0.79375   0.00000  Uiso   1.00
O1334  O     0.17934   0.40212   0.95656   0.00000  Uiso   1.00
O1335  O     0.17592   0.32452   0.93697   0.00000  Uiso   1.00
O1336  O     0.23389   0.37178   0.89645   0.00000  Uiso   1.00
O1337  O     0.32050   0.40230   0.95677   0.00000  Uiso   1.00
O1338  O     0.39762   0.40185   0.95892   0.00000  Uiso   1.00
O1339  O     0.36129   0.47045   0.92365   0.00000  Uiso   1.00
O1340  O     0.17939   0.09817   0.70995   0.00000  Uiso   1.00
O1341  O     0.17714   0.17563   0.72956   0.00000  Uiso   1.00
O1342  O     0.23465   0.12755   0.76936   0.00000  Uiso   1.00
O1343  O     0.15638   0.05912   0.95422   0.00000  Uiso   1.00
O1344  O     0.04508   0.29509   0.87291   0.00000  Uiso   1.00
O1345  O     0.08050   0.06279   0.93819   0.00000  Uiso   1.00
O1346  O     0.12524   0.00781   0.89124   0.00000  Uiso   1.00
O1347  O     0.33160   0.42761   0.71371   0.00000  Uiso   1.00
O1348  O     0.34419   0.34855   0.71069   0.00000  Uiso   1.00
O1349  O     0.27827   0.37433   0.75575   0.00000  Uiso   1.00
O1350  O     0.04508   0.29509   0.79375   0.00000  Uiso   1.00
O1351  O     0.45491   0.20491   0.87291   0.00000  Uiso   1.00
O1352  O     0.29508   0.45491   0.87291   0.00000  Uiso   1.00
S1353  S     0.37288   0.19407   0.75082   0.00000  Uiso   1.00
S1354  S     0.32801   0.11551   0.92572   0.00000  Uiso   1.00
S1355  S     0.35829   0.08612   0.73521   0.00000  Uiso   1.00
S1356  S     0.18436   0.36991   0.91791   0.00000  Uiso   1.00
S1357  S     0.35965   0.41560   0.93083   0.00000  Uiso   1.00
S1358  S     0.18491   0.13017   0.74870   0.00000  Uiso   1.00
S1359  S     0.12344   0.05717   0.91661   0.00000  Uiso   1.00
S1360  S     0.32865   0.38517   0.74072   0.00000  Uiso   1.00
S1361  S     0.07801   0.36551   0.92572   0.00000  Uiso   1.00
S1362  S     0.10829   0.33612   0.73521   0.00000  Uiso   1.00
S1363  S     0.43436   0.11991   0.91791   0.00000  Uiso   1.00
S1364  S     0.10965   0.16560   0.93083   0.00000  Uiso   1.00
S1365  S     0.43491   0.38017   0.74870   0.00000  Uiso   1.00
S1366  S     0.37344   0.30717   0.91661   0.00000  Uiso   1.00
S1367  S     0.07865   0.13517   0.74072   0.00000  Uiso   1.00
S1368  S     0.12288   0.44407   0.75082   0.00000  Uiso   1.00
C1369  C     0.55947   0.19025   0.83366   0.00000  Uiso   1.00
C1370  C     0.99824   0.28822   0.97478   0.00000  Uiso   1.00
C1371  C     0.99964   0.28819   0.69082   0.00000  Uiso   1.00
C1372  C     0.99972   0.21179   0.97584   0.00000  Uiso   1.00
C1373  C     0.74831   0.46176   0.69188   0.00000  Uiso   1.00
C1374  C     0.74824   0.03822   0.97478   0.00000  Uiso   1.00
C1375  C     0.74964   0.03819   0.69082   0.00000  Uiso   1.00
C1376  C     0.74972   0.46179   0.97584   0.00000  Uiso   1.00
C1377  C     0.88230   0.15140   0.79278   0.00000  Uiso   1.00
C1378  C     0.60881   0.36056   0.87459   0.00000  Uiso   1.00
C1379  C     0.60921   0.36238   0.79001   0.00000  Uiso   1.00
C1380  C     0.94067   0.30944   0.83321   0.00000  Uiso   1.00
C1381  C     0.89734   0.13233   0.87335   0.00000  Uiso   1.00
C1382  C     0.60977   0.13842   0.87655   0.00000  Uiso   1.00
C1383  C     0.89774   0.36788   0.79327   0.00000  Uiso   1.00
C1384  C     0.88273   0.34932   0.87403   0.00000  Uiso   1.00
C1385  C     0.60927   0.13979   0.79199   0.00000  Uiso   1.00
C1386  C     0.63230   0.40140   0.79278   0.00000  Uiso   1.00
C1387  C     0.85881   0.11056   0.87459   0.00000  Uiso   1.00
C1388  C     0.85921   0.11238   0.79001   0.00000  Uiso   1.00
C1389  C     0.64734   0.38233   0.87335   0.00000  Uiso   1.00
C1390  C     0.85977   0.38842   0.87655   0.00000  Uiso   1.00
C1391  C     0.94060   0.19063   0.83348   0.00000  Uiso   1.00
C1392  C     0.64774   0.11787   0.79327   0.00000  Uiso   1.00
C1393  C     0.63273   0.09932   0.87403   0.00000  Uiso   1.00
C1394  C     0.85927   0.38979   0.79199   0.00000  Uiso   1.00
C1395  C     0.59256   0.34419   0.83225   0.00000  Uiso   1.00
C1396  C     0.90672   0.15793   0.83334   0.00000  Uiso   1.00
C1397  C     0.90700   0.34238   0.83338   0.00000  Uiso   1.00
C1398  C     0.59297   0.15625   0.83430   0.00000  Uiso   1.00
C1399  C     0.84256   0.09419   0.83225   0.00000  Uiso   1.00
C1400  C     0.65672   0.40793   0.83334   0.00000  Uiso   1.00
C1401  C     0.65700   0.09238   0.83338   0.00000  Uiso   1.00
C1402  C     0.55934   0.30990   0.83296   0.00000  Uiso   1.00
C1403  C     0.84297   0.40625   0.83430   0.00000  Uiso   1.00
C1404  C     0.80947   0.44025   0.83366   0.00000  Uiso   1.00
C1405  C     0.69067   0.05944   0.83321   0.00000  Uiso   1.00
C1406  C     0.69060   0.44063   0.83348   0.00000  Uiso   1.00
C1407  C     0.80934   0.05990   0.83296   0.00000  Uiso   1.00
C1408  C     0.99831   0.21176   0.69188   0.00000  Uiso   1.00
Cu1409 Cu    0.50000   0.25000   0.88022   0.00000  Uiso   1.00
Cu1410 Cu    0.50000   0.25000   0.78645   0.00000  Uiso   1.00
Cu1411 Cu    0.75000  -0.00000   0.88022   0.00000  Uiso   1.00
Cu1412 Cu    0.75000  -0.00000   0.78645   0.00000  Uiso   1.00
H1413  H     0.99553   0.18112   0.71056   0.00000  Uiso   1.00
H1414  H     0.51598   0.39422   0.93559   0.00000  Uiso   1.00
H1415  H     0.60326   0.26994   0.70970   0.00000  Uiso   1.00
H1416  H     0.50138   0.10574   0.91972   0.00000  Uiso   1.00
H1417  H     0.60495   0.23229   0.95491   0.00000  Uiso   1.00
H1418  H     0.98534   0.39843   0.79551   0.00000  Uiso   1.00
H1419  H     0.87487   0.23625   0.91745   0.00000  Uiso   1.00
H1420  H     0.52975   0.09747   0.77557   0.00000  Uiso   1.00
H1421  H     0.62388   0.01499   0.75095   0.00000  Uiso   1.00
H1422  H     0.76598   0.14422   0.93559   0.00000  Uiso   1.00
H1423  H     0.85326   0.01994   0.70970   0.00000  Uiso   1.00
H1424  H     0.99543   0.31883   0.95607   0.00000  Uiso   1.00
H1425  H     0.75138   0.35574   0.91973   0.00000  Uiso   1.00
H1426  H     0.85495   0.48229   0.95491   0.00000  Uiso   1.00
H1427  H     0.73534   0.14843   0.79551   0.00000  Uiso   1.00
H1428  H     0.62487   0.48625   0.91745   0.00000  Uiso   1.00
H1429  H     0.77975   0.34747   0.77556   0.00000  Uiso   1.00
H1430  H     0.99968   0.31869   0.70892   0.00000  Uiso   1.00
H1431  H     0.99989   0.18128   0.95772   0.00000  Uiso   1.00
H1432  H     0.74553   0.43112   0.71056   0.00000  Uiso   1.00
H1433  H     0.74543   0.06883   0.95607   0.00000  Uiso   1.00
H1434  H     0.74968   0.06869   0.70892   0.00000  Uiso   1.00
H1435  H     0.74989   0.43128   0.95772   0.00000  Uiso   1.00
H1436  H     0.87388   0.26499   0.75095   0.00000  Uiso   1.00
N1437  N     0.50000   0.25000   0.95069   0.00000  Uiso   1.00
N1438  N     0.50000   0.25000   0.71598   0.00000  Uiso   1.00
N1439  N     0.75000  -0.00000   0.95069   0.00000  Uiso   1.00
N1440  N     0.75000  -0.00000   0.71598   0.00000  Uiso   1.00
O1441  O     0.54508   0.20491   0.87291   0.00000  Uiso   1.00
O1442  O     0.70491   0.04509   0.79375   0.00000  Uiso   1.00
O1443  O     0.70491   0.04509   0.87291   0.00000  Uiso   1.00
O1444  O     0.79508   0.45491   0.79375   0.00000  Uiso   1.00
O1445  O     0.70491   0.45491   0.79375   0.00000  Uiso   1.00
O1446  O     0.79508   0.04509   0.87291   0.00000  Uiso   1.00
O1447  O     0.79508   0.04509   0.79375   0.00000  Uiso   1.00
O1448  O     0.70491   0.45491   0.87291   0.00000  Uiso   1.00
O1449  O     0.90553   0.19246   0.71281   0.00000  Uiso   1.00
O1450  O     0.82974   0.18888   0.72966   0.00000  Uiso   1.00
O1451  O     0.87505   0.24311   0.77684   0.00000  Uiso   1.00
O1452  O     0.95491   0.29509   0.79375   0.00000  Uiso   1.00
O1453  O     0.58081   0.32340   0.95332   0.00000  Uiso   1.00
O1454  O     0.59381   0.40253   0.95506   0.00000  Uiso   1.00
O1455  O     0.52775   0.37635   0.91007   0.00000  Uiso   1.00
O1456  O     0.56885   0.35005   0.71023   0.00000  Uiso   1.00
O1457  O     0.64594   0.35027   0.70672   0.00000  Uiso   1.00
O1458  O     0.60994   0.28115   0.74113   0.00000  Uiso   1.00
O1459  O     0.92934   0.15212   0.95656   0.00000  Uiso   1.00
O1460  O     0.92592   0.07452   0.93697   0.00000  Uiso   1.00
O1461  O     0.98389   0.12178   0.89645   0.00000  Uiso   1.00
O1462  O     0.57050   0.15230   0.95677   0.00000  Uiso   1.00
O1463  O     0.95491   0.29509   0.87291   0.00000  Uiso   1.00
O1464  O     0.64762   0.15185   0.95892   0.00000  Uiso   1.00
O1465  O     0.61129   0.22045   0.92365   0.00000  Uiso   1.00
O1466  O     0.92939   0.34818   0.70995   0.00000  Uiso   1.00
O1467  O     0.92714   0.42564   0.72956   0.00000  Uiso   1.00
O1468  O     0.98465   0.37755   0.76937   0.00000  Uiso   1.00
O1469  O     0.90638   0.30912   0.95422   0.00000  Uiso   1.00
O1470  O     0.83050   0.31279   0.93819   0.00000  Uiso   1.00
O1471  O     0.87524   0.25781   0.89124   0.00000  Uiso   1.00
O1472  O     0.58160   0.17761   0.71371   0.00000  Uiso   1.00
O1473  O     0.59419   0.09855   0.71069   0.00000  Uiso   1.00
O1474  O     0.54508   0.20491   0.79375   0.00000  Uiso   1.00
O1475  O     0.52826   0.12433   0.75575   0.00000  Uiso   1.00
O1476  O     0.65553   0.44246   0.71281   0.00000  Uiso   1.00
O1477  O     0.57974   0.43888   0.72966   0.00000  Uiso   1.00
O1478  O     0.62505   0.49311   0.77684   0.00000  Uiso   1.00
O1479  O     0.83081   0.07340   0.95332   0.00000  Uiso   1.00
O1480  O     0.84381   0.15253   0.95506   0.00000  Uiso   1.00
O1481  O     0.77775   0.12635   0.91007   0.00000  Uiso   1.00
O1482  O     0.81885   0.10005   0.71023   0.00000  Uiso   1.00
O1483  O     0.89594   0.10027   0.70672   0.00000  Uiso   1.00
O1484  O     0.85994   0.03115   0.74113   0.00000  Uiso   1.00
O1485  O     0.95491   0.20491   0.79375   0.00000  Uiso   1.00
O1486  O     0.67934   0.40212   0.95656   0.00000  Uiso   1.00
O1487  O     0.67592   0.32452   0.93697   0.00000  Uiso   1.00
O1488  O     0.73389   0.37178   0.89645   0.00000  Uiso   1.00
O1489  O     0.82050   0.40230   0.95677   0.00000  Uiso   1.00
O1490  O     0.89762   0.40185   0.95892   0.00000  Uiso   1.00
O1491  O     0.86129   0.47045   0.92365   0.00000  Uiso   1.00
O1492  O     0.67939   0.09817   0.70995   0.00000  Uiso   1.00
O1493  O     0.67714   0.17563   0.72956   0.00000  Uiso   1.00
O1494  O     0.73465   0.12755   0.76936   0.00000  Uiso   1.00
O1495  O     0.65638   0.05912   0.95422   0.00000  Uiso   1.00
O1496  O     0.54508   0.29509   0.87291   0.00000  Uiso   1.00
O1497  O     0.58050   0.06279   0.93819   0.00000  Uiso   1.00
O1498  O     0.62524   0.00781   0.89124   0.00000  Uiso   1.00
O1499  O     0.83160   0.42761   0.71371   0.00000  Uiso   1.00
O1500  O     0.84419   0.34855   0.71069   0.00000  Uiso   1.00
O1501  O     0.77827   0.37433   0.75575   0.00000  Uiso   1.00
O1502  O     0.54508   0.29509   0.79375   0.00000  Uiso   1.00
O1503  O     0.95491   0.20491   0.87291   0.00000  Uiso   1.00
O1504  O     0.79508   0.45491   0.87291   0.00000  Uiso   1.00
S1505  S     0.87288   0.19407   0.75082   0.00000  Uiso   1.00
S1506  S     0.82801   0.11551   0.92572   0.00000  Uiso   1.00
S1507  S     0.85829   0.08612   0.73521   0.00000  Uiso   1.00
S1508  S     0.68436   0.36991   0.91791   0.00000  Uiso   1.00
S1509  S     0.85965   0.41560   0.93083   0.00000  Uiso   1.00
S1510  S     0.68491   0.13017   0.74870   0.00000  Uiso   1.00
S1511  S     0.62344   0.05717   0.91661   0.00000  Uiso   1.00
S1512  S     0.82865   0.38517   0.74072   0.00000  Uiso   1.00
S1513  S     0.57801   0.36551   0.92572   0.00000  Uiso   1.00
S1514  S     0.60829   0.33612   0.73521   0.00000  Uiso   1.00
S1515  S     0.93436   0.11991   0.91791   0.00000  Uiso   1.00
S1516  S     0.60965   0.16560   0.93083   0.00000  Uiso   1.00
S1517  S     0.93491   0.38017   0.74870   0.00000  Uiso   1.00
S1518  S     0.87344   0.30717   0.91661   0.00000  Uiso   1.00
S1519  S     0.57865   0.13517   0.74072   0.00000  Uiso   1.00
S1520  S     0.62288   0.44407   0.75082   0.00000  Uiso   1.00
C1521  C     0.05947   0.69025   0.83366   0.00000  Uiso   1.00
C1522  C     0.49824   0.78822   0.97478   0.00000  Uiso   1.00
C1523  C     0.49964   0.78819   0.69082   0.00000  Uiso   1.00
C1524  C     0.49972   0.71179   0.97584   0.00000  Uiso   1.00
C1525  C     0.24831   0.96176   0.69188   0.00000  Uiso   1.00
C1526  C     0.24824   0.53822   0.97478   0.00000  Uiso   1.00
C1527  C     0.24964   0.53819   0.69082   0.00000  Uiso   1.00
C1528  C     0.24972   0.96179   0.97584   0.00000  Uiso   1.00
C1529  C     0.38230   0.65140   0.79278   0.00000  Uiso   1.00
C1530  C     0.10881   0.86056   0.87459   0.00000  Uiso   1.00
C1531  C     0.10921   0.86238   0.79001   0.00000  Uiso   1.00
C1532  C     0.44067   0.80944   0.83321   0.00000  Uiso   1.00
C1533  C     0.39734   0.63233   0.87335   0.00000  Uiso   1.00
C1534  C     0.10977   0.63842   0.87655   0.00000  Uiso   1.00
C1535  C     0.39774   0.86788   0.79327   0.00000  Uiso   1.00
C1536  C     0.38273   0.84932   0.87403   0.00000  Uiso   1.00
C1537  C     0.10927   0.63979   0.79199   0.00000  Uiso   1.00
C1538  C     0.13230   0.90140   0.79278   0.00000  Uiso   1.00
C1539  C     0.35881   0.61056   0.87459   0.00000  Uiso   1.00
C1540  C     0.35921   0.61238   0.79001   0.00000  Uiso   1.00
C1541  C     0.14734   0.88233   0.87335   0.00000  Uiso   1.00
C1542  C     0.35977   0.88842   0.87655   0.00000  Uiso   1.00
C1543  C     0.44060   0.69063   0.83348   0.00000  Uiso   1.00
C1544  C     0.14774   0.61787   0.79327   0.00000  Uiso   1.00
C1545  C     0.13273   0.59932   0.87403   0.00000  Uiso   1.00
C1546  C     0.35927   0.88979   0.79199   0.00000  Uiso   1.00
C1547  C     0.09256   0.84419   0.83225   0.00000  Uiso   1.00
C1548  C     0.40672   0.65793   0.83334   0.00000  Uiso   1.00
C1549  C     0.40700   0.84238   0.83338   0.00000  Uiso   1.00
C1550  C     0.09297   0.65625   0.83430   0.00000  Uiso   1.00
C1551  C     0.34256   0.59419   0.83225   0.00000  Uiso   1.00
C1552  C     0.15672   0.90793   0.83334   0.00000  Uiso   1.00
C1553  C     0.15700   0.59238   0.83338   0.00000  Uiso   1.00
C1554  C     0.05934   0.80990   0.83296   0.00000  Uiso   1.00
C1555  C     0.34297   0.90625   0.83430   0.00000  Uiso   1.00
C1556  C     0.30947   0.94025   0.83366   0.00000  Uiso   1.00
C1557  C     0.19067   0.55944   0.83321   0.00000  Uiso   1.00
C1558  C     0.19060   0.94063   0.83348   0.00000  Uiso   1.00
C1559  C     0.30934   0.55990   0.83296   0.00000  Uiso   1.00
C1560  C     0.49831   0.71176   0.69188   0.00000  Uiso   1.00
Cu1561 Cu   -0.00000   0.75000   0.88022   0.00000  Uiso   1.00
Cu1562 Cu    0.00000   0.75000   0.78645   0.00000  Uiso   1.00
Cu1563 Cu    0.25000   0.50000   0.88022   0.00000  Uiso   1.00
Cu1564 Cu    0.25000   0.50000   0.78645   0.00000  Uiso   1.00
H1565  H     0.49553   0.68112   0.71056   0.00000  Uiso   1.00
H1566  H     0.01598   0.89422   0.93559   0.00000  Uiso   1.00
H1567  H     0.10326   0.76994   0.70970   0.00000  Uiso   1.00
H1568  H     0.00138   0.60574   0.91972   0.00000  Uiso   1.00
H1569  H     0.10495   0.73229   0.95491   0.00000  Uiso   1.00
H1570  H     0.48534   0.89843   0.79551   0.00000  Uiso   1.00
H1571  H     0.37487   0.73625   0.91745   0.00000  Uiso   1.00
H1572  H     0.02975   0.59747   0.77557   0.00000  Uiso   1.00
H1573  H     0.12388   0.51499   0.75095   0.00000  Uiso   1.00
H1574  H     0.26598   0.64422   0.93559   0.00000  Uiso   1.00
H1575  H     0.35326   0.51994   0.70970   0.00000  Uiso   1.00
H1576  H     0.49543   0.81883   0.95607   0.00000  Uiso   1.00
H1577  H     0.25138   0.85574   0.91973   0.00000  Uiso   1.00
H1578  H     0.35495   0.98229   0.95491   0.00000  Uiso   1.00
H1579  H     0.23534   0.64843   0.79551   0.00000  Uiso   1.00
H1580  H     0.12487   0.98625   0.91745   0.00000  Uiso   1.00
H1581  H     0.27975   0.84747   0.77556   0.00000  Uiso   1.00
H1582  H     0.49968   0.81869   0.70892   0.00000  Uiso   1.00
H1583  H     0.49989   0.68128   0.95772   0.00000  Uiso   1.00
H1584  H     0.24553   0.93112   0.71056   0.00000  Uiso   1.00
H1585  H     0.24543   0.56883   0.95607   0.00000  Uiso   1.00
H1586  H     0.24968   0.56869   0.70892   0.00000  Uiso   1.00
H1587  H     0.24989   0.93128   0.95772   0.00000  Uiso   1.00
H1588  H     0.37388   0.76499   0.75095   0.00000  Uiso   1.00
N1589  N    -0.00000   0.75000   0.95069   0.00000  Uiso   1.00
N1590  N    -0.00000   0.75000   0.71598   0.00000  Uiso   1.00
N1591  N     0.25000   0.50000   0.95069   0.00000  Uiso   1.00
N1592  N     0.25000   0.50000   0.71598   0.00000  Uiso   1.00
O1593  O     0.04508   0.70491   0.87291   0.00000  Uiso   1.00
O1594  O     0.20491   0.54509   0.79375   0.00000  Uiso   1.00
O1595  O     0.20491   0.54509   0.87291   0.00000  Uiso   1.00
O1596  O     0.29508   0.95491   0.79375   0.00000  Uiso   1.00
O1597  O     0.20491   0.95491   0.79375   0.00000  Uiso   1.00
O1598  O     0.29508   0.54509   0.87291   0.00000  Uiso   1.00
O1599  O     0.29508   0.54509   0.79375   0.00000  Uiso   1.00
O1600  O     0.20491   0.95491   0.87291   0.00000  Uiso   1.00
O1601  O     0.40553   0.69246   0.71281   0.00000  Uiso   1.00
O1602  O     0.32974   0.68888   0.72966   0.00000  Uiso   1.00
O1603  O     0.37505   0.74311   0.77684   0.00000  Uiso   1.00
O1604  O     0.45491   0.79509   0.79375   0.00000  Uiso   1.00
O1605  O     0.08081   0.82340   0.95332   0.00000  Uiso   1.00
O1606  O     0.09381   0.90253   0.95506   0.00000  Uiso   1.00
O1607  O     0.02775   0.87635   0.91007   0.00000  Uiso   1.00
O1608  O     0.06885   0.85005   0.71023   0.00000  Uiso   1.00
O1609  O     0.14594   0.85027   0.70672   0.00000  Uiso   1.00
O1610  O     0.10994   0.78115   0.74113   0.00000  Uiso   1.00
O1611  O     0.42934   0.65212   0.95656   0.00000  Uiso   1.00
O1612  O     0.42592   0.57452   0.93697   0.00000  Uiso   1.00
O1613  O     0.48389   0.62178   0.89645   0.00000  Uiso   1.00
O1614  O     0.07050   0.65230   0.95677   0.00000  Uiso   1.00
O1615  O     0.45491   0.79509   0.87291   0.00000  Uiso   1.00
O1616  O     0.14762   0.65185   0.95892   0.00000  Uiso   1.00
O1617  O     0.11129   0.72045   0.92365   0.00000  Uiso   1.00
O1618  O     0.42939   0.84818   0.70995   0.00000  Uiso   1.00
O1619  O     0.42714   0.92564   0.72956   0.00000  Uiso   1.00
O1620  O     0.48465   0.87755   0.76937   0.00000  Uiso   1.00
O1621  O     0.40638   0.80912   0.95422   0.00000  Uiso   1.00
O1622  O     0.33050   0.81279   0.93819   0.00000  Uiso   1.00
O1623  O     0.37524   0.75781   0.89124   0.00000  Uiso   1.00
O1624  O     0.08160   0.67761   0.71371   0.00000  Uiso   1.00
O1625  O     0.09419   0.59855   0.71069   0.00000  Uiso   1.00
O1626  O     0.04508   0.70491   0.79375   0.00000  Uiso   1.00
O1627  O     0.02826   0.62433   0.75575   0.00000  Uiso   1.00
O1628  O     0.15553   0.94246   0.71281   0.00000  Uiso   1.00
O1629  O     0.07974   0.93888   0.72966   0.00000  Uiso   1.00
O1630  O     0.12505   0.99311   0.77684   0.00000  Uiso   1.00
O1631  O     0.33081   0.57340   0.95332   0.00000  Uiso   1.00
O1632  O     0.34381   0.65253   0.95506   0.00000  Uiso   1.00
O1633  O     0.27775   0.62635   0.91007   0.00000  Uiso   1.00
O1634  O     0.31885   0.60005   0.71023   0.00000  Uiso   1.00
O1635  O     0.39594   0.60027   0.70672   0.00000  Uiso   1.00
O1636  O     0.35994   0.53115   0.74113   0.00000  Uiso   1.00
O1637  O     0.45491   0.70491   0.79375   0.00000  Uiso   1.00
O1638  O     0.17934   0.90212   0.95656   0.00000  Uiso   1.00
O1639  O     0.17592   0.82452   0.93697   0.00000  Uiso   1.00
O1640  O     0.23389   0.87178   0.89645   0.00000  Uiso   1.00
O1641  O     0.32050   0.90230   0.95677   0.00000  Uiso   1.00
O1642  O     0.39762   0.90185   0.95892   0.00000  Uiso   1.00
O1643  O     0.36129   0.97045   0.92365   0.00000  Uiso   1.00
O1644  O     0.17939   0.59817   0.70995   0.00000  Uiso   1.00
O1645  O     0.17714   0.67563   0.72956   0.00000  Uiso   1.00
O1646  O     0.23465   0.62755   0.76936   0.00000  Uiso   1.00
O1647  O     0.15638   0.55912   0.95422   0.00000  Uiso   1.00
O1648  O     0.04508   0.79509   0.87291   0.00000  Uiso   1.00
O1649  O     0.08050   0.56279   0.93819   0.00000  Uiso   1.00
O1650  O     0.12524   0.50781   0.89124   0.00000  Uiso   1.00
O1651  O     0.33160   0.92761   0.71371   0.00000  Uiso   1.00
O1652  O     0.34419   0.84855   0.71069   0.00000  Uiso   1.00
O1653  O     0.27827   0.87433   0.75575   0.00000  Uiso   1.00
O1654  O     0.04508   0.79509   0.79375   0.00000  Uiso   1.00
O1655  O     0.45491   0.70491   0.87291   0.00000  Uiso   1.00
O1656  O     0.29508   0.95491   0.87291   0.00000  Uiso   1.00
S1657  S     0.37288   0.69407   0.75082   0.00000  Uiso   1.00
S1658  S     0.32801   0.61551   0.92572   0.00000  Uiso   1.00
S1659  S     0.35829   0.58612   0.73521   0.00000  Uiso   1.00
S1660  S     0.18436   0.86991   0.91791   0.00000  Uiso   1.00
S1661  S     0.35965   0.91560   0.93083   0.00000  Uiso   1.00
S1662  S     0.18491   0.63017   0.74870   0.00000  Uiso   1.00
S1663  S     0.12344   0.55717   0.91661   0.00000  Uiso   1.00
S1664  S     0.32865   0.88517   0.74072   0.00000  Uiso   1.00
S1665  S     0.07801   0.86551   0.92572   0.00000  Uiso   1.00
S1666  S     0.10829   0.83612   0.73521   0.00000  Uiso   1.00
S1667  S     0.43436   0.61991   0.91791   0.00000  Uiso   1.00
S1668  S     0.10965   0.66560   0.93083   0.00000  Uiso   1.00
S1669  S     0.43491   0.88017   0.74870   0.00000  Uiso   1.00
S1670  S     0.37344   0.80717   0.91661   0.00000  Uiso   1.00
S1671  S     0.07865   0.63517   0.74072   0.00000  Uiso   1.00
S1672  S     0.12288   0.94407   0.75082   0.00000  Uiso   1.00
C1673  C     0.55947   0.69025   0.83366   0.00000  Uiso   1.00
C1674  C     0.99824   0.78822   0.97478   0.00000  Uiso   1.00
C1675  C     0.99964   0.78819   0.69082   0.00000  Uiso   1.00
C1676  C     0.99972   0.71179   0.97584   0.00000  Uiso   1.00
C1677  C     0.74831   0.96176   0.69188   0.00000  Uiso   1.00
C1678  C     0.74824   0.53822   0.97478   0.00000  Uiso   1.00
C1679  C     0.74964   0.53819   0.69082   0.00000  Uiso   1.00
C1680  C     0.74972   0.96179   0.97584   0.00000  Uiso   1.00
C1681  C     0.88230   0.65140   0.79278   0.00000  Uiso   1.00
C1682  C     0.60881   0.86056   0.87459   0.00000  Uiso   1.00
C1683  C     0.60921   0.86238   0.79001   0.00000  Uiso   1.00
C1684  C     0.94067   0.80944   0.83321   0.00000  Uiso   1.00
C1685  C     0.89734   0.63233   0.87335   0.00000  Uiso   1.00
C1686  C     0.60977   0.63842   0.87655   0.00000  Uiso   1.00
C1687  C     0.89774   0.86788   0.79327   0.00000  Uiso   1.00
C1688  C     0.88273   0.84932   0.87403   0.00000  Uiso   1.00
C1689  C     0.60927   0.63979   0.79199   0.00000  Uiso   1.00
C1690  C     0.63230   0.90140   0.79278   0.00000  Uiso   1.00
C1691  C     0.85881   0.61056   0.87459   0.00000  Uiso   1.00
C1692  C     0.85921   0.61238   0.79001   0.00000  Uiso   1.00
C1693  C     0.64734   0.88233   0.87335   0.00000  Uiso   1.00
C1694  C     0.85977   0.88842   0.87655   0.00000  Uiso   1.00
C1695  C     0.94060   0.69063   0.83348   0.00000  Uiso   1.00
C1696  C     0.64774   0.61787   0.79327   0.00000  Uiso   1.00
C1697  C     0.63273   0.59932   0.87403   0.00000  Uiso   1.00
C1698  C     0.85927   0.88979   0.79199   0.00000  Uiso   1.00
C1699  C     0.59256   0.84419   0.83225   0.00000  Uiso   1.00
C1700  C     0.90672   0.65793   0.83334   0.00000  Uiso   1.00
C1701  C     0.90700   0.84238   0.83338   0.00000  Uiso   1.00
C1702  C     0.59297   0.65625   0.83430   0.00000  Uiso   1.00
C1703  C     0.84256   0.59419   0.83225   0.00000  Uiso   1.00
C1704  C     0.65672   0.90793   0.83334   0.00000  Uiso   1.00
C1705  C     0.65700   0.59238   0.83338   0.00000  Uiso   1.00
C1706  C     0.55934   0.80990   0.83296   0.00000  Uiso   1.00
C1707  C     0.84297   0.90625   0.83430   0.00000  Uiso   1.00
C1708  C     0.80947   0.94025   0.83366   0.00000  Uiso   1.00
C1709  C     0.69067   0.55944   0.83321   0.00000  Uiso   1.00
C1710  C     0.69060   0.94063   0.83348   0.00000  Uiso   1.00
C1711  C     0.80934   0.55990   0.83296   0.00000  Uiso   1.00
C1712  C     0.99831   0.71176   0.69188   0.00000  Uiso   1.00
Cu1713 Cu    0.50000   0.75000   0.88022   0.00000  Uiso   1.00
Cu1714 Cu    0.50000   0.75000   0.78645   0.00000  Uiso   1.00
Cu1715 Cu    0.75000   0.50000   0.88022   0.00000  Uiso   1.00
Cu1716 Cu    0.75000   0.50000   0.78645   0.00000  Uiso   1.00
H1717  H     0.99553   0.68112   0.71056   0.00000  Uiso   1.00
H1718  H     0.51598   0.89422   0.93559   0.00000  Uiso   1.00
H1719  H     0.60326   0.76994   0.70970   0.00000  Uiso   1.00
H1720  H     0.50138   0.60574   0.91972   0.00000  Uiso   1.00
H1721  H     0.60495   0.73229   0.95491   0.00000  Uiso   1.00
H1722  H     0.98534   0.89843   0.79551   0.00000  Uiso   1.00
H1723  H     0.87487   0.73625   0.91745   0.00000  Uiso   1.00
H1724  H     0.52975   0.59747   0.77557   0.00000  Uiso   1.00
H1725  H     0.62388   0.51499   0.75095   0.00000  Uiso   1.00
H1726  H     0.76598   0.64422   0.93559   0.00000  Uiso   1.00
H1727  H     0.85326   0.51994   0.70970   0.00000  Uiso   1.00
H1728  H     0.99543   0.81883   0.95607   0.00000  Uiso   1.00
H1729  H     0.75138   0.85574   0.91973   0.00000  Uiso   1.00
H1730  H     0.85495   0.98229   0.95491   0.00000  Uiso   1.00
H1731  H     0.73534   0.64843   0.79551   0.00000  Uiso   1.00
H1732  H     0.62487   0.98625   0.91745   0.00000  Uiso   1.00
H1733  H     0.77975   0.84747   0.77556   0.00000  Uiso   1.00
H1734  H     0.99968   0.81869   0.70892   0.00000  Uiso   1.00
H1735  H     0.99989   0.68128   0.95772   0.00000  Uiso   1.00
H1736  H     0.74553   0.93112   0.71056   0.00000  Uiso   1.00
H1737  H     0.74543   0.56883   0.95607   0.00000  Uiso   1.00
H1738  H     0.74968   0.56869   0.70892   0.00000  Uiso   1.00
H1739  H     0.74989   0.93128   0.95772   0.00000  Uiso   1.00
H1740  H     0.87388   0.76499   0.75095   0.00000  Uiso   1.00
N1741  N     0.50000   0.75000   0.95069   0.00000  Uiso   1.00
N1742  N     0.50000   0.75000   0.71598   0.00000  Uiso   1.00
N1743  N     0.75000   0.50000   0.95069   0.00000  Uiso   1.00
N1744  N     0.75000   0.50000   0.71598   0.00000  Uiso   1.00
O1745  O     0.54508   0.70491   0.87291   0.00000  Uiso   1.00
O1746  O     0.70491   0.54509   0.79375   0.00000  Uiso   1.00
O1747  O     0.70491   0.54509   0.87291   0.00000  Uiso   1.00
O1748  O     0.79508   0.95491   0.79375   0.00000  Uiso   1.00
O1749  O     0.70491   0.95491   0.79375   0.00000  Uiso   1.00
O1750  O     0.79508   0.54509   0.87291   0.00000  Uiso   1.00
O1751  O     0.79508   0.54509   0.79375   0.00000  Uiso   1.00
O1752  O     0.70491   0.95491   0.87291   0.00000  Uiso   1.00
O1753  O     0.90553   0.69246   0.71281   0.00000  Uiso   1.00
O1754  O     0.82974   0.68888   0.72966   0.00000  Uiso   1.00
O1755  O     0.87505   0.74311   0.77684   0.00000  Uiso   1.00
O1756  O     0.95491   0.79509   0.79375   0.00000  Uiso   1.00
O1757  O     0.58081   0.82340   0.95332   0.00000  Uiso   1.00
O1758  O     0.59381   0.90253   0.95506   0.00000  Uiso   1.00
O1759  O     0.52775   0.87635   0.91007   0.00000  Uiso   1.00
O1760  O     0.56885   0.85005   0.71023   0.00000  Uiso   1.00
O1761  O     0.64594   0.85027   0.70672   0.00000  Uiso   1.00
O1762  O     0.60994   0.78115   0.74113   0.00000  Uiso   1.00
O1763  O     0.92934   0.65212   0.95656   0.00000  Uiso   1.00
O1764  O     0.92592   0.57452   0.93697   0.00000  Uiso   1.00
O1765  O     0.98389   0.62178   0.89645   0.00000  Uiso   1.00
O1766  O     0.57050   0.65230   0.95677   0.00000  Uiso   1.00
O1767  O     0.95491   0.79509   0.87291   0.00000  Uiso   1.00
O1768  O     0.64762   0.65185   0.95892   0.00000  Uiso   1.00
O1769  O     0.61129   0.72045   0.92365   0.00000  Uiso   1.00
O1770  O     0.92939   0.84818   0.70995   0.00000  Uiso   1.00
O1771  O     0.92714   0.92564   0.72956   0.00000  Uiso   1.00
O1772  O     0.98465   0.87755   0.76937   0.00000  Uiso   1.00
O1773  O     0.90638   0.80912   0.95422   0.00000  Uiso   1.00
O1774  O     0.83050   0.81279   0.93819   0.00000  Uiso   1.00
O1775  O     0.87524   0.75781   0.89124   0.00000  Uiso   1.00
O1776  O     0.58160   0.67761   0.71371   0.00000  Uiso   1.00
O1777  O     0.59419   0.59855   0.71069   0.00000  Uiso   1.00
O1778  O     0.54508   0.70491   0.79375   0.00000  Uiso   1.00
O1779  O     0.52826   0.62433   0.75575   0.00000  Uiso   1.00
O1780  O     0.65553   0.94246   0.71281   0.00000  Uiso   1.00
O1781  O     0.57974   0.93888   0.72966   0.00000  Uiso   1.00
O1782  O     0.62505   0.99311   0.77684   0.00000  Uiso   1.00
O1783  O     0.83081   0.57340   0.95332   0.00000  Uiso   1.00
O1784  O     0.84381   0.65253   0.95506   0.00000  Uiso   1.00
O1785  O     0.77775   0.62635   0.91007   0.00000  Uiso   1.00
O1786  O     0.81885   0.60005   0.71023   0.00000  Uiso   1.00
O1787  O     0.89594   0.60027   0.70672   0.00000  Uiso   1.00
O1788  O     0.85994   0.53115   0.74113   0.00000  Uiso   1.00
O1789  O     0.95491   0.70491   0.79375   0.00000  Uiso   1.00
O1790  O     0.67934   0.90212   0.95656   0.00000  Uiso   1.00
O1791  O     0.67592   0.82452   0.93697   0.00000  Uiso   1.00
O1792  O     0.73389   0.87178   0.89645   0.00000  Uiso   1.00
O1793  O     0.82050   0.90230   0.95677   0.00000  Uiso   1.00
O1794  O     0.89762   0.90185   0.95892   0.00000  Uiso   1.00
O1795  O     0.86129   0.97045   0.92365   0.00000  Uiso   1.00
O1796  O     0.67939   0.59817   0.70995   0.00000  Uiso   1.00
O1797  O     0.67714   0.67563   0.72956   0.00000  Uiso   1.00
O1798  O     0.73465   0.62755   0.76936   0.00000  Uiso   1.00
O1799  O     0.65638   0.55912   0.95422   0.00000  Uiso   1.00
O1800  O     0.54508   0.79509   0.87291   0.00000  Uiso   1.00
O1801  O     0.58050   0.56279   0.93819   0.00000  Uiso   1.00
O1802  O     0.62524   0.50781   0.89124   0.00000  Uiso   1.00
O1803  O     0.83160   0.92761   0.71371   0.00000  Uiso   1.00
O1804  O     0.84419   0.84855   0.71069   0.00000  Uiso   1.00
O1805  O     0.77827   0.87433   0.75575   0.00000  Uiso   1.00
O1806  O     0.54508   0.79509   0.79375   0.00000  Uiso   1.00
O1807  O     0.95491   0.70491   0.87291   0.00000  Uiso   1.00
O1808  O     0.79508   0.95491   0.87291   0.00000  Uiso   1.00
S1809  S     0.87288   0.69407   0.75082   0.00000  Uiso   1.00
S1810  S     0.82801   0.61551   0.92572   0.00000  Uiso   1.00
S1811  S     0.85829   0.58612   0.73521   0.00000  Uiso   1.00
S1812  S     0.68436   0.86991   0.91791   0.00000  Uiso   1.00
S1813  S     0.85965   0.91560   0.93083   0.00000  Uiso   1.00
S1814  S     0.68491   0.63017   0.74870   0.00000  Uiso   1.00
S1815  S     0.62344   0.55717   0.91661   0.00000  Uiso   1.00
S1816  S     0.82865   0.88517   0.74072   0.00000  Uiso   1.00
S1817  S     0.57801   0.86551   0.92572   0.00000  Uiso   1.00
S1818  S     0.60829   0.83612   0.73521   0.00000  Uiso   1.00
S1819  S     0.93436   0.61991   0.91791   0.00000  Uiso   1.00
S1820  S     0.60965   0.66560   0.93083   0.00000  Uiso   1.00
S1821  S     0.93491   0.88017   0.74870   0.00000  Uiso   1.00
S1822  S     0.87344   0.80717   0.91661   0.00000  Uiso   1.00
S1823  S     0.57865   0.63517   0.74072   0.00000  Uiso   1.00
S1824  S     0.62288   0.94407   0.75082   0.00000  Uiso   1.00
loop_
_geom_bond_atom_site_label_1
_geom_bond_atom_site_label_2
_geom_bond_distance
_geom_bond_site_symmetry_2
_ccdc_geom_bond_type
C1     O106    1.303   .     A
C1     O73     1.298   .     A
C1     C30     1.482   .     S
C2     N221    1.364   .     A
C2     H56     1.073   .     S
C2     C611    1.415   .     S
C3     N222    1.360   .     A
C3     H62     1.071   .     S
C3     C1218   1.415   1_554 S
C4     H63     1.072   .     S
C4     N221    1.361   .     A
C4     C648    1.415   .     S
C5     H64     1.073   .     S
C5     N376    1.365   .     A
C5     C1224   1.415   1_554 S
C6     H65     1.073   .     S
C6     C615    1.415   .     S
C6     N71     1.364   .     S
C7     H66     1.071   .     S
C7     C1222   1.415   1_554 S
C7     N72     1.360   .     S
C8     N375    1.361   .     A
C8     H67     1.072   .     S
C8     C613    1.415   .     S
C9     S137    1.783   .     S
C9     C20     1.399   .     A
C9     C28     1.412   .     A
C10    C27     1.415   .     A
C10    C21     1.388   .     A
C10    S145    1.766   .     S
C11    C18     1.399   .     A
C11    C27     1.424   .     A
C11    S146    1.773   .     S
C12    C29     1.464   .     S
C12    O84     1.298   .     A
C12    O95     1.294   .     A
C13    C28     1.408   .     A
C13    C19     1.388   .     A
C13    S147    1.770   .     S
C14    S148    1.773   .     S
C14    C30     1.422   .     A
C14    C25     1.399   .     A
C15    S149    1.771   .     S
C15    C29     1.408   .     A
C15    C26     1.388   .     A
C16    C22     1.399   .     A
C16    C29     1.412   .     A
C16    S150    1.783   .     S
C17    C30     1.415   .     A
C17    S151    1.767   .     S
C17    C24     1.388   .     A
C18    C32     1.412   .     A
C18    S152    1.783   .     S
C19    C31     1.415   .     A
C19    S138    1.766   .     S
C20    S139    1.773   .     S
C20    C31     1.424   .     A
C21    C32     1.408   .     A
C21    S140    1.770   .     S
C22    C35     1.422   .     A
C22    S141    1.773   .     S
C23    C28     1.464   .     S
C23    O117    1.294   .     A
C23    O135    1.298   .     A
C24    S142    1.771   .     S
C24    C33     1.408   .     A
C25    S143    1.783   .     S
C25    C33     1.412   .     A
C26    S144    1.767   .     S
C26    C35     1.415   .     A
C27    C34     1.483   .     S
C31    C39     1.483   .     S
C32    C38     1.464   .     S
C33    C37     1.464   .     S
C34    O134    1.298   .     A
C34    O128    1.304   .     A
C35    C36     1.482   .     S
C36    O76     1.303   .     A
C36    O136    1.298   .     A
C37    O74     1.298   .     A
C37    O75     1.294   .     A
C38    O77     1.294   .     A
C38    O80     1.298   .     A
C39    O78     1.304   .     A
C39    O79     1.298   .     A
C40    N222    1.365   .     A
C40    H45     1.073   .     S
C40    C1220   1.415   1_554 S
Cu41   O287    1.994   1_455 S
Cu41   N69     2.018   .     S
Cu41   O247    1.990   1_455 S
Cu41   Cu42    2.686   .     S
Cu41   O73     1.994   .     S
Cu41   O128    1.990   .     S
Cu42   O106    1.990   .     S
Cu42   O134    1.994   .     S
Cu42   N70     2.018   .     S
Cu42   O236    1.994   1_455 S
Cu42   O269    1.990   1_455 S
Cu43   N71     2.018   .     S
Cu43   O384    1.994   1_545 S
Cu43   Cu44    2.686   .     S
Cu43   O440    1.994   1_545 S
Cu43   O75     1.990   .     S
Cu43   O78     1.990   .     S
Cu44   O381    1.990   1_545 S
Cu44   O380    1.990   1_545 S
Cu44   N72     2.018   .     S
Cu44   O74     1.994   .     S
Cu44   O79     1.994   .     S
H46    O87     0.991   .     S
H47    O90     0.991   .     S
H48    O245    0.990   1_455 S
H49    O97     0.991   .     S
H50    O100    0.991   .     S
H51    O103    0.991   .     S
H52    O107    0.991   .     S
H53    O414    0.991   1_545 S
H54    O113    0.991   .     S
H55    O116    0.991   .     S
H57    O120    0.990   .     S
H58    O123    0.991   .     S
H59    O126    0.991   .     S
H60    O434    0.991   .     S
H61    O133    0.991   .     S
H68    O83     0.991   .     S
N69    C154    1.364   1_455 A
N69    C156    1.361   1_455 A
N70    C192    1.365   1_455 A
N70    C155    1.360   1_455 A
N71    C312    1.361   1_545 A
N72    C309    1.365   1_545 A
O76    Cu348   1.990   .     S
O77    Cu348   1.990   .     S
O80    Cu347   1.994   .     S
O81    S137    1.501   .     D
O82    S137    1.503   .     D
O83    S137    1.682   .     S
O84    Cu194   1.994   .     S
O85    S145    1.501   .     D
O86    S145    1.503   .     D
O87    S145    1.683   .     S
O88    S146    1.497   .     D
O89    S146    1.502   .     D
O90    S146    1.683   .     S
O91    S147    1.499   .     D
O92    S147    1.504   .     D
O93    S147    1.683   .     S
O93    H200    0.990   .     S
O94    S148    1.497   .     D
O95    Cu193   1.990   .     S
O96    S148    1.503   .     D
O97    S148    1.683   .     S
O98    S149    1.499   .     D
O99    S149    1.503   .     D
O100   S149    1.683   .     S
O101   S150    1.501   .     D
O102   S150    1.503   .     D
O103   S150    1.682   .     S
O104   S151    1.501   .     D
O105   S151    1.502   .     D
O107   S151    1.682   .     S
O108   S152    1.501   .     D
O109   S152    1.503   .     D
O110   S152    1.682   .     S
O110   H357    0.991   .     S
O111   S138    1.501   .     D
O112   S138    1.503   .     D
O113   S138    1.683   .     S
O114   S139    1.497   .     D
O115   S139    1.502   .     D
O116   S139    1.683   .     S
O117   Cu194   1.990   .     S
O118   S140    1.499   .     D
O119   S140    1.504   .     D
O120   S140    1.683   .     S
O121   S141    1.497   .     D
O122   S141    1.503   .     D
O123   S141    1.683   .     S
O124   S142    1.499   .     D
O125   S142    1.503   .     D
O126   S142    1.683   .     S
O127   S143    1.501   .     D
O129   S143    1.503   .     D
O130   S143    1.682   .     S
O130   H364    0.991   1_545 S
O131   S144    1.501   .     D
O132   S144    1.502   .     D
O133   S144    1.682   .     S
O135   Cu193   1.994   .     S
O136   Cu347   1.994   .     S
C153   O258    1.303   .     A
C153   O225    1.298   .     A
C153   C182    1.482   .     S
C154   N69     1.364   1_655 A
C154   H208    1.073   .     S
C154   C763    1.415   .     S
C155   N70     1.360   1_655 A
C155   H214    1.071   .     S
C155   C1370   1.415   1_554 S
C156   H215    1.072   .     S
C156   N69     1.361   1_655 A
C156   C800    1.415   .     S
C157   H216    1.073   .     S
C157   N528    1.365   .     A
C157   C1376   1.415   1_554 S
C158   H217    1.073   .     S
C158   C767    1.415   .     S
C158   N223    1.364   .     S
C159   H218    1.071   .     S
C159   C1374   1.415   1_554 S
C159   N224    1.360   .     S
C160   N527    1.361   .     A
C160   H219    1.072   .     S
C160   C765    1.415   .     S
C161   S289    1.783   .     S
C161   C172    1.399   .     A
C161   C180    1.412   .     A
C162   C179    1.415   .     A
C162   C173    1.388   .     A
C162   S297    1.766   .     S
C163   C170    1.399   .     A
C163   C179    1.424   .     A
C163   S298    1.773   .     S
C164   C181    1.464   .     S
C164   O236    1.298   .     A
C164   O247    1.294   .     A
C165   C180    1.408   .     A
C165   C171    1.388   .     A
C165   S299    1.770   .     S
C166   S300    1.773   .     S
C166   C182    1.422   .     A
C166   C177    1.399   .     A
C167   S301    1.771   .     S
C167   C181    1.408   .     A
C167   C178    1.388   .     A
C168   C174    1.399   .     A
C168   C181    1.412   .     A
C168   S302    1.783   .     S
C169   C182    1.415   .     A
C169   S303    1.767   .     S
C169   C176    1.388   .     A
C170   C184    1.412   .     A
C170   S304    1.783   .     S
C171   C183    1.415   .     A
C171   S290    1.766   .     S
C172   S291    1.773   .     S
C172   C183    1.424   .     A
C173   C184    1.408   .     A
C173   S292    1.770   .     S
C174   C187    1.422   .     A
C174   S293    1.773   .     S
C175   C180    1.464   .     S
C175   O269    1.294   .     A
C175   O287    1.298   .     A
C176   S294    1.771   .     S
C176   C185    1.408   .     A
C177   S295    1.783   .     S
C177   C185    1.412   .     A
C178   S296    1.767   .     S
C178   C187    1.415   .     A
C179   C186    1.483   .     S
C183   C191    1.483   .     S
C184   C190    1.464   .     S
C185   C189    1.464   .     S
C186   O286    1.298   .     A
C186   O280    1.304   .     A
C187   C188    1.482   .     S
C188   O228    1.303   .     A
C188   O288    1.298   .     A
C189   O226    1.298   .     A
C189   O227    1.294   .     A
C190   O229    1.294   .     A
C190   O232    1.298   .     A
C191   O230    1.304   .     A
C191   O231    1.298   .     A
C192   N70     1.365   1_655 A
C192   H197    1.073   .     S
C192   C1372   1.415   1_554 S
Cu193  N221    2.018   .     S
Cu193  Cu194   2.686   .     S
Cu193  O225    1.994   .     S
Cu193  O280    1.990   .     S
Cu194  O258    1.990   .     S
Cu194  O286    1.994   .     S
Cu194  N222    2.018   .     S
Cu195  N223    2.018   .     S
Cu195  O536    1.994   1_545 S
Cu195  Cu196   2.686   .     S
Cu195  O592    1.994   1_545 S
Cu195  O227    1.990   .     S
Cu195  O230    1.990   .     S
Cu196  O533    1.990   1_545 S
Cu196  O532    1.990   1_545 S
Cu196  N224    2.018   .     S
Cu196  O226    1.994   .     S
Cu196  O231    1.994   .     S
H198   O239    0.991   .     S
H199   O242    0.991   .     S
H201   O249    0.991   .     S
H202   O252    0.991   .     S
H203   O255    0.991   .     S
H204   O259    0.991   .     S
H205   O566    0.991   1_545 S
H206   O265    0.991   .     S
H207   O268    0.991   .     S
H209   O272    0.990   .     S
H210   O275    0.991   .     S
H211   O278    0.991   .     S
H212   O586    0.991   .     S
H213   O285    0.991   .     S
H220   O235    0.991   .     S
N223   C464    1.361   1_545 A
N224   C461    1.365   1_545 A
O228   Cu500   1.990   .     S
O229   Cu500   1.990   .     S
O232   Cu499   1.994   .     S
O233   S289    1.501   .     D
O234   S289    1.503   .     D
O235   S289    1.682   .     S
O236   Cu42    1.994   1_655 S
O237   S297    1.501   .     D
O238   S297    1.503   .     D
O239   S297    1.683   .     S
O240   S298    1.497   .     D
O241   S298    1.502   .     D
O242   S298    1.683   .     S
O243   S299    1.499   .     D
O244   S299    1.504   .     D
O245   S299    1.683   .     S
O245   H48     0.990   1_655 S
O246   S300    1.497   .     D
O247   Cu41    1.990   1_655 S
O248   S300    1.503   .     D
O249   S300    1.683   .     S
O250   S301    1.499   .     D
O251   S301    1.503   .     D
O252   S301    1.683   .     S
O253   S302    1.501   .     D
O254   S302    1.503   .     D
O255   S302    1.682   .     S
O256   S303    1.501   .     D
O257   S303    1.502   .     D
O259   S303    1.682   .     S
O260   S304    1.501   .     D
O261   S304    1.503   .     D
O262   S304    1.682   .     S
O262   H509    0.991   .     S
O263   S290    1.501   .     D
O264   S290    1.503   .     D
O265   S290    1.683   .     S
O266   S291    1.497   .     D
O267   S291    1.502   .     D
O268   S291    1.683   .     S
O269   Cu42    1.990   1_655 S
O270   S292    1.499   .     D
O271   S292    1.504   .     D
O272   S292    1.683   .     S
O273   S293    1.497   .     D
O274   S293    1.503   .     D
O275   S293    1.683   .     S
O276   S294    1.499   .     D
O277   S294    1.503   .     D
O278   S294    1.683   .     S
O279   S295    1.501   .     D
O281   S295    1.503   .     D
O282   S295    1.682   .     S
O282   H516    0.991   1_545 S
O283   S296    1.501   .     D
O284   S296    1.502   .     D
O285   S296    1.682   .     S
O287   Cu41    1.994   1_655 S
O288   Cu499   1.994   .     S
C305   O410    1.303   .     A
C305   O377    1.298   .     A
C305   C334    1.482   .     S
C306   N525    1.364   .     A
C306   H360    1.073   .     S
C306   C915    1.415   .     S
C307   N526    1.360   .     A
C307   H366    1.071   .     S
C307   C1522   1.415   1_554 S
C308   H367    1.072   .     S
C308   N525    1.361   .     A
C308   C952    1.415   .     S
C309   H368    1.073   .     S
C309   N72     1.365   1_565 A
C309   C1528   1.415   1_554 S
C310   H369    1.073   .     S
C310   C919    1.415   .     S
C310   N375    1.364   .     S
C311   H370    1.071   .     S
C311   C1526   1.415   1_554 S
C311   N376    1.360   .     S
C312   N71     1.361   1_565 A
C312   H371    1.072   .     S
C312   C917    1.415   .     S
C313   S441    1.783   .     S
C313   C324    1.399   .     A
C313   C332    1.412   .     A
C314   C331    1.415   .     A
C314   C325    1.388   .     A
C314   S449    1.766   .     S
C315   C322    1.399   .     A
C315   C331    1.424   .     A
C315   S450    1.773   .     S
C316   C333    1.464   .     S
C316   O388    1.298   .     A
C316   O399    1.294   .     A
C317   C332    1.408   .     A
C317   C323    1.388   .     A
C317   S451    1.770   .     S
C318   S452    1.773   .     S
C318   C334    1.422   .     A
C318   C329    1.399   .     A
C319   S453    1.771   .     S
C319   C333    1.408   .     A
C319   C330    1.388   .     A
C320   C326    1.399   .     A
C320   C333    1.412   .     A
C320   S454    1.783   .     S
C321   C334    1.415   .     A
C321   S455    1.767   .     S
C321   C328    1.388   .     A
C322   C336    1.412   .     A
C322   S456    1.783   .     S
C323   C335    1.415   .     A
C323   S442    1.766   .     S
C324   S443    1.773   .     S
C324   C335    1.424   .     A
C325   C336    1.408   .     A
C325   S444    1.770   .     S
C326   C339    1.422   .     A
C326   S445    1.773   .     S
C327   C332    1.464   .     S
C327   O421    1.294   .     A
C327   O439    1.298   .     A
C328   S446    1.771   .     S
C328   C337    1.408   .     A
C329   S447    1.783   .     S
C329   C337    1.412   .     A
C330   S448    1.767   .     S
C330   C339    1.415   .     A
C331   C338    1.483   .     S
C335   C343    1.483   .     S
C336   C342    1.464   .     S
C337   C341    1.464   .     S
C338   O438    1.298   .     A
C338   O432    1.304   .     A
C339   C340    1.482   .     S
C340   O380    1.303   .     A
C340   O440    1.298   .     A
C341   O378    1.298   .     A
C341   O379    1.294   .     A
C342   O381    1.294   .     A
C342   O384    1.298   .     A
C343   O382    1.304   .     A
C343   O383    1.298   .     A
C344   N526    1.365   .     A
C344   H349    1.073   .     S
C344   C1524   1.415   1_554 S
Cu345  O591    1.994   1_455 S
Cu345  N373    2.018   .     S
Cu345  O551    1.990   1_455 S
Cu345  Cu346   2.686   .     S
Cu345  O377    1.994   .     S
Cu345  O432    1.990   .     S
Cu346  O410    1.990   .     S
Cu346  O438    1.994   .     S
Cu346  N374    2.018   .     S
Cu346  O540    1.994   1_455 S
Cu346  O573    1.990   1_455 S
Cu347  N375    2.018   .     S
Cu347  Cu348   2.686   .     S
Cu347  O379    1.990   .     S
Cu347  O382    1.990   .     S
Cu348  N376    2.018   .     S
Cu348  O378    1.994   .     S
Cu348  O383    1.994   .     S
H350   O391    0.991   .     S
H351   O394    0.991   .     S
H352   O549    0.990   1_455 S
H353   O401    0.991   .     S
H354   O404    0.991   .     S
H355   O407    0.991   .     S
H356   O411    0.991   .     S
H358   O417    0.991   .     S
H359   O420    0.991   .     S
H361   O424    0.990   .     S
H362   O427    0.991   .     S
H363   O430    0.991   .     S
H364   O130    0.991   1_565 S
H365   O437    0.991   .     S
H372   O387    0.991   .     S
N373   C458    1.364   1_455 A
N373   C460    1.361   1_455 A
N374   C496    1.365   1_455 A
N374   C459    1.360   1_455 A
O380   Cu44    1.990   1_565 S
O381   Cu44    1.990   1_565 S
O384   Cu43    1.994   1_565 S
O385   S441    1.501   .     D
O386   S441    1.503   .     D
O387   S441    1.682   .     S
O388   Cu498   1.994   .     S
O389   S449    1.501   .     D
O390   S449    1.503   .     D
O391   S449    1.683   .     S
O392   S450    1.497   .     D
O393   S450    1.502   .     D
O394   S450    1.683   .     S
O395   S451    1.499   .     D
O396   S451    1.504   .     D
O397   S451    1.683   .     S
O397   H504    0.990   .     S
O398   S452    1.497   .     D
O399   Cu497   1.990   .     S
O400   S452    1.503   .     D
O401   S452    1.683   .     S
O402   S453    1.499   .     D
O403   S453    1.503   .     D
O404   S453    1.683   .     S
O405   S454    1.501   .     D
O406   S454    1.503   .     D
O407   S454    1.682   .     S
O408   S455    1.501   .     D
O409   S455    1.502   .     D
O411   S455    1.682   .     S
O412   S456    1.501   .     D
O413   S456    1.503   .     D
O414   S456    1.682   .     S
O414   H53     0.991   1_565 S
O415   S442    1.501   .     D
O416   S442    1.503   .     D
O417   S442    1.683   .     S
O418   S443    1.497   .     D
O419   S443    1.502   .     D
O420   S443    1.683   .     S
O421   Cu498   1.990   .     S
O422   S444    1.499   .     D
O423   S444    1.504   .     D
O424   S444    1.683   .     S
O425   S445    1.497   .     D
O426   S445    1.503   .     D
O427   S445    1.683   .     S
O428   S446    1.499   .     D
O429   S446    1.503   .     D
O430   S446    1.683   .     S
O431   S447    1.501   .     D
O433   S447    1.503   .     D
O434   S447    1.682   .     S
O435   S448    1.501   .     D
O436   S448    1.502   .     D
O437   S448    1.682   .     S
O439   Cu497   1.994   .     S
O440   Cu43    1.994   1_565 S
C457   O562    1.303   .     A
C457   O529    1.298   .     A
C457   C486    1.482   .     S
C458   N373    1.364   1_655 A
C458   H512    1.073   .     S
C458   C1067   1.415   .     S
C459   N374    1.360   1_655 A
C459   H518    1.071   .     S
C459   C1674   1.415   1_554 S
C460   H519    1.072   .     S
C460   N373    1.361   1_655 A
C460   C1104   1.415   .     S
C461   H520    1.073   .     S
C461   N224    1.365   1_565 A
C461   C1680   1.415   1_554 S
C462   H521    1.073   .     S
C462   C1071   1.415   .     S
C462   N527    1.364   .     S
C463   H522    1.071   .     S
C463   C1678   1.415   1_554 S
C463   N528    1.360   .     S
C464   N223    1.361   1_565 A
C464   H523    1.072   .     S
C464   C1069   1.415   .     S
C465   S593    1.783   .     S
C465   C476    1.399   .     A
C465   C484    1.412   .     A
C466   C483    1.415   .     A
C466   C477    1.388   .     A
C466   S601    1.766   .     S
C467   C474    1.399   .     A
C467   C483    1.424   .     A
C467   S602    1.773   .     S
C468   C485    1.464   .     S
C468   O540    1.298   .     A
C468   O551    1.294   .     A
C469   C484    1.408   .     A
C469   C475    1.388   .     A
C469   S603    1.770   .     S
C470   S604    1.773   .     S
C470   C486    1.422   .     A
C470   C481    1.399   .     A
C471   S605    1.771   .     S
C471   C485    1.408   .     A
C471   C482    1.388   .     A
C472   C478    1.399   .     A
C472   C485    1.412   .     A
C472   S606    1.783   .     S
C473   C486    1.415   .     A
C473   S607    1.767   .     S
C473   C480    1.388   .     A
C474   C488    1.412   .     A
C474   S608    1.783   .     S
C475   C487    1.415   .     A
C475   S594    1.766   .     S
C476   S595    1.773   .     S
C476   C487    1.424   .     A
C477   C488    1.408   .     A
C477   S596    1.770   .     S
C478   C491    1.422   .     A
C478   S597    1.773   .     S
C479   C484    1.464   .     S
C479   O573    1.294   .     A
C479   O591    1.298   .     A
C480   S598    1.771   .     S
C480   C489    1.408   .     A
C481   S599    1.783   .     S
C481   C489    1.412   .     A
C482   S600    1.767   .     S
C482   C491    1.415   .     A
C483   C490    1.483   .     S
C487   C495    1.483   .     S
C488   C494    1.464   .     S
C489   C493    1.464   .     S
C490   O590    1.298   .     A
C490   O584    1.304   .     A
C491   C492    1.482   .     S
C492   O532    1.303   .     A
C492   O592    1.298   .     A
C493   O530    1.298   .     A
C493   O531    1.294   .     A
C494   O533    1.294   .     A
C494   O536    1.298   .     A
C495   O534    1.304   .     A
C495   O535    1.298   .     A
C496   N374    1.365   1_655 A
C496   H501    1.073   .     S
C496   C1676   1.415   1_554 S
Cu497  N525    2.018   .     S
Cu497  Cu498   2.686   .     S
Cu497  O529    1.994   .     S
Cu497  O584    1.990   .     S
Cu498  O562    1.990   .     S
Cu498  O590    1.994   .     S
Cu498  N526    2.018   .     S
Cu499  N527    2.018   .     S
Cu499  Cu500   2.686   .     S
Cu499  O531    1.990   .     S
Cu499  O534    1.990   .     S
Cu500  N528    2.018   .     S
Cu500  O530    1.994   .     S
Cu500  O535    1.994   .     S
H502   O543    0.991   .     S
H503   O546    0.991   .     S
H505   O553    0.991   .     S
H506   O556    0.991   .     S
H507   O559    0.991   .     S
H508   O563    0.991   .     S
H510   O569    0.991   .     S
H511   O572    0.991   .     S
H513   O576    0.990   .     S
H514   O579    0.991   .     S
H515   O582    0.991   .     S
H516   O282    0.991   1_565 S
H517   O589    0.991   .     S
H524   O539    0.991   .     S
O532   Cu196   1.990   1_565 S
O533   Cu196   1.990   1_565 S
O536   Cu195   1.994   1_565 S
O537   S593    1.501   .     D
O538   S593    1.503   .     D
O539   S593    1.682   .     S
O540   Cu346   1.994   1_655 S
O541   S601    1.501   .     D
O542   S601    1.503   .     D
O543   S601    1.683   .     S
O544   S602    1.497   .     D
O545   S602    1.502   .     D
O546   S602    1.683   .     S
O547   S603    1.499   .     D
O548   S603    1.504   .     D
O549   S603    1.683   .     S
O549   H352    0.990   1_655 S
O550   S604    1.497   .     D
O551   Cu345   1.990   1_655 S
O552   S604    1.503   .     D
O553   S604    1.683   .     S
O554   S605    1.499   .     D
O555   S605    1.503   .     D
O556   S605    1.683   .     S
O557   S606    1.501   .     D
O558   S606    1.503   .     D
O559   S606    1.682   .     S
O560   S607    1.501   .     D
O561   S607    1.502   .     D
O563   S607    1.682   .     S
O564   S608    1.501   .     D
O565   S608    1.503   .     D
O566   S608    1.682   .     S
O566   H205    0.991   1_565 S
O567   S594    1.501   .     D
O568   S594    1.503   .     D
O569   S594    1.683   .     S
O570   S595    1.497   .     D
O571   S595    1.502   .     D
O572   S595    1.683   .     S
O573   Cu346   1.990   1_655 S
O574   S596    1.499   .     D
O575   S596    1.504   .     D
O576   S596    1.683   .     S
O577   S597    1.497   .     D
O578   S597    1.503   .     D
O579   S597    1.683   .     S
O580   S598    1.499   .     D
O581   S598    1.503   .     D
O582   S598    1.683   .     S
O583   S599    1.501   .     D
O585   S599    1.503   .     D
O586   S599    1.682   .     S
O587   S600    1.501   .     D
O588   S600    1.502   .     D
O589   S600    1.682   .     S
O591   Cu345   1.994   1_655 S
O592   Cu195   1.994   1_565 S
C609   O714    1.303   .     A
C609   O681    1.298   .     A
C609   C638    1.482   .     S
C610   N829    1.364   .     A
C610   H664    1.073   .     S
C610   C1219   1.415   .     S
C611   N830    1.360   .     A
C611   H670    1.071   .     S
C612   H671    1.072   .     S
C612   N829    1.361   .     A
C612   C1256   1.415   .     S
C613   H672    1.073   .     S
C613   N984    1.365   .     A
C614   H673    1.073   .     S
C614   C1223   1.415   .     S
C614   N679    1.364   .     S
C615   H674    1.071   .     S
C615   N680    1.360   .     S
C616   N983    1.361   .     A
C616   H675    1.072   .     S
C616   C1221   1.415   .     S
C617   S745    1.783   .     S
C617   C628    1.399   .     A
C617   C636    1.412   .     A
C618   C635    1.415   .     A
C618   C629    1.388   .     A
C618   S753    1.766   .     S
C619   C626    1.399   .     A
C619   C635    1.424   .     A
C619   S754    1.773   .     S
C620   C637    1.464   .     S
C620   O692    1.298   .     A
C620   O703    1.294   .     A
C621   C636    1.408   .     A
C621   C627    1.388   .     A
C621   S755    1.770   .     S
C622   S756    1.773   .     S
C622   C638    1.422   .     A
C622   C633    1.399   .     A
C623   S757    1.771   .     S
C623   C637    1.408   .     A
C623   C634    1.388   .     A
C624   C630    1.399   .     A
C624   C637    1.412   .     A
C624   S758    1.783   .     S
C625   C638    1.415   .     A
C625   S759    1.767   .     S
C625   C632    1.388   .     A
C626   C640    1.412   .     A
C626   S760    1.783   .     S
C627   C639    1.415   .     A
C627   S746    1.766   .     S
C628   S747    1.773   .     S
C628   C639    1.424   .     A
C629   C640    1.408   .     A
C629   S748    1.770   .     S
C630   C643    1.422   .     A
C630   S749    1.773   .     S
C631   C636    1.464   .     S
C631   O725    1.294   .     A
C631   O743    1.298   .     A
C632   S750    1.771   .     S
C632   C641    1.408   .     A
C633   S751    1.783   .     S
C633   C641    1.412   .     A
C634   S752    1.767   .     S
C634   C643    1.415   .     A
C635   C642    1.483   .     S
C639   C647    1.483   .     S
C640   C646    1.464   .     S
C641   C645    1.464   .     S
C642   O742    1.298   .     A
C642   O736    1.304   .     A
C643   C644    1.482   .     S
C644   O684    1.303   .     A
C644   O744    1.298   .     A
C645   O682    1.298   .     A
C645   O683    1.294   .     A
C646   O685    1.294   .     A
C646   O688    1.298   .     A
C647   O686    1.304   .     A
C647   O687    1.298   .     A
C648   N830    1.365   .     A
C648   H653    1.073   .     S
Cu649  O895    1.994   1_455 S
Cu649  N677    2.018   .     S
Cu649  O855    1.990   1_455 S
Cu649  Cu650   2.686   .     S
Cu649  O681    1.994   .     S
Cu649  O736    1.990   .     S
Cu650  O714    1.990   .     S
Cu650  O742    1.994   .     S
Cu650  N678    2.018   .     S
Cu650  O844    1.994   1_455 S
Cu650  O877    1.990   1_455 S
Cu651  N679    2.018   .     S
Cu651  O992    1.994   1_545 S
Cu651  Cu652   2.686   .     S
Cu651  O1048   1.994   1_545 S
Cu651  O683    1.990   .     S
Cu651  O686    1.990   .     S
Cu652  O989    1.990   1_545 S
Cu652  O988    1.990   1_545 S
Cu652  N680    2.018   .     S
Cu652  O682    1.994   .     S
Cu652  O687    1.994   .     S
H654   O695    0.991   .     S
H655   O698    0.991   .     S
H656   O853    0.990   1_455 S
H657   O705    0.991   .     S
H658   O708    0.991   .     S
H659   O711    0.991   .     S
H660   O715    0.991   .     S
H661   O1022   0.991   1_545 S
H662   O721    0.991   .     S
H663   O724    0.991   .     S
H665   O728    0.990   .     S
H666   O731    0.991   .     S
H667   O734    0.991   .     S
H668   O1042   0.991   .     S
H669   O741    0.991   .     S
H676   O691    0.991   .     S
N677   C762    1.364   1_455 A
N677   C764    1.361   1_455 A
N678   C800    1.365   1_455 A
N678   C763    1.360   1_455 A
N679   C920    1.361   1_545 A
N680   C917    1.365   1_545 A
O684   Cu956   1.990   .     S
O685   Cu956   1.990   .     S
O688   Cu955   1.994   .     S
O689   S745    1.501   .     D
O690   S745    1.503   .     D
O691   S745    1.682   .     S
O692   Cu802   1.994   .     S
O693   S753    1.501   .     D
O694   S753    1.503   .     D
O695   S753    1.683   .     S
O696   S754    1.497   .     D
O697   S754    1.502   .     D
O698   S754    1.683   .     S
O699   S755    1.499   .     D
O700   S755    1.504   .     D
O701   S755    1.683   .     S
O701   H808    0.990   .     S
O702   S756    1.497   .     D
O703   Cu801   1.990   .     S
O704   S756    1.503   .     D
O705   S756    1.683   .     S
O706   S757    1.499   .     D
O707   S757    1.503   .     D
O708   S757    1.683   .     S
O709   S758    1.501   .     D
O710   S758    1.503   .     D
O711   S758    1.682   .     S
O712   S759    1.501   .     D
O713   S759    1.502   .     D
O715   S759    1.682   .     S
O716   S760    1.501   .     D
O717   S760    1.503   .     D
O718   S760    1.682   .     S
O718   H965    0.991   .     S
O719   S746    1.501   .     D
O720   S746    1.503   .     D
O721   S746    1.683   .     S
O722   S747    1.497   .     D
O723   S747    1.502   .     D
O724   S747    1.683   .     S
O725   Cu802   1.990   .     S
O726   S748    1.499   .     D
O727   S748    1.504   .     D
O728   S748    1.683   .     S
O729   S749    1.497   .     D
O730   S749    1.503   .     D
O731   S749    1.683   .     S
O732   S750    1.499   .     D
O733   S750    1.503   .     D
O734   S750    1.683   .     S
O735   S751    1.501   .     D
O737   S751    1.503   .     D
O738   S751    1.682   .     S
O738   H972    0.991   1_545 S
O739   S752    1.501   .     D
O740   S752    1.502   .     D
O741   S752    1.682   .     S
O743   Cu801   1.994   .     S
O744   Cu955   1.994   .     S
C761   O866    1.303   .     A
C761   O833    1.298   .     A
C761   C790    1.482   .     S
C762   N677    1.364   1_655 A
C762   H816    1.073   .     S
C762   C1371   1.415   .     S
C763   N678    1.360   1_655 A
C763   H822    1.071   .     S
C764   H823    1.072   .     S
C764   N677    1.361   1_655 A
C764   C1408   1.415   .     S
C765   H824    1.073   .     S
C765   N1136   1.365   .     A
C766   H825    1.073   .     S
C766   C1375   1.415   .     S
C766   N831    1.364   .     S
C767   H826    1.071   .     S
C767   N832    1.360   .     S
C768   N1135   1.361   .     A
C768   H827    1.072   .     S
C768   C1373   1.415   .     S
C769   S897    1.783   .     S
C769   C780    1.399   .     A
C769   C788    1.412   .     A
C770   C787    1.415   .     A
C770   C781    1.388   .     A
C770   S905    1.766   .     S
C771   C778    1.399   .     A
C771   C787    1.424   .     A
C771   S906    1.773   .     S
C772   C789    1.464   .     S
C772   O844    1.298   .     A
C772   O855    1.294   .     A
C773   C788    1.408   .     A
C773   C779    1.388   .     A
C773   S907    1.770   .     S
C774   S908    1.773   .     S
C774   C790    1.422   .     A
C774   C785    1.399   .     A
C775   S909    1.771   .     S
C775   C789    1.408   .     A
C775   C786    1.388   .     A
C776   C782    1.399   .     A
C776   C789    1.412   .     A
C776   S910    1.783   .     S
C777   C790    1.415   .     A
C777   S911    1.767   .     S
C777   C784    1.388   .     A
C778   C792    1.412   .     A
C778   S912    1.783   .     S
C779   C791    1.415   .     A
C779   S898    1.766   .     S
C780   S899    1.773   .     S
C780   C791    1.424   .     A
C781   C792    1.408   .     A
C781   S900    1.770   .     S
C782   C795    1.422   .     A
C782   S901    1.773   .     S
C783   C788    1.464   .     S
C783   O877    1.294   .     A
C783   O895    1.298   .     A
C784   S902    1.771   .     S
C784   C793    1.408   .     A
C785   S903    1.783   .     S
C785   C793    1.412   .     A
C786   S904    1.767   .     S
C786   C795    1.415   .     A
C787   C794    1.483   .     S
C791   C799    1.483   .     S
C792   C798    1.464   .     S
C793   C797    1.464   .     S
C794   O894    1.298   .     A
C794   O888    1.304   .     A
C795   C796    1.482   .     S
C796   O836    1.303   .     A
C796   O896    1.298   .     A
C797   O834    1.298   .     A
C797   O835    1.294   .     A
C798   O837    1.294   .     A
C798   O840    1.298   .     A
C799   O838    1.304   .     A
C799   O839    1.298   .     A
C800   N678    1.365   1_655 A
C800   H805    1.073   .     S
Cu801  N829    2.018   .     S
Cu801  Cu802   2.686   .     S
Cu801  O833    1.994   .     S
Cu801  O888    1.990   .     S
Cu802  O866    1.990   .     S
Cu802  O894    1.994   .     S
Cu802  N830    2.018   .     S
Cu803  N831    2.018   .     S
Cu803  O1144   1.994   1_545 S
Cu803  Cu804   2.686   .     S
Cu803  O1200   1.994   1_545 S
Cu803  O835    1.990   .     S
Cu803  O838    1.990   .     S
Cu804  O1141   1.990   1_545 S
Cu804  O1140   1.990   1_545 S
Cu804  N832    2.018   .     S
Cu804  O834    1.994   .     S
Cu804  O839    1.994   .     S
H806   O847    0.991   .     S
H807   O850    0.991   .     S
H809   O857    0.991   .     S
H810   O860    0.991   .     S
H811   O863    0.991   .     S
H812   O867    0.991   .     S
H813   O1174   0.991   1_545 S
H814   O873    0.991   .     S
H815   O876    0.991   .     S
H817   O880    0.990   .     S
H818   O883    0.991   .     S
H819   O886    0.991   .     S
H820   O1194   0.991   .     S
H821   O893    0.991   .     S
H828   O843    0.991   .     S
N831   C1072   1.361   1_545 A
N832   C1069   1.365   1_545 A
O836   Cu1108  1.990   .     S
O837   Cu1108  1.990   .     S
O840   Cu1107  1.994   .     S
O841   S897    1.501   .     D
O842   S897    1.503   .     D
O843   S897    1.682   .     S
O844   Cu650   1.994   1_655 S
O845   S905    1.501   .     D
O846   S905    1.503   .     D
O847   S905    1.683   .     S
O848   S906    1.497   .     D
O849   S906    1.502   .     D
O850   S906    1.683   .     S
O851   S907    1.499   .     D
O852   S907    1.504   .     D
O853   S907    1.683   .     S
O853   H656    0.990   1_655 S
O854   S908    1.497   .     D
O855   Cu649   1.990   1_655 S
O856   S908    1.503   .     D
O857   S908    1.683   .     S
O858   S909    1.499   .     D
O859   S909    1.503   .     D
O860   S909    1.683   .     S
O861   S910    1.501   .     D
O862   S910    1.503   .     D
O863   S910    1.682   .     S
O864   S911    1.501   .     D
O865   S911    1.502   .     D
O867   S911    1.682   .     S
O868   S912    1.501   .     D
O869   S912    1.503   .     D
O870   S912    1.682   .     S
O870   H1117   0.991   .     S
O871   S898    1.501   .     D
O872   S898    1.503   .     D
O873   S898    1.683   .     S
O874   S899    1.497   .     D
O875   S899    1.502   .     D
O876   S899    1.683   .     S
O877   Cu650   1.990   1_655 S
O878   S900    1.499   .     D
O879   S900    1.504   .     D
O880   S900    1.683   .     S
O881   S901    1.497   .     D
O882   S901    1.503   .     D
O883   S901    1.683   .     S
O884   S902    1.499   .     D
O885   S902    1.503   .     D
O886   S902    1.683   .     S
O887   S903    1.501   .     D
O889   S903    1.503   .     D
O890   S903    1.682   .     S
O890   H1124   0.991   1_545 S
O891   S904    1.501   .     D
O892   S904    1.502   .     D
O893   S904    1.682   .     S
O895   Cu649   1.994   1_655 S
O896   Cu1107  1.994   .     S
C913   O1018   1.303   .     A
C913   O985    1.298   .     A
C913   C942    1.482   .     S
C914   N1133   1.364   .     A
C914   H968    1.073   .     S
C914   C1523   1.415   .     S
C915   N1134   1.360   .     A
C915   H974    1.071   .     S
C916   H975    1.072   .     S
C916   N1133   1.361   .     A
C916   C1560   1.415   .     S
C917   H976    1.073   .     S
C917   N680    1.365   1_565 A
C918   H977    1.073   .     S
C918   C1527   1.415   .     S
C918   N983    1.364   .     S
C919   H978    1.071   .     S
C919   N984    1.360   .     S
C920   N679    1.361   1_565 A
C920   H979    1.072   .     S
C920   C1525   1.415   .     S
C921   S1049   1.783   .     S
C921   C932    1.399   .     A
C921   C940    1.412   .     A
C922   C939    1.415   .     A
C922   C933    1.388   .     A
C922   S1057   1.766   .     S
C923   C930    1.399   .     A
C923   C939    1.424   .     A
C923   S1058   1.773   .     S
C924   C941    1.464   .     S
C924   O996    1.298   .     A
C924   O1007   1.294   .     A
C925   C940    1.408   .     A
C925   C931    1.388   .     A
C925   S1059   1.770   .     S
C926   S1060   1.773   .     S
C926   C942    1.422   .     A
C926   C937    1.399   .     A
C927   S1061   1.771   .     S
C927   C941    1.408   .     A
C927   C938    1.388   .     A
C928   C934    1.399   .     A
C928   C941    1.412   .     A
C928   S1062   1.783   .     S
C929   C942    1.415   .     A
C929   S1063   1.767   .     S
C929   C936    1.388   .     A
C930   C944    1.412   .     A
C930   S1064   1.783   .     S
C931   C943    1.415   .     A
C931   S1050   1.766   .     S
C932   S1051   1.773   .     S
C932   C943    1.424   .     A
C933   C944    1.408   .     A
C933   S1052   1.770   .     S
C934   C947    1.422   .     A
C934   S1053   1.773   .     S
C935   C940    1.464   .     S
C935   O1029   1.294   .     A
C935   O1047   1.298   .     A
C936   S1054   1.771   .     S
C936   C945    1.408   .     A
C937   S1055   1.783   .     S
C937   C945    1.412   .     A
C938   S1056   1.767   .     S
C938   C947    1.415   .     A
C939   C946    1.483   .     S
C943   C951    1.483   .     S
C944   C950    1.464   .     S
C945   C949    1.464   .     S
C946   O1046   1.298   .     A
C946   O1040   1.304   .     A
C947   C948    1.482   .     S
C948   O988    1.303   .     A
C948   O1048   1.298   .     A
C949   O986    1.298   .     A
C949   O987    1.294   .     A
C950   O989    1.294   .     A
C950   O992    1.298   .     A
C951   O990    1.304   .     A
C951   O991    1.298   .     A
C952   N1134   1.365   .     A
C952   H957    1.073   .     S
Cu953  O1199   1.994   1_455 S
Cu953  N981    2.018   .     S
Cu953  O1159   1.990   1_455 S
Cu953  Cu954   2.686   .     S
Cu953  O985    1.994   .     S
Cu953  O1040   1.990   .     S
Cu954  O1018   1.990   .     S
Cu954  O1046   1.994   .     S
Cu954  N982    2.018   .     S
Cu954  O1148   1.994   1_455 S
Cu954  O1181   1.990   1_455 S
Cu955  N983    2.018   .     S
Cu955  Cu956   2.686   .     S
Cu955  O987    1.990   .     S
Cu955  O990    1.990   .     S
Cu956  N984    2.018   .     S
Cu956  O986    1.994   .     S
Cu956  O991    1.994   .     S
H958   O999    0.991   .     S
H959   O1002   0.991   .     S
H960   O1157   0.990   1_455 S
H961   O1009   0.991   .     S
H962   O1012   0.991   .     S
H963   O1015   0.991   .     S
H964   O1019   0.991   .     S
H966   O1025   0.991   .     S
H967   O1028   0.991   .     S
H969   O1032   0.990   .     S
H970   O1035   0.991   .     S
H971   O1038   0.991   .     S
H972   O738    0.991   1_565 S
H973   O1045   0.991   .     S
H980   O995    0.991   .     S
N981   C1066   1.364   1_455 A
N981   C1068   1.361   1_455 A
N982   C1104   1.365   1_455 A
N982   C1067   1.360   1_455 A
O988   Cu652   1.990   1_565 S
O989   Cu652   1.990   1_565 S
O992   Cu651   1.994   1_565 S
O993   S1049   1.501   .     D
O994   S1049   1.503   .     D
O995   S1049   1.682   .     S
O996   Cu1106  1.994   .     S
O997   S1057   1.501   .     D
O998   S1057   1.503   .     D
O999   S1057   1.683   .     S
O1000  S1058   1.497   .     D
O1001  S1058   1.502   .     D
O1002  S1058   1.683   .     S
O1003  S1059   1.499   .     D
O1004  S1059   1.504   .     D
O1005  S1059   1.683   .     S
O1005  H1112   0.990   .     S
O1006  S1060   1.497   .     D
O1007  Cu1105  1.990   .     S
O1008  S1060   1.503   .     D
O1009  S1060   1.683   .     S
O1010  S1061   1.499   .     D
O1011  S1061   1.503   .     D
O1012  S1061   1.683   .     S
O1013  S1062   1.501   .     D
O1014  S1062   1.503   .     D
O1015  S1062   1.682   .     S
O1016  S1063   1.501   .     D
O1017  S1063   1.502   .     D
O1019  S1063   1.682   .     S
O1020  S1064   1.501   .     D
O1021  S1064   1.503   .     D
O1022  S1064   1.682   .     S
O1022  H661    0.991   1_565 S
O1023  S1050   1.501   .     D
O1024  S1050   1.503   .     D
O1025  S1050   1.683   .     S
O1026  S1051   1.497   .     D
O1027  S1051   1.502   .     D
O1028  S1051   1.683   .     S
O1029  Cu1106  1.990   .     S
O1030  S1052   1.499   .     D
O1031  S1052   1.504   .     D
O1032  S1052   1.683   .     S
O1033  S1053   1.497   .     D
O1034  S1053   1.503   .     D
O1035  S1053   1.683   .     S
O1036  S1054   1.499   .     D
O1037  S1054   1.503   .     D
O1038  S1054   1.683   .     S
O1039  S1055   1.501   .     D
O1041  S1055   1.503   .     D
O1042  S1055   1.682   .     S
O1043  S1056   1.501   .     D
O1044  S1056   1.502   .     D
O1045  S1056   1.682   .     S
O1047  Cu1105  1.994   .     S
O1048  Cu651   1.994   1_565 S
C1065  O1170   1.303   .     A
C1065  O1137   1.298   .     A
C1065  C1094   1.482   .     S
C1066  N981    1.364   1_655 A
C1066  H1120   1.073   .     S
C1066  C1675   1.415   .     S
C1067  N982    1.360   1_655 A
C1067  H1126   1.071   .     S
C1068  H1127   1.072   .     S
C1068  N981    1.361   1_655 A
C1068  C1712   1.415   .     S
C1069  H1128   1.073   .     S
C1069  N832    1.365   1_565 A
C1070  H1129   1.073   .     S
C1070  C1679   1.415   .     S
C1070  N1135   1.364   .     S
C1071  H1130   1.071   .     S
C1071  N1136   1.360   .     S
C1072  N831    1.361   1_565 A
C1072  H1131   1.072   .     S
C1072  C1677   1.415   .     S
C1073  S1201   1.783   .     S
C1073  C1084   1.399   .     A
C1073  C1092   1.412   .     A
C1074  C1091   1.415   .     A
C1074  C1085   1.388   .     A
C1074  S1209   1.766   .     S
C1075  C1082   1.399   .     A
C1075  C1091   1.424   .     A
C1075  S1210   1.773   .     S
C1076  C1093   1.464   .     S
C1076  O1148   1.298   .     A
C1076  O1159   1.294   .     A
C1077  C1092   1.408   .     A
C1077  C1083   1.388   .     A
C1077  S1211   1.770   .     S
C1078  S1212   1.773   .     S
C1078  C1094   1.422   .     A
C1078  C1089   1.399   .     A
C1079  S1213   1.771   .     S
C1079  C1093   1.408   .     A
C1079  C1090   1.388   .     A
C1080  C1086   1.399   .     A
C1080  C1093   1.412   .     A
C1080  S1214   1.783   .     S
C1081  C1094   1.415   .     A
C1081  S1215   1.767   .     S
C1081  C1088   1.388   .     A
C1082  C1096   1.412   .     A
C1082  S1216   1.783   .     S
C1083  C1095   1.415   .     A
C1083  S1202   1.766   .     S
C1084  S1203   1.773   .     S
C1084  C1095   1.424   .     A
C1085  C1096   1.408   .     A
C1085  S1204   1.770   .     S
C1086  C1099   1.422   .     A
C1086  S1205   1.773   .     S
C1087  C1092   1.464   .     S
C1087  O1181   1.294   .     A
C1087  O1199   1.298   .     A
C1088  S1206   1.771   .     S
C1088  C1097   1.408   .     A
C1089  S1207   1.783   .     S
C1089  C1097   1.412   .     A
C1090  S1208   1.767   .     S
C1090  C1099   1.415   .     A
C1091  C1098   1.483   .     S
C1095  C1103   1.483   .     S
C1096  C1102   1.464   .     S
C1097  C1101   1.464   .     S
C1098  O1198   1.298   .     A
C1098  O1192   1.304   .     A
C1099  C1100   1.482   .     S
C1100  O1140   1.303   .     A
C1100  O1200   1.298   .     A
C1101  O1138   1.298   .     A
C1101  O1139   1.294   .     A
C1102  O1141   1.294   .     A
C1102  O1144   1.298   .     A
C1103  O1142   1.304   .     A
C1103  O1143   1.298   .     A
C1104  N982    1.365   1_655 A
C1104  H1109   1.073   .     S
Cu1105 N1133   2.018   .     S
Cu1105 Cu1106  2.686   .     S
Cu1105 O1137   1.994   .     S
Cu1105 O1192   1.990   .     S
Cu1106 O1170   1.990   .     S
Cu1106 O1198   1.994   .     S
Cu1106 N1134   2.018   .     S
Cu1107 N1135   2.018   .     S
Cu1107 Cu1108  2.686   .     S
Cu1107 O1139   1.990   .     S
Cu1107 O1142   1.990   .     S
Cu1108 N1136   2.018   .     S
Cu1108 O1138   1.994   .     S
Cu1108 O1143   1.994   .     S
H1110  O1151   0.991   .     S
H1111  O1154   0.991   .     S
H1113  O1161   0.991   .     S
H1114  O1164   0.991   .     S
H1115  O1167   0.991   .     S
H1116  O1171   0.991   .     S
H1118  O1177   0.991   .     S
H1119  O1180   0.991   .     S
H1121  O1184   0.990   .     S
H1122  O1187   0.991   .     S
H1123  O1190   0.991   .     S
H1124  O890    0.991   1_565 S
H1125  O1197   0.991   .     S
H1132  O1147   0.991   .     S
O1140  Cu804   1.990   1_565 S
O1141  Cu804   1.990   1_565 S
O1144  Cu803   1.994   1_565 S
O1145  S1201   1.501   .     D
O1146  S1201   1.503   .     D
O1147  S1201   1.682   .     S
O1148  Cu954   1.994   1_655 S
O1149  S1209   1.501   .     D
O1150  S1209   1.503   .     D
O1151  S1209   1.683   .     S
O1152  S1210   1.497   .     D
O1153  S1210   1.502   .     D
O1154  S1210   1.683   .     S
O1155  S1211   1.499   .     D
O1156  S1211   1.504   .     D
O1157  S1211   1.683   .     S
O1157  H960    0.990   1_655 S
O1158  S1212   1.497   .     D
O1159  Cu953   1.990   1_655 S
O1160  S1212   1.503   .     D
O1161  S1212   1.683   .     S
O1162  S1213   1.499   .     D
O1163  S1213   1.503   .     D
O1164  S1213   1.683   .     S
O1165  S1214   1.501   .     D
O1166  S1214   1.503   .     D
O1167  S1214   1.682   .     S
O1168  S1215   1.501   .     D
O1169  S1215   1.502   .     D
O1171  S1215   1.682   .     S
O1172  S1216   1.501   .     D
O1173  S1216   1.503   .     D
O1174  S1216   1.682   .     S
O1174  H813    0.991   1_565 S
O1175  S1202   1.501   .     D
O1176  S1202   1.503   .     D
O1177  S1202   1.683   .     S
O1178  S1203   1.497   .     D
O1179  S1203   1.502   .     D
O1180  S1203   1.683   .     S
O1181  Cu954   1.990   1_655 S
O1182  S1204   1.499   .     D
O1183  S1204   1.504   .     D
O1184  S1204   1.683   .     S
O1185  S1205   1.497   .     D
O1186  S1205   1.503   .     D
O1187  S1205   1.683   .     S
O1188  S1206   1.499   .     D
O1189  S1206   1.503   .     D
O1190  S1206   1.683   .     S
O1191  S1207   1.501   .     D
O1193  S1207   1.503   .     D
O1194  S1207   1.682   .     S
O1195  S1208   1.501   .     D
O1196  S1208   1.502   .     D
O1197  S1208   1.682   .     S
O1199  Cu953   1.994   1_655 S
O1200  Cu803   1.994   1_565 S
C1217  O1322   1.303   .     A
C1217  O1289   1.298   .     A
C1217  C1246   1.482   .     S
C1218  N1437   1.364   .     A
C1218  H1272   1.073   .     S
C1218  C3      1.415   1_556 S
C1219  N1438   1.360   .     A
C1219  H1278   1.071   .     S
C1220  H1279   1.072   .     S
C1220  N1437   1.361   .     A
C1220  C40     1.415   1_556 S
C1221  H1280   1.073   .     S
C1221  N1592   1.365   .     A
C1222  H1281   1.073   .     S
C1222  C7      1.415   1_556 S
C1222  N1287   1.364   .     S
C1223  H1282   1.071   .     S
C1223  N1288   1.360   .     S
C1224  N1591   1.361   .     A
C1224  H1283   1.072   .     S
C1224  C5      1.415   1_556 S
C1225  S1353   1.783   .     S
C1225  C1236   1.399   .     A
C1225  C1244   1.412   .     A
C1226  C1243   1.415   .     A
C1226  C1237   1.388   .     A
C1226  S1361   1.766   .     S
C1227  C1234   1.399   .     A
C1227  C1243   1.424   .     A
C1227  S1362   1.773   .     S
C1228  C1245   1.464   .     S
C1228  O1300   1.298   .     A
C1228  O1311   1.294   .     A
C1229  C1244   1.408   .     A
C1229  C1235   1.388   .     A
C1229  S1363   1.770   .     S
C1230  S1364   1.773   .     S
C1230  C1246   1.422   .     A
C1230  C1241   1.399   .     A
C1231  S1365   1.771   .     S
C1231  C1245   1.408   .     A
C1231  C1242   1.388   .     A
C1232  C1238   1.399   .     A
C1232  C1245   1.412   .     A
C1232  S1366   1.783   .     S
C1233  C1246   1.415   .     A
C1233  S1367   1.767   .     S
C1233  C1240   1.388   .     A
C1234  C1248   1.412   .     A
C1234  S1368   1.783   .     S
C1235  C1247   1.415   .     A
C1235  S1354   1.766   .     S
C1236  S1355   1.773   .     S
C1236  C1247   1.424   .     A
C1237  C1248   1.408   .     A
C1237  S1356   1.770   .     S
C1238  C1251   1.422   .     A
C1238  S1357   1.773   .     S
C1239  C1244   1.464   .     S
C1239  O1333   1.294   .     A
C1239  O1351   1.298   .     A
C1240  S1358   1.771   .     S
C1240  C1249   1.408   .     A
C1241  S1359   1.783   .     S
C1241  C1249   1.412   .     A
C1242  S1360   1.767   .     S
C1242  C1251   1.415   .     A
C1243  C1250   1.483   .     S
C1247  C1255   1.483   .     S
C1248  C1254   1.464   .     S
C1249  C1253   1.464   .     S
C1250  O1350   1.298   .     A
C1250  O1344   1.304   .     A
C1251  C1252   1.482   .     S
C1252  O1292   1.303   .     A
C1252  O1352   1.298   .     A
C1253  O1290   1.298   .     A
C1253  O1291   1.294   .     A
C1254  O1293   1.294   .     A
C1254  O1296   1.298   .     A
C1255  O1294   1.304   .     A
C1255  O1295   1.298   .     A
C1256  N1438   1.365   .     A
C1256  H1261   1.073   .     S
Cu1257 O1503   1.994   1_455 S
Cu1257 N1285   2.018   .     S
Cu1257 O1463   1.990   1_455 S
Cu1257 Cu1258  2.686   .     S
Cu1257 O1289   1.994   .     S
Cu1257 O1344   1.990   .     S
Cu1258 O1322   1.990   .     S
Cu1258 O1350   1.994   .     S
Cu1258 N1286   2.018   .     S
Cu1258 O1452   1.994   1_455 S
Cu1258 O1485   1.990   1_455 S
Cu1259 N1287   2.018   .     S
Cu1259 O1600   1.994   1_545 S
Cu1259 Cu1260  2.686   .     S
Cu1259 O1656   1.994   1_545 S
Cu1259 O1291   1.990   .     S
Cu1259 O1294   1.990   .     S
Cu1260 O1597   1.990   1_545 S
Cu1260 O1596   1.990   1_545 S
Cu1260 N1288   2.018   .     S
Cu1260 O1290   1.994   .     S
Cu1260 O1295   1.994   .     S
H1262  O1303   0.991   .     S
H1263  O1306   0.991   .     S
H1264  O1461   0.990   1_455 S
H1265  O1313   0.991   .     S
H1266  O1316   0.991   .     S
H1267  O1319   0.991   .     S
H1268  O1323   0.991   .     S
H1269  O1630   0.991   1_545 S
H1270  O1329   0.991   .     S
H1271  O1332   0.991   .     S
H1273  O1336   0.990   .     S
H1274  O1339   0.991   .     S
H1275  O1342   0.991   .     S
H1276  O1650   0.991   .     S
H1277  O1349   0.991   .     S
H1284  O1299   0.991   .     S
N1285  C1370   1.364   1_455 A
N1285  C1372   1.361   1_455 A
N1286  C1408   1.365   1_455 A
N1286  C1371   1.360   1_455 A
N1287  C1528   1.361   1_545 A
N1288  C1525   1.365   1_545 A
O1292  Cu1564  1.990   .     S
O1293  Cu1564  1.990   .     S
O1296  Cu1563  1.994   .     S
O1297  S1353   1.501   .     D
O1298  S1353   1.503   .     D
O1299  S1353   1.682   .     S
O1300  Cu1410  1.994   .     S
O1301  S1361   1.501   .     D
O1302  S1361   1.503   .     D
O1303  S1361   1.683   .     S
O1304  S1362   1.497   .     D
O1305  S1362   1.502   .     D
O1306  S1362   1.683   .     S
O1307  S1363   1.499   .     D
O1308  S1363   1.504   .     D
O1309  S1363   1.683   .     S
O1309  H1416   0.990   .     S
O1310  S1364   1.497   .     D
O1311  Cu1409  1.990   .     S
O1312  S1364   1.503   .     D
O1313  S1364   1.683   .     S
O1314  S1365   1.499   .     D
O1315  S1365   1.503   .     D
O1316  S1365   1.683   .     S
O1317  S1366   1.501   .     D
O1318  S1366   1.503   .     D
O1319  S1366   1.682   .     S
O1320  S1367   1.501   .     D
O1321  S1367   1.502   .     D
O1323  S1367   1.682   .     S
O1324  S1368   1.501   .     D
O1325  S1368   1.503   .     D
O1326  S1368   1.682   .     S
O1326  H1573   0.991   .     S
O1327  S1354   1.501   .     D
O1328  S1354   1.503   .     D
O1329  S1354   1.683   .     S
O1330  S1355   1.497   .     D
O1331  S1355   1.502   .     D
O1332  S1355   1.683   .     S
O1333  Cu1410  1.990   .     S
O1334  S1356   1.499   .     D
O1335  S1356   1.504   .     D
O1336  S1356   1.683   .     S
O1337  S1357   1.497   .     D
O1338  S1357   1.503   .     D
O1339  S1357   1.683   .     S
O1340  S1358   1.499   .     D
O1341  S1358   1.503   .     D
O1342  S1358   1.683   .     S
O1343  S1359   1.501   .     D
O1345  S1359   1.503   .     D
O1346  S1359   1.682   .     S
O1346  H1580   0.991   1_545 S
O1347  S1360   1.501   .     D
O1348  S1360   1.502   .     D
O1349  S1360   1.682   .     S
O1351  Cu1409  1.994   .     S
O1352  Cu1563  1.994   .     S
C1369  O1474   1.303   .     A
C1369  O1441   1.298   .     A
C1369  C1398   1.482   .     S
C1370  N1285   1.364   1_655 A
C1370  H1424   1.073   .     S
C1370  C155    1.415   1_556 S
C1371  N1286   1.360   1_655 A
C1371  H1430   1.071   .     S
C1372  H1431   1.072   .     S
C1372  N1285   1.361   1_655 A
C1372  C192    1.415   1_556 S
C1373  H1432   1.073   .     S
C1373  N1744   1.365   .     A
C1374  H1433   1.073   .     S
C1374  C159    1.415   1_556 S
C1374  N1439   1.364   .     S
C1375  H1434   1.071   .     S
C1375  N1440   1.360   .     S
C1376  N1743   1.361   .     A
C1376  H1435   1.072   .     S
C1376  C157    1.415   1_556 S
C1377  S1505   1.783   .     S
C1377  C1388   1.399   .     A
C1377  C1396   1.412   .     A
C1378  C1395   1.415   .     A
C1378  C1389   1.388   .     A
C1378  S1513   1.766   .     S
C1379  C1386   1.399   .     A
C1379  C1395   1.424   .     A
C1379  S1514   1.773   .     S
C1380  C1397   1.464   .     S
C1380  O1452   1.298   .     A
C1380  O1463   1.294   .     A
C1381  C1396   1.408   .     A
C1381  C1387   1.388   .     A
C1381  S1515   1.770   .     S
C1382  S1516   1.773   .     S
C1382  C1398   1.422   .     A
C1382  C1393   1.399   .     A
C1383  S1517   1.771   .     S
C1383  C1397   1.408   .     A
C1383  C1394   1.388   .     A
C1384  C1390   1.399   .     A
C1384  C1397   1.412   .     A
C1384  S1518   1.783   .     S
C1385  C1398   1.415   .     A
C1385  S1519   1.767   .     S
C1385  C1392   1.388   .     A
C1386  C1400   1.412   .     A
C1386  S1520   1.783   .     S
C1387  C1399   1.415   .     A
C1387  S1506   1.766   .     S
C1388  S1507   1.773   .     S
C1388  C1399   1.424   .     A
C1389  C1400   1.408   .     A
C1389  S1508   1.770   .     S
C1390  C1403   1.422   .     A
C1390  S1509   1.773   .     S
C1391  C1396   1.464   .     S
C1391  O1485   1.294   .     A
C1391  O1503   1.298   .     A
C1392  S1510   1.771   .     S
C1392  C1401   1.408   .     A
C1393  S1511   1.783   .     S
C1393  C1401   1.412   .     A
C1394  S1512   1.767   .     S
C1394  C1403   1.415   .     A
C1395  C1402   1.483   .     S
C1399  C1407   1.483   .     S
C1400  C1406   1.464   .     S
C1401  C1405   1.464   .     S
C1402  O1502   1.298   .     A
C1402  O1496   1.304   .     A
C1403  C1404   1.482   .     S
C1404  O1444   1.303   .     A
C1404  O1504   1.298   .     A
C1405  O1442   1.298   .     A
C1405  O1443   1.294   .     A
C1406  O1445   1.294   .     A
C1406  O1448   1.298   .     A
C1407  O1446   1.304   .     A
C1407  O1447   1.298   .     A
C1408  N1286   1.365   1_655 A
C1408  H1413   1.073   .     S
Cu1409 N1437   2.018   .     S
Cu1409 Cu1410  2.686   .     S
Cu1409 O1441   1.994   .     S
Cu1409 O1496   1.990   .     S
Cu1410 O1474   1.990   .     S
Cu1410 O1502   1.994   .     S
Cu1410 N1438   2.018   .     S
Cu1411 N1439   2.018   .     S
Cu1411 O1752   1.994   1_545 S
Cu1411 Cu1412  2.686   .     S
Cu1411 O1808   1.994   1_545 S
Cu1411 O1443   1.990   .     S
Cu1411 O1446   1.990   .     S
Cu1412 O1749   1.990   1_545 S
Cu1412 O1748   1.990   1_545 S
Cu1412 N1440   2.018   .     S
Cu1412 O1442   1.994   .     S
Cu1412 O1447   1.994   .     S
H1414  O1455   0.991   .     S
H1415  O1458   0.991   .     S
H1417  O1465   0.991   .     S
H1418  O1468   0.991   .     S
H1419  O1471   0.991   .     S
H1420  O1475   0.991   .     S
H1421  O1782   0.991   1_545 S
H1422  O1481   0.991   .     S
H1423  O1484   0.991   .     S
H1425  O1488   0.990   .     S
H1426  O1491   0.991   .     S
H1427  O1494   0.991   .     S
H1428  O1802   0.991   .     S
H1429  O1501   0.991   .     S
H1436  O1451   0.991   .     S
N1439  C1680   1.361   1_545 A
N1440  C1677   1.365   1_545 A
O1444  Cu1716  1.990   .     S
O1445  Cu1716  1.990   .     S
O1448  Cu1715  1.994   .     S
O1449  S1505   1.501   .     D
O1450  S1505   1.503   .     D
O1451  S1505   1.682   .     S
O1452  Cu1258  1.994   1_655 S
O1453  S1513   1.501   .     D
O1454  S1513   1.503   .     D
O1455  S1513   1.683   .     S
O1456  S1514   1.497   .     D
O1457  S1514   1.502   .     D
O1458  S1514   1.683   .     S
O1459  S1515   1.499   .     D
O1460  S1515   1.504   .     D
O1461  S1515   1.683   .     S
O1461  H1264   0.990   1_655 S
O1462  S1516   1.497   .     D
O1463  Cu1257  1.990   1_655 S
O1464  S1516   1.503   .     D
O1465  S1516   1.683   .     S
O1466  S1517   1.499   .     D
O1467  S1517   1.503   .     D
O1468  S1517   1.683   .     S
O1469  S1518   1.501   .     D
O1470  S1518   1.503   .     D
O1471  S1518   1.682   .     S
O1472  S1519   1.501   .     D
O1473  S1519   1.502   .     D
O1475  S1519   1.682   .     S
O1476  S1520   1.501   .     D
O1477  S1520   1.503   .     D
O1478  S1520   1.682   .     S
O1478  H1725   0.991   .     S
O1479  S1506   1.501   .     D
O1480  S1506   1.503   .     D
O1481  S1506   1.683   .     S
O1482  S1507   1.497   .     D
O1483  S1507   1.502   .     D
O1484  S1507   1.683   .     S
O1485  Cu1258  1.990   1_655 S
O1486  S1508   1.499   .     D
O1487  S1508   1.504   .     D
O1488  S1508   1.683   .     S
O1489  S1509   1.497   .     D
O1490  S1509   1.503   .     D
O1491  S1509   1.683   .     S
O1492  S1510   1.499   .     D
O1493  S1510   1.503   .     D
O1494  S1510   1.683   .     S
O1495  S1511   1.501   .     D
O1497  S1511   1.503   .     D
O1498  S1511   1.682   .     S
O1498  H1732   0.991   1_545 S
O1499  S1512   1.501   .     D
O1500  S1512   1.502   .     D
O1501  S1512   1.682   .     S
O1503  Cu1257  1.994   1_655 S
O1504  Cu1715  1.994   .     S
C1521  O1626   1.303   .     A
C1521  O1593   1.298   .     A
C1521  C1550   1.482   .     S
C1522  N1741   1.364   .     A
C1522  H1576   1.073   .     S
C1522  C307    1.415   1_556 S
C1523  N1742   1.360   .     A
C1523  H1582   1.071   .     S
C1524  H1583   1.072   .     S
C1524  N1741   1.361   .     A
C1524  C344    1.415   1_556 S
C1525  H1584   1.073   .     S
C1525  N1288   1.365   1_565 A
C1526  H1585   1.073   .     S
C1526  C311    1.415   1_556 S
C1526  N1591   1.364   .     S
C1527  H1586   1.071   .     S
C1527  N1592   1.360   .     S
C1528  N1287   1.361   1_565 A
C1528  H1587   1.072   .     S
C1528  C309    1.415   1_556 S
C1529  S1657   1.783   .     S
C1529  C1540   1.399   .     A
C1529  C1548   1.412   .     A
C1530  C1547   1.415   .     A
C1530  C1541   1.388   .     A
C1530  S1665   1.766   .     S
C1531  C1538   1.399   .     A
C1531  C1547   1.424   .     A
C1531  S1666   1.773   .     S
C1532  C1549   1.464   .     S
C1532  O1604   1.298   .     A
C1532  O1615   1.294   .     A
C1533  C1548   1.408   .     A
C1533  C1539   1.388   .     A
C1533  S1667   1.770   .     S
C1534  S1668   1.773   .     S
C1534  C1550   1.422   .     A
C1534  C1545   1.399   .     A
C1535  S1669   1.771   .     S
C1535  C1549   1.408   .     A
C1535  C1546   1.388   .     A
C1536  C1542   1.399   .     A
C1536  C1549   1.412   .     A
C1536  S1670   1.783   .     S
C1537  C1550   1.415   .     A
C1537  S1671   1.767   .     S
C1537  C1544   1.388   .     A
C1538  C1552   1.412   .     A
C1538  S1672   1.783   .     S
C1539  C1551   1.415   .     A
C1539  S1658   1.766   .     S
C1540  S1659   1.773   .     S
C1540  C1551   1.424   .     A
C1541  C1552   1.408   .     A
C1541  S1660   1.770   .     S
C1542  C1555   1.422   .     A
C1542  S1661   1.773   .     S
C1543  C1548   1.464   .     S
C1543  O1637   1.294   .     A
C1543  O1655   1.298   .     A
C1544  S1662   1.771   .     S
C1544  C1553   1.408   .     A
C1545  S1663   1.783   .     S
C1545  C1553   1.412   .     A
C1546  S1664   1.767   .     S
C1546  C1555   1.415   .     A
C1547  C1554   1.483   .     S
C1551  C1559   1.483   .     S
C1552  C1558   1.464   .     S
C1553  C1557   1.464   .     S
C1554  O1654   1.298   .     A
C1554  O1648   1.304   .     A
C1555  C1556   1.482   .     S
C1556  O1596   1.303   .     A
C1556  O1656   1.298   .     A
C1557  O1594   1.298   .     A
C1557  O1595   1.294   .     A
C1558  O1597   1.294   .     A
C1558  O1600   1.298   .     A
C1559  O1598   1.304   .     A
C1559  O1599   1.298   .     A
C1560  N1742   1.365   .     A
C1560  H1565   1.073   .     S
Cu1561 O1807   1.994   1_455 S
Cu1561 N1589   2.018   .     S
Cu1561 O1767   1.990   1_455 S
Cu1561 Cu1562  2.686   .     S
Cu1561 O1593   1.994   .     S
Cu1561 O1648   1.990   .     S
Cu1562 O1626   1.990   .     S
Cu1562 O1654   1.994   .     S
Cu1562 N1590   2.018   .     S
Cu1562 O1756   1.994   1_455 S
Cu1562 O1789   1.990   1_455 S
Cu1563 N1591   2.018   .     S
Cu1563 Cu1564  2.686   .     S
Cu1563 O1595   1.990   .     S
Cu1563 O1598   1.990   .     S
Cu1564 N1592   2.018   .     S
Cu1564 O1594   1.994   .     S
Cu1564 O1599   1.994   .     S
H1566  O1607   0.991   .     S
H1567  O1610   0.991   .     S
H1568  O1765   0.990   1_455 S
H1569  O1617   0.991   .     S
H1570  O1620   0.991   .     S
H1571  O1623   0.991   .     S
H1572  O1627   0.991   .     S
H1574  O1633   0.991   .     S
H1575  O1636   0.991   .     S
H1577  O1640   0.990   .     S
H1578  O1643   0.991   .     S
H1579  O1646   0.991   .     S
H1580  O1346   0.991   1_565 S
H1581  O1653   0.991   .     S
H1588  O1603   0.991   .     S
N1589  C1674   1.364   1_455 A
N1589  C1676   1.361   1_455 A
N1590  C1712   1.365   1_455 A
N1590  C1675   1.360   1_455 A
O1596  Cu1260  1.990   1_565 S
O1597  Cu1260  1.990   1_565 S
O1600  Cu1259  1.994   1_565 S
O1601  S1657   1.501   .     D
O1602  S1657   1.503   .     D
O1603  S1657   1.682   .     S
O1604  Cu1714  1.994   .     S
O1605  S1665   1.501   .     D
O1606  S1665   1.503   .     D
O1607  S1665   1.683   .     S
O1608  S1666   1.497   .     D
O1609  S1666   1.502   .     D
O1610  S1666   1.683   .     S
O1611  S1667   1.499   .     D
O1612  S1667   1.504   .     D
O1613  S1667   1.683   .     S
O1613  H1720   0.990   .     S
O1614  S1668   1.497   .     D
O1615  Cu1713  1.990   .     S
O1616  S1668   1.503   .     D
O1617  S1668   1.683   .     S
O1618  S1669   1.499   .     D
O1619  S1669   1.503   .     D
O1620  S1669   1.683   .     S
O1621  S1670   1.501   .     D
O1622  S1670   1.503   .     D
O1623  S1670   1.682   .     S
O1624  S1671   1.501   .     D
O1625  S1671   1.502   .     D
O1627  S1671   1.682   .     S
O1628  S1672   1.501   .     D
O1629  S1672   1.503   .     D
O1630  S1672   1.682   .     S
O1630  H1269   0.991   1_565 S
O1631  S1658   1.501   .     D
O1632  S1658   1.503   .     D
O1633  S1658   1.683   .     S
O1634  S1659   1.497   .     D
O1635  S1659   1.502   .     D
O1636  S1659   1.683   .     S
O1637  Cu1714  1.990   .     S
O1638  S1660   1.499   .     D
O1639  S1660   1.504   .     D
O1640  S1660   1.683   .     S
O1641  S1661   1.497   .     D
O1642  S1661   1.503   .     D
O1643  S1661   1.683   .     S
O1644  S1662   1.499   .     D
O1645  S1662   1.503   .     D
O1646  S1662   1.683   .     S
O1647  S1663   1.501   .     D
O1649  S1663   1.503   .     D
O1650  S1663   1.682   .     S
O1651  S1664   1.501   .     D
O1652  S1664   1.502   .     D
O1653  S1664   1.682   .     S
O1655  Cu1713  1.994   .     S
O1656  Cu1259  1.994   1_565 S
C1673  O1778   1.303   .     A
C1673  O1745   1.298   .     A
C1673  C1702   1.482   .     S
C1674  N1589   1.364   1_655 A
C1674  H1728   1.073   .     S
C1674  C459    1.415   1_556 S
C1675  N1590   1.360   1_655 A
C1675  H1734   1.071   .     S
C1676  H1735   1.072   .     S
C1676  N1589   1.361   1_655 A
C1676  C496    1.415   1_556 S
C1677  H1736   1.073   .     S
C1677  N1440   1.365   1_565 A
C1678  H1737   1.073   .     S
C1678  C463    1.415   1_556 S
C1678  N1743   1.364   .     S
C1679  H1738   1.071   .     S
C1679  N1744   1.360   .     S
C1680  N1439   1.361   1_565 A
C1680  H1739   1.072   .     S
C1680  C461    1.415   1_556 S
C1681  S1809   1.783   .     S
C1681  C1692   1.399   .     A
C1681  C1700   1.412   .     A
C1682  C1699   1.415   .     A
C1682  C1693   1.388   .     A
C1682  S1817   1.766   .     S
C1683  C1690   1.399   .     A
C1683  C1699   1.424   .     A
C1683  S1818   1.773   .     S
C1684  C1701   1.464   .     S
C1684  O1756   1.298   .     A
C1684  O1767   1.294   .     A
C1685  C1700   1.408   .     A
C1685  C1691   1.388   .     A
C1685  S1819   1.770   .     S
C1686  S1820   1.773   .     S
C1686  C1702   1.422   .     A
C1686  C1697   1.399   .     A
C1687  S1821   1.771   .     S
C1687  C1701   1.408   .     A
C1687  C1698   1.388   .     A
C1688  C1694   1.399   .     A
C1688  C1701   1.412   .     A
C1688  S1822   1.783   .     S
C1689  C1702   1.415   .     A
C1689  S1823   1.767   .     S
C1689  C1696   1.388   .     A
C1690  C1704   1.412   .     A
C1690  S1824   1.783   .     S
C1691  C1703   1.415   .     A
C1691  S1810   1.766   .     S
C1692  S1811   1.773   .     S
C1692  C1703   1.424   .     A
C1693  C1704   1.408   .     A
C1693  S1812   1.770   .     S
C1694  C1707   1.422   .     A
C1694  S1813   1.773   .     S
C1695  C1700   1.464   .     S
C1695  O1789   1.294   .     A
C1695  O1807   1.298   .     A
C1696  S1814   1.771   .     S
C1696  C1705   1.408   .     A
C1697  S1815   1.783   .     S
C1697  C1705   1.412   .     A
C1698  S1816   1.767   .     S
C1698  C1707   1.415   .     A
C1699  C1706   1.483   .     S
C1703  C1711   1.483   .     S
C1704  C1710   1.464   .     S
C1705  C1709   1.464   .     S
C1706  O1806   1.298   .     A
C1706  O1800   1.304   .     A
C1707  C1708   1.482   .     S
C1708  O1748   1.303   .     A
C1708  O1808   1.298   .     A
C1709  O1746   1.298   .     A
C1709  O1747   1.294   .     A
C1710  O1749   1.294   .     A
C1710  O1752   1.298   .     A
C1711  O1750   1.304   .     A
C1711  O1751   1.298   .     A
C1712  N1590   1.365   1_655 A
C1712  H1717   1.073   .     S
Cu1713 N1741   2.018   .     S
Cu1713 Cu1714  2.686   .     S
Cu1713 O1745   1.994   .     S
Cu1713 O1800   1.990   .     S
Cu1714 O1778   1.990   .     S
Cu1714 O1806   1.994   .     S
Cu1714 N1742   2.018   .     S
Cu1715 N1743   2.018   .     S
Cu1715 Cu1716  2.686   .     S
Cu1715 O1747   1.990   .     S
Cu1715 O1750   1.990   .     S
Cu1716 N1744   2.018   .     S
Cu1716 O1746   1.994   .     S
Cu1716 O1751   1.994   .     S
H1718  O1759   0.991   .     S
H1719  O1762   0.991   .     S
H1721  O1769   0.991   .     S
H1722  O1772   0.991   .     S
H1723  O1775   0.991   .     S
H1724  O1779   0.991   .     S
H1726  O1785   0.991   .     S
H1727  O1788   0.991   .     S
H1729  O1792   0.990   .     S
H1730  O1795   0.991   .     S
H1731  O1798   0.991   .     S
H1732  O1498   0.991   1_565 S
H1733  O1805   0.991   .     S
H1740  O1755   0.991   .     S
O1748  Cu1412  1.990   1_565 S
O1749  Cu1412  1.990   1_565 S
O1752  Cu1411  1.994   1_565 S
O1753  S1809   1.501   .     D
O1754  S1809   1.503   .     D
O1755  S1809   1.682   .     S
O1756  Cu1562  1.994   1_655 S
O1757  S1817   1.501   .     D
O1758  S1817   1.503   .     D
O1759  S1817   1.683   .     S
O1760  S1818   1.497   .     D
O1761  S1818   1.502   .     D
O1762  S1818   1.683   .     S
O1763  S1819   1.499   .     D
O1764  S1819   1.504   .     D
O1765  S1819   1.683   .     S
O1765  H1568   0.990   1_655 S
O1766  S1820   1.497   .     D
O1767  Cu1561  1.990   1_655 S
O1768  S1820   1.503   .     D
O1769  S1820   1.683   .     S
O1770  S1821   1.499   .     D
O1771  S1821   1.503   .     D
O1772  S1821   1.683   .     S
O1773  S1822   1.501   .     D
O1774  S1822   1.503   .     D
O1775  S1822   1.682   .     S
O1776  S1823   1.501   .     D
O1777  S1823   1.502   .     D
O1779  S1823   1.682   .     S
O1780  S1824   1.501   .     D
O1781  S1824   1.503   .     D
O1782  S1824   1.682   .     S
O1782  H1421   0.991   1_565 S
O1783  S1810   1.501   .     D
O1784  S1810   1.503   .     D
O1785  S1810   1.683   .     S
O1786  S1811   1.497   .     D
O1787  S1811   1.502   .     D
O1788  S1811   1.683   .     S
O1789  Cu1562  1.990   1_655 S
O1790  S1812   1.499   .     D
O1791  S1812   1.504   .     D
O1792  S1812   1.683   .     S
O1793  S1813   1.497   .     D
O1794  S1813   1.503   .     D
O1795  S1813   1.683   .     S
O1796  S1814   1.499   .     D
O1797  S1814   1.503   .     D
O1798  S1814   1.683   .     S
O1799  S1815   1.501   .     D
O1801  S1815   1.503   .     D
O1802  S1815   1.682   .     S
O1803  S1816   1.501   .     D
O1804  S1816   1.502   .     D
O1805  S1816   1.682   .     S
O1807  Cu1561  1.994   1_655 S
O1808  Cu1411  1.994   1_565 S
