data_str_m1_o10_o16_pcu_sym.165
_audit_creation_date              2020-01-03
_audit_creation_method            'Materials Studio'
_symmetry_space_group_name_H-M    'P1'
_symmetry_Int_Tables_number       1
_symmetry_cell_setting            triclinic
loop_
_symmetry_equiv_pos_as_xyz
  x,y,z
_cell_length_a                    32.6978
_cell_length_b                    32.5797
_cell_length_c                    31.0234
_cell_angle_alpha                 96.3628
_cell_angle_beta                  74.7838
_cell_angle_gamma                 98.4604
loop_
_atom_site_label
_atom_site_type_symbol
_atom_site_fract_x
_atom_site_fract_y
_atom_site_fract_z
_atom_site_U_iso_or_equiv
_atom_site_adp_type
_atom_site_occupancy
C1     C     0.05313   0.15991   0.25926   0.00000  Uiso   1.00
C2     C     0.16590   0.15290   0.05948   0.00000  Uiso   1.00
C3     C     0.23603   0.13542   0.05697   0.00000  Uiso   1.00
C4     C     0.28066   0.17348   0.24015   0.00000  Uiso   1.00
C5     C     0.13871   0.18968   0.42014   0.00000  Uiso   1.00
C6     C     0.32601   0.17678   0.23834   0.00000  Uiso   1.00
C7     C     0.00803   0.15473   0.26372   0.00000  Uiso   1.00
C8     C     0.18043   0.32281   0.23883   0.00000  Uiso   1.00
C9     C     0.15033   0.01181   0.26464   0.00000  Uiso   1.00
C10    C     0.15670   0.05598   0.25959   0.00000  Uiso   1.00
C11    C     0.17645   0.27790   0.24039   0.00000  Uiso   1.00
C12    C     0.08336   0.19552   0.48906   0.00000  Uiso   1.00
C13    C     0.18556   0.14821   0.12944   0.00000  Uiso   1.00
C14    C     0.14909   0.18505   0.37082   0.00000  Uiso   1.00
C15    C     0.24905   0.14056   0.01141   0.00000  Uiso   1.00
C16    C     0.19477   0.14225   0.08103   0.00000  Uiso   1.00
C17    C     0.09761   0.19858   0.44317   0.00000  Uiso   1.00
C18    C     0.31758   0.11909   0.28952   0.00000  Uiso   1.00
C19    C     0.09150   0.01806   0.32575   0.00000  Uiso   1.00
C20    C     0.05478   0.32538   0.35571   0.00000  Uiso   1.00
C21    C     0.10932   0.18251   0.01260   0.00000  Uiso   1.00
C22    C     0.15140   0.17402   0.49082   0.00000  Uiso   1.00
C23    C     0.16689   0.18011   0.44436   0.00000  Uiso   1.00
C24    C     0.17876   0.15996   0.01357   0.00000  Uiso   1.00
C25    C     0.22131   0.15389   0.48981   0.00000  Uiso   1.00
C26    C     0.23662   0.16307   0.44529   0.00000  Uiso   1.00
C27    C     0.21022   0.17693   0.42323   0.00000  Uiso   1.00
H28    H     0.25874   0.12798   0.07395   0.00000  Uiso   1.00
H29    H     0.01429   0.19916   0.21687   0.00000  Uiso   1.00
H30    H     0.32174   0.11636   0.32262   0.00000  Uiso   1.00
H31    H     0.07824   0.04304   0.31392   0.00000  Uiso   1.00
H32    H     0.11423   0.03213   0.34610   0.00000  Uiso   1.00
H33    H     0.06702   0.30021   0.36828   0.00000  Uiso   1.00
H34    H     0.03869   0.01203   0.38472   0.00000  Uiso   1.00
H35    H     0.03117   0.31126   0.33660   0.00000  Uiso   1.00
H36    H     0.20889   0.00477   0.21686   0.00000  Uiso   1.00
H37    H     0.26953   0.16027   0.42755   0.00000  Uiso   1.00
H38    H     0.28151   0.13605   0.49350   0.00000  Uiso   1.00
H39    H     0.13481   0.15817   0.08019   0.00000  Uiso   1.00
H40    H     0.07567   0.20629   0.42538   0.00000  Uiso   1.00
H41    H     0.09543   0.17977   0.04783   0.00000  Uiso   1.00
H42    H     0.05132   0.20194   0.00633   0.00000  Uiso   1.00
H43    H     0.22473   0.18598   0.38962   0.00000  Uiso   1.00
O44    O     0.16667   0.16667   0.25000   0.00000  Uiso   1.00
O45    O     0.15451   0.12637   0.15459   0.00000  Uiso   1.00
O46    O     0.12940   0.20391   0.34968   0.00000  Uiso   1.00
O47    O     0.20824   0.17759   0.14606   0.00000  Uiso   1.00
O48    O     0.17451   0.15880   0.34968   0.00000  Uiso   1.00
O49    O     0.29632   0.09095   0.27271   0.00000  Uiso   1.00
O50    O     0.11152   0.32551   0.28899   0.00000  Uiso   1.00
O51    O     0.17930   0.08019   0.28214   0.00000  Uiso   1.00
O52    O     0.14632   0.26085   0.27014   0.00000  Uiso   1.00
O53    O     0.07412   0.13291   0.23413   0.00000  Uiso   1.00
O54    O     0.26693   0.19272   0.21361   0.00000  Uiso   1.00
O55    O     0.07071   0.18878   0.28213   0.00000  Uiso   1.00
O56    O     0.25491   0.15226   0.27014   0.00000  Uiso   1.00
O57    O     0.13760   0.06944   0.23413   0.00000  Uiso   1.00
O58    O     0.20345   0.25620   0.21361   0.00000  Uiso   1.00
Zn59   Zn    0.19338   0.13994   0.28734   0.00000  Uiso   1.00
Zn60   Zn    0.13379   0.12458   0.21876   0.00000  Uiso   1.00
Zn61   Zn    0.21056   0.19775   0.20657   0.00000  Uiso   1.00
Zn62   Zn    0.12893   0.20439   0.28734   0.00000  Uiso   1.00
C63    C     0.38647   0.15991   0.25926   0.00000  Uiso   1.00
C64    C     0.49923   0.15290   0.05948   0.00000  Uiso   1.00
C65    C     0.56936   0.13542   0.05697   0.00000  Uiso   1.00
C66    C     0.61399   0.17348   0.24015   0.00000  Uiso   1.00
C67    C     0.47205   0.18968   0.42014   0.00000  Uiso   1.00
C68    C     0.65934   0.17678   0.23834   0.00000  Uiso   1.00
C69    C     0.34136   0.15473   0.26372   0.00000  Uiso   1.00
C70    C     0.51377   0.32281   0.23883   0.00000  Uiso   1.00
C71    C     0.48366   0.01181   0.26464   0.00000  Uiso   1.00
C72    C     0.49003   0.05598   0.25959   0.00000  Uiso   1.00
C73    C     0.50979   0.27790   0.24039   0.00000  Uiso   1.00
C74    C     0.41669   0.19552   0.48906   0.00000  Uiso   1.00
C75    C     0.51889   0.14821   0.12944   0.00000  Uiso   1.00
C76    C     0.48243   0.18505   0.37082   0.00000  Uiso   1.00
C77    C     0.58238   0.14056   0.01141   0.00000  Uiso   1.00
C78    C     0.52811   0.14225   0.08103   0.00000  Uiso   1.00
C79    C     0.43094   0.19858   0.44317   0.00000  Uiso   1.00
C80    C     0.65091   0.11909   0.28952   0.00000  Uiso   1.00
C81    C     0.42484   0.01806   0.32575   0.00000  Uiso   1.00
C82    C     0.38811   0.32538   0.35571   0.00000  Uiso   1.00
C83    C     0.44265   0.18251   0.01260   0.00000  Uiso   1.00
C84    C     0.48474   0.17402   0.49082   0.00000  Uiso   1.00
C85    C     0.50022   0.18011   0.44436   0.00000  Uiso   1.00
C86    C     0.51210   0.15996   0.01357   0.00000  Uiso   1.00
C87    C     0.55464   0.15389   0.48981   0.00000  Uiso   1.00
C88    C     0.56995   0.16307   0.44529   0.00000  Uiso   1.00
C89    C     0.54356   0.17693   0.42323   0.00000  Uiso   1.00
H90    H     0.59207   0.12798   0.07395   0.00000  Uiso   1.00
H91    H     0.34762   0.19916   0.21687   0.00000  Uiso   1.00
H92    H     0.65507   0.11636   0.32262   0.00000  Uiso   1.00
H93    H     0.41157   0.04304   0.31392   0.00000  Uiso   1.00
H94    H     0.44756   0.03213   0.34610   0.00000  Uiso   1.00
H95    H     0.40035   0.30021   0.36828   0.00000  Uiso   1.00
H96    H     0.37202   0.01203   0.38472   0.00000  Uiso   1.00
H97    H     0.36451   0.31126   0.33660   0.00000  Uiso   1.00
H98    H     0.54222   0.00477   0.21686   0.00000  Uiso   1.00
H99    H     0.60286   0.16027   0.42755   0.00000  Uiso   1.00
H100   H     0.61484   0.13605   0.49350   0.00000  Uiso   1.00
H101   H     0.46814   0.15817   0.08019   0.00000  Uiso   1.00
H102   H     0.40900   0.20629   0.42538   0.00000  Uiso   1.00
H103   H     0.42876   0.17977   0.04783   0.00000  Uiso   1.00
H104   H     0.38466   0.20194   0.00633   0.00000  Uiso   1.00
H105   H     0.55806   0.18598   0.38962   0.00000  Uiso   1.00
O106   O     0.50000   0.16667   0.25000   0.00000  Uiso   1.00
O107   O     0.48784   0.12637   0.15459   0.00000  Uiso   1.00
O108   O     0.46274   0.20391   0.34968   0.00000  Uiso   1.00
O109   O     0.54157   0.17759   0.14606   0.00000  Uiso   1.00
O110   O     0.50785   0.15880   0.34968   0.00000  Uiso   1.00
O111   O     0.62965   0.09095   0.27271   0.00000  Uiso   1.00
O112   O     0.44485   0.32551   0.28899   0.00000  Uiso   1.00
O113   O     0.51264   0.08019   0.28214   0.00000  Uiso   1.00
O114   O     0.47965   0.26085   0.27014   0.00000  Uiso   1.00
O115   O     0.40745   0.13291   0.23413   0.00000  Uiso   1.00
O116   O     0.60026   0.19272   0.21361   0.00000  Uiso   1.00
O117   O     0.40405   0.18878   0.28213   0.00000  Uiso   1.00
O118   O     0.58824   0.15226   0.27014   0.00000  Uiso   1.00
O119   O     0.47093   0.06944   0.23413   0.00000  Uiso   1.00
O120   O     0.53678   0.25620   0.21361   0.00000  Uiso   1.00
Zn121  Zn    0.52672   0.13994   0.28734   0.00000  Uiso   1.00
Zn122  Zn    0.46713   0.12458   0.21876   0.00000  Uiso   1.00
Zn123  Zn    0.54389   0.19775   0.20657   0.00000  Uiso   1.00
Zn124  Zn    0.46226   0.20439   0.28734   0.00000  Uiso   1.00
C125   C     0.71980   0.15991   0.25926   0.00000  Uiso   1.00
C126   C     0.83256   0.15290   0.05948   0.00000  Uiso   1.00
C127   C     0.90269   0.13542   0.05697   0.00000  Uiso   1.00
C128   C     0.94732   0.17348   0.24015   0.00000  Uiso   1.00
C129   C     0.80538   0.18968   0.42014   0.00000  Uiso   1.00
C130   C     0.99268   0.17678   0.23834   0.00000  Uiso   1.00
C131   C     0.67470   0.15473   0.26372   0.00000  Uiso   1.00
C132   C     0.84710   0.32281   0.23883   0.00000  Uiso   1.00
C133   C     0.81699   0.01181   0.26464   0.00000  Uiso   1.00
C134   C     0.82337   0.05598   0.25959   0.00000  Uiso   1.00
C135   C     0.84312   0.27790   0.24039   0.00000  Uiso   1.00
C136   C     0.75002   0.19552   0.48906   0.00000  Uiso   1.00
C137   C     0.85222   0.14821   0.12944   0.00000  Uiso   1.00
C138   C     0.81576   0.18505   0.37082   0.00000  Uiso   1.00
C139   C     0.91572   0.14056   0.01141   0.00000  Uiso   1.00
C140   C     0.86144   0.14225   0.08103   0.00000  Uiso   1.00
C141   C     0.76427   0.19858   0.44317   0.00000  Uiso   1.00
C142   C     0.98424   0.11909   0.28952   0.00000  Uiso   1.00
C143   C     0.75817   0.01806   0.32575   0.00000  Uiso   1.00
C144   C     0.72144   0.32538   0.35571   0.00000  Uiso   1.00
C145   C     0.77599   0.18251   0.01260   0.00000  Uiso   1.00
C146   C     0.81807   0.17402   0.49082   0.00000  Uiso   1.00
C147   C     0.83355   0.18011   0.44436   0.00000  Uiso   1.00
C148   C     0.84543   0.15996   0.01357   0.00000  Uiso   1.00
C149   C     0.88797   0.15389   0.48981   0.00000  Uiso   1.00
C150   C     0.90328   0.16307   0.44529   0.00000  Uiso   1.00
C151   C     0.87689   0.17693   0.42323   0.00000  Uiso   1.00
H152   H     0.92541   0.12798   0.07395   0.00000  Uiso   1.00
H153   H     0.68095   0.19916   0.21687   0.00000  Uiso   1.00
H154   H     0.98840   0.11636   0.32262   0.00000  Uiso   1.00
H155   H     0.74491   0.04304   0.31392   0.00000  Uiso   1.00
H156   H     0.78090   0.03213   0.34610   0.00000  Uiso   1.00
H157   H     0.73369   0.30021   0.36828   0.00000  Uiso   1.00
H158   H     0.70535   0.01203   0.38472   0.00000  Uiso   1.00
H159   H     0.69784   0.31126   0.33660   0.00000  Uiso   1.00
H160   H     0.87555   0.00477   0.21686   0.00000  Uiso   1.00
H161   H     0.93620   0.16027   0.42755   0.00000  Uiso   1.00
H162   H     0.94818   0.13605   0.49350   0.00000  Uiso   1.00
H163   H     0.80147   0.15817   0.08019   0.00000  Uiso   1.00
H164   H     0.74234   0.20629   0.42538   0.00000  Uiso   1.00
H165   H     0.76210   0.17977   0.04783   0.00000  Uiso   1.00
H166   H     0.71799   0.20194   0.00633   0.00000  Uiso   1.00
H167   H     0.89140   0.18598   0.38962   0.00000  Uiso   1.00
O168   O     0.83333   0.16667   0.25000   0.00000  Uiso   1.00
O169   O     0.82118   0.12637   0.15459   0.00000  Uiso   1.00
O170   O     0.79607   0.20391   0.34968   0.00000  Uiso   1.00
O171   O     0.87491   0.17759   0.14606   0.00000  Uiso   1.00
O172   O     0.84118   0.15880   0.34968   0.00000  Uiso   1.00
O173   O     0.96299   0.09095   0.27271   0.00000  Uiso   1.00
O174   O     0.77818   0.32551   0.28899   0.00000  Uiso   1.00
O175   O     0.84597   0.08019   0.28214   0.00000  Uiso   1.00
O176   O     0.81298   0.26085   0.27014   0.00000  Uiso   1.00
O177   O     0.74078   0.13291   0.23413   0.00000  Uiso   1.00
O178   O     0.93360   0.19272   0.21361   0.00000  Uiso   1.00
O179   O     0.73738   0.18878   0.28213   0.00000  Uiso   1.00
O180   O     0.92158   0.15226   0.27014   0.00000  Uiso   1.00
O181   O     0.80426   0.06944   0.23413   0.00000  Uiso   1.00
O182   O     0.87012   0.25620   0.21361   0.00000  Uiso   1.00
Zn183  Zn    0.86005   0.13994   0.28734   0.00000  Uiso   1.00
Zn184  Zn    0.80046   0.12458   0.21876   0.00000  Uiso   1.00
Zn185  Zn    0.87723   0.19775   0.20657   0.00000  Uiso   1.00
Zn186  Zn    0.79560   0.20439   0.28734   0.00000  Uiso   1.00
C187   C     0.05313   0.49324   0.25926   0.00000  Uiso   1.00
C188   C     0.16590   0.48623   0.05948   0.00000  Uiso   1.00
C189   C     0.23603   0.46876   0.05697   0.00000  Uiso   1.00
C190   C     0.28066   0.50682   0.24015   0.00000  Uiso   1.00
C191   C     0.13871   0.52301   0.42014   0.00000  Uiso   1.00
C192   C     0.32601   0.51011   0.23834   0.00000  Uiso   1.00
C193   C     0.00803   0.48806   0.26372   0.00000  Uiso   1.00
C194   C     0.18043   0.65614   0.23883   0.00000  Uiso   1.00
C195   C     0.15033   0.34515   0.26464   0.00000  Uiso   1.00
C196   C     0.15670   0.38931   0.25959   0.00000  Uiso   1.00
C197   C     0.17645   0.61124   0.24039   0.00000  Uiso   1.00
C198   C     0.08336   0.52885   0.48906   0.00000  Uiso   1.00
C199   C     0.18556   0.48154   0.12944   0.00000  Uiso   1.00
C200   C     0.14909   0.51839   0.37082   0.00000  Uiso   1.00
C201   C     0.24905   0.47390   0.01141   0.00000  Uiso   1.00
C202   C     0.19477   0.47558   0.08103   0.00000  Uiso   1.00
C203   C     0.09761   0.53192   0.44317   0.00000  Uiso   1.00
C204   C     0.31758   0.45242   0.28952   0.00000  Uiso   1.00
C205   C     0.09150   0.35139   0.32575   0.00000  Uiso   1.00
C206   C     0.05478   0.65872   0.35571   0.00000  Uiso   1.00
C207   C     0.10932   0.51584   0.01260   0.00000  Uiso   1.00
C208   C     0.15140   0.50735   0.49082   0.00000  Uiso   1.00
C209   C     0.16689   0.51344   0.44436   0.00000  Uiso   1.00
C210   C     0.17876   0.49329   0.01357   0.00000  Uiso   1.00
C211   C     0.22131   0.48722   0.48981   0.00000  Uiso   1.00
C212   C     0.23662   0.49641   0.44529   0.00000  Uiso   1.00
C213   C     0.21022   0.51026   0.42323   0.00000  Uiso   1.00
H214   H     0.25874   0.46131   0.07395   0.00000  Uiso   1.00
H215   H     0.01429   0.53249   0.21687   0.00000  Uiso   1.00
H216   H     0.32174   0.44969   0.32262   0.00000  Uiso   1.00
H217   H     0.07824   0.37637   0.31392   0.00000  Uiso   1.00
H218   H     0.11423   0.36546   0.34610   0.00000  Uiso   1.00
H219   H     0.06702   0.63355   0.36828   0.00000  Uiso   1.00
H220   H     0.03869   0.34536   0.38472   0.00000  Uiso   1.00
H221   H     0.03117   0.64460   0.33660   0.00000  Uiso   1.00
H222   H     0.20889   0.33810   0.21686   0.00000  Uiso   1.00
H223   H     0.26953   0.49360   0.42755   0.00000  Uiso   1.00
H224   H     0.28151   0.46938   0.49350   0.00000  Uiso   1.00
H225   H     0.13481   0.49151   0.08019   0.00000  Uiso   1.00
H226   H     0.07567   0.53963   0.42538   0.00000  Uiso   1.00
H227   H     0.09543   0.51310   0.04783   0.00000  Uiso   1.00
H228   H     0.05132   0.53528   0.00633   0.00000  Uiso   1.00
H229   H     0.22473   0.51932   0.38962   0.00000  Uiso   1.00
O230   O     0.16667   0.50000   0.25000   0.00000  Uiso   1.00
O231   O     0.15451   0.45970   0.15459   0.00000  Uiso   1.00
O232   O     0.12940   0.53724   0.34968   0.00000  Uiso   1.00
O233   O     0.20824   0.51092   0.14606   0.00000  Uiso   1.00
O234   O     0.17451   0.49213   0.34968   0.00000  Uiso   1.00
O235   O     0.29632   0.42429   0.27271   0.00000  Uiso   1.00
O236   O     0.11152   0.65884   0.28899   0.00000  Uiso   1.00
O237   O     0.17930   0.41352   0.28214   0.00000  Uiso   1.00
O238   O     0.14632   0.59418   0.27014   0.00000  Uiso   1.00
O239   O     0.07412   0.46625   0.23413   0.00000  Uiso   1.00
O240   O     0.26693   0.52605   0.21361   0.00000  Uiso   1.00
O241   O     0.07071   0.52211   0.28213   0.00000  Uiso   1.00
O242   O     0.25491   0.48559   0.27014   0.00000  Uiso   1.00
O243   O     0.13760   0.40277   0.23413   0.00000  Uiso   1.00
O244   O     0.20345   0.58953   0.21361   0.00000  Uiso   1.00
Zn245  Zn    0.19338   0.47327   0.28734   0.00000  Uiso   1.00
Zn246  Zn    0.13379   0.45791   0.21876   0.00000  Uiso   1.00
Zn247  Zn    0.21056   0.53109   0.20657   0.00000  Uiso   1.00
Zn248  Zn    0.12893   0.53773   0.28734   0.00000  Uiso   1.00
C249   C     0.38647   0.49324   0.25926   0.00000  Uiso   1.00
C250   C     0.49923   0.48623   0.05948   0.00000  Uiso   1.00
C251   C     0.56936   0.46876   0.05697   0.00000  Uiso   1.00
C252   C     0.61399   0.50682   0.24015   0.00000  Uiso   1.00
C253   C     0.47205   0.52301   0.42014   0.00000  Uiso   1.00
C254   C     0.65934   0.51011   0.23834   0.00000  Uiso   1.00
C255   C     0.34136   0.48806   0.26372   0.00000  Uiso   1.00
C256   C     0.51377   0.65614   0.23883   0.00000  Uiso   1.00
C257   C     0.48366   0.34515   0.26464   0.00000  Uiso   1.00
C258   C     0.49003   0.38931   0.25959   0.00000  Uiso   1.00
C259   C     0.50979   0.61124   0.24039   0.00000  Uiso   1.00
C260   C     0.41669   0.52885   0.48906   0.00000  Uiso   1.00
C261   C     0.51889   0.48154   0.12944   0.00000  Uiso   1.00
C262   C     0.48243   0.51839   0.37082   0.00000  Uiso   1.00
C263   C     0.58238   0.47390   0.01141   0.00000  Uiso   1.00
C264   C     0.52811   0.47558   0.08103   0.00000  Uiso   1.00
C265   C     0.43094   0.53192   0.44317   0.00000  Uiso   1.00
C266   C     0.65091   0.45242   0.28952   0.00000  Uiso   1.00
C267   C     0.42484   0.35139   0.32575   0.00000  Uiso   1.00
C268   C     0.38811   0.65872   0.35571   0.00000  Uiso   1.00
C269   C     0.44265   0.51584   0.01260   0.00000  Uiso   1.00
C270   C     0.48474   0.50735   0.49082   0.00000  Uiso   1.00
C271   C     0.50022   0.51344   0.44436   0.00000  Uiso   1.00
C272   C     0.51210   0.49329   0.01357   0.00000  Uiso   1.00
C273   C     0.55464   0.48722   0.48981   0.00000  Uiso   1.00
C274   C     0.56995   0.49641   0.44529   0.00000  Uiso   1.00
C275   C     0.54356   0.51026   0.42323   0.00000  Uiso   1.00
H276   H     0.59207   0.46131   0.07395   0.00000  Uiso   1.00
H277   H     0.34762   0.53249   0.21687   0.00000  Uiso   1.00
H278   H     0.65507   0.44969   0.32262   0.00000  Uiso   1.00
H279   H     0.41157   0.37637   0.31392   0.00000  Uiso   1.00
H280   H     0.44756   0.36546   0.34610   0.00000  Uiso   1.00
H281   H     0.40035   0.63355   0.36828   0.00000  Uiso   1.00
H282   H     0.37202   0.34536   0.38472   0.00000  Uiso   1.00
H283   H     0.36451   0.64460   0.33660   0.00000  Uiso   1.00
H284   H     0.54222   0.33810   0.21686   0.00000  Uiso   1.00
H285   H     0.60286   0.49360   0.42755   0.00000  Uiso   1.00
H286   H     0.61484   0.46938   0.49350   0.00000  Uiso   1.00
H287   H     0.46814   0.49151   0.08019   0.00000  Uiso   1.00
H288   H     0.40900   0.53963   0.42538   0.00000  Uiso   1.00
H289   H     0.42876   0.51310   0.04783   0.00000  Uiso   1.00
H290   H     0.38466   0.53528   0.00633   0.00000  Uiso   1.00
H291   H     0.55806   0.51932   0.38962   0.00000  Uiso   1.00
O292   O     0.50000   0.50000   0.25000   0.00000  Uiso   1.00
O293   O     0.48784   0.45970   0.15459   0.00000  Uiso   1.00
O294   O     0.46274   0.53724   0.34968   0.00000  Uiso   1.00
O295   O     0.54157   0.51092   0.14606   0.00000  Uiso   1.00
O296   O     0.50785   0.49213   0.34968   0.00000  Uiso   1.00
O297   O     0.62965   0.42429   0.27271   0.00000  Uiso   1.00
O298   O     0.44485   0.65884   0.28899   0.00000  Uiso   1.00
O299   O     0.51264   0.41352   0.28214   0.00000  Uiso   1.00
O300   O     0.47965   0.59418   0.27014   0.00000  Uiso   1.00
O301   O     0.40745   0.46625   0.23413   0.00000  Uiso   1.00
O302   O     0.60026   0.52605   0.21361   0.00000  Uiso   1.00
O303   O     0.40405   0.52211   0.28213   0.00000  Uiso   1.00
O304   O     0.58824   0.48559   0.27014   0.00000  Uiso   1.00
O305   O     0.47093   0.40277   0.23413   0.00000  Uiso   1.00
O306   O     0.53678   0.58953   0.21361   0.00000  Uiso   1.00
Zn307  Zn    0.52672   0.47327   0.28734   0.00000  Uiso   1.00
Zn308  Zn    0.46713   0.45791   0.21876   0.00000  Uiso   1.00
Zn309  Zn    0.54389   0.53109   0.20657   0.00000  Uiso   1.00
Zn310  Zn    0.46226   0.53773   0.28734   0.00000  Uiso   1.00
C311   C     0.71980   0.49324   0.25926   0.00000  Uiso   1.00
C312   C     0.83256   0.48623   0.05948   0.00000  Uiso   1.00
C313   C     0.90269   0.46876   0.05697   0.00000  Uiso   1.00
C314   C     0.94732   0.50682   0.24015   0.00000  Uiso   1.00
C315   C     0.80538   0.52301   0.42014   0.00000  Uiso   1.00
C316   C     0.99268   0.51011   0.23834   0.00000  Uiso   1.00
C317   C     0.67470   0.48806   0.26372   0.00000  Uiso   1.00
C318   C     0.84710   0.65614   0.23883   0.00000  Uiso   1.00
C319   C     0.81699   0.34515   0.26464   0.00000  Uiso   1.00
C320   C     0.82337   0.38931   0.25959   0.00000  Uiso   1.00
C321   C     0.84312   0.61124   0.24039   0.00000  Uiso   1.00
C322   C     0.75002   0.52885   0.48906   0.00000  Uiso   1.00
C323   C     0.85222   0.48154   0.12944   0.00000  Uiso   1.00
C324   C     0.81576   0.51839   0.37082   0.00000  Uiso   1.00
C325   C     0.91572   0.47390   0.01141   0.00000  Uiso   1.00
C326   C     0.86144   0.47558   0.08103   0.00000  Uiso   1.00
C327   C     0.76427   0.53192   0.44317   0.00000  Uiso   1.00
C328   C     0.98424   0.45242   0.28952   0.00000  Uiso   1.00
C329   C     0.75817   0.35139   0.32575   0.00000  Uiso   1.00
C330   C     0.72144   0.65872   0.35571   0.00000  Uiso   1.00
C331   C     0.77599   0.51584   0.01260   0.00000  Uiso   1.00
C332   C     0.81807   0.50735   0.49082   0.00000  Uiso   1.00
C333   C     0.83355   0.51344   0.44436   0.00000  Uiso   1.00
C334   C     0.84543   0.49329   0.01357   0.00000  Uiso   1.00
C335   C     0.88797   0.48722   0.48981   0.00000  Uiso   1.00
C336   C     0.90328   0.49641   0.44529   0.00000  Uiso   1.00
C337   C     0.87689   0.51026   0.42323   0.00000  Uiso   1.00
H338   H     0.92541   0.46131   0.07395   0.00000  Uiso   1.00
H339   H     0.68095   0.53249   0.21687   0.00000  Uiso   1.00
H340   H     0.98840   0.44969   0.32262   0.00000  Uiso   1.00
H341   H     0.74491   0.37637   0.31392   0.00000  Uiso   1.00
H342   H     0.78090   0.36546   0.34610   0.00000  Uiso   1.00
H343   H     0.73369   0.63355   0.36828   0.00000  Uiso   1.00
H344   H     0.70535   0.34536   0.38472   0.00000  Uiso   1.00
H345   H     0.69784   0.64460   0.33660   0.00000  Uiso   1.00
H346   H     0.87555   0.33810   0.21686   0.00000  Uiso   1.00
H347   H     0.93620   0.49360   0.42755   0.00000  Uiso   1.00
H348   H     0.94818   0.46938   0.49350   0.00000  Uiso   1.00
H349   H     0.80147   0.49151   0.08019   0.00000  Uiso   1.00
H350   H     0.74234   0.53963   0.42538   0.00000  Uiso   1.00
H351   H     0.76210   0.51310   0.04783   0.00000  Uiso   1.00
H352   H     0.71799   0.53528   0.00633   0.00000  Uiso   1.00
H353   H     0.89140   0.51932   0.38962   0.00000  Uiso   1.00
O354   O     0.83333   0.50000   0.25000   0.00000  Uiso   1.00
O355   O     0.82118   0.45970   0.15459   0.00000  Uiso   1.00
O356   O     0.79607   0.53724   0.34968   0.00000  Uiso   1.00
O357   O     0.87491   0.51092   0.14606   0.00000  Uiso   1.00
O358   O     0.84118   0.49213   0.34968   0.00000  Uiso   1.00
O359   O     0.96299   0.42429   0.27271   0.00000  Uiso   1.00
O360   O     0.77818   0.65884   0.28899   0.00000  Uiso   1.00
O361   O     0.84597   0.41352   0.28214   0.00000  Uiso   1.00
O362   O     0.81298   0.59418   0.27014   0.00000  Uiso   1.00
O363   O     0.74078   0.46625   0.23413   0.00000  Uiso   1.00
O364   O     0.93360   0.52605   0.21361   0.00000  Uiso   1.00
O365   O     0.73738   0.52211   0.28213   0.00000  Uiso   1.00
O366   O     0.92158   0.48559   0.27014   0.00000  Uiso   1.00
O367   O     0.80426   0.40277   0.23413   0.00000  Uiso   1.00
O368   O     0.87012   0.58953   0.21361   0.00000  Uiso   1.00
Zn369  Zn    0.86005   0.47327   0.28734   0.00000  Uiso   1.00
Zn370  Zn    0.80046   0.45791   0.21876   0.00000  Uiso   1.00
Zn371  Zn    0.87723   0.53109   0.20657   0.00000  Uiso   1.00
Zn372  Zn    0.79560   0.53773   0.28734   0.00000  Uiso   1.00
C373   C     0.05313   0.82658   0.25926   0.00000  Uiso   1.00
C374   C     0.16590   0.81957   0.05948   0.00000  Uiso   1.00
C375   C     0.23603   0.80209   0.05697   0.00000  Uiso   1.00
C376   C     0.28066   0.84015   0.24015   0.00000  Uiso   1.00
C377   C     0.13871   0.85635   0.42014   0.00000  Uiso   1.00
C378   C     0.32601   0.84345   0.23834   0.00000  Uiso   1.00
C379   C     0.00803   0.82139   0.26372   0.00000  Uiso   1.00
C380   C     0.18043   0.98948   0.23883   0.00000  Uiso   1.00
C381   C     0.15033   0.67848   0.26464   0.00000  Uiso   1.00
C382   C     0.15670   0.72265   0.25959   0.00000  Uiso   1.00
C383   C     0.17645   0.94457   0.24039   0.00000  Uiso   1.00
C384   C     0.08336   0.86219   0.48906   0.00000  Uiso   1.00
C385   C     0.18556   0.81487   0.12944   0.00000  Uiso   1.00
C386   C     0.14909   0.85172   0.37082   0.00000  Uiso   1.00
C387   C     0.24905   0.80723   0.01141   0.00000  Uiso   1.00
C388   C     0.19477   0.80892   0.08103   0.00000  Uiso   1.00
C389   C     0.09761   0.86525   0.44317   0.00000  Uiso   1.00
C390   C     0.31758   0.78575   0.28952   0.00000  Uiso   1.00
C391   C     0.09150   0.68472   0.32575   0.00000  Uiso   1.00
C392   C     0.05478   0.99205   0.35571   0.00000  Uiso   1.00
C393   C     0.10932   0.84918   0.01260   0.00000  Uiso   1.00
C394   C     0.15140   0.84068   0.49082   0.00000  Uiso   1.00
C395   C     0.16689   0.84677   0.44436   0.00000  Uiso   1.00
C396   C     0.17876   0.82663   0.01357   0.00000  Uiso   1.00
C397   C     0.22131   0.82055   0.48981   0.00000  Uiso   1.00
C398   C     0.23662   0.82974   0.44529   0.00000  Uiso   1.00
C399   C     0.21022   0.84360   0.42323   0.00000  Uiso   1.00
H400   H     0.25874   0.79464   0.07395   0.00000  Uiso   1.00
H401   H     0.01429   0.86583   0.21687   0.00000  Uiso   1.00
H402   H     0.32174   0.78303   0.32262   0.00000  Uiso   1.00
H403   H     0.07824   0.70970   0.31392   0.00000  Uiso   1.00
H404   H     0.11423   0.69879   0.34610   0.00000  Uiso   1.00
H405   H     0.06702   0.96688   0.36828   0.00000  Uiso   1.00
H406   H     0.03869   0.67870   0.38472   0.00000  Uiso   1.00
H407   H     0.03117   0.97793   0.33660   0.00000  Uiso   1.00
H408   H     0.20889   0.67143   0.21686   0.00000  Uiso   1.00
H409   H     0.26953   0.82694   0.42755   0.00000  Uiso   1.00
H410   H     0.28151   0.80272   0.49350   0.00000  Uiso   1.00
H411   H     0.13481   0.82484   0.08019   0.00000  Uiso   1.00
H412   H     0.07567   0.87296   0.42538   0.00000  Uiso   1.00
H413   H     0.09543   0.84643   0.04783   0.00000  Uiso   1.00
H414   H     0.05132   0.86861   0.00633   0.00000  Uiso   1.00
H415   H     0.22473   0.85265   0.38962   0.00000  Uiso   1.00
O416   O     0.16667   0.83333   0.25000   0.00000  Uiso   1.00
O417   O     0.15451   0.79304   0.15459   0.00000  Uiso   1.00
O418   O     0.12940   0.87058   0.34968   0.00000  Uiso   1.00
O419   O     0.20824   0.84425   0.14606   0.00000  Uiso   1.00
O420   O     0.17451   0.82546   0.34968   0.00000  Uiso   1.00
O421   O     0.29632   0.75762   0.27271   0.00000  Uiso   1.00
O422   O     0.11152   0.99218   0.28899   0.00000  Uiso   1.00
O423   O     0.17930   0.74686   0.28214   0.00000  Uiso   1.00
O424   O     0.14632   0.92751   0.27014   0.00000  Uiso   1.00
O425   O     0.07412   0.79958   0.23413   0.00000  Uiso   1.00
O426   O     0.26693   0.85939   0.21361   0.00000  Uiso   1.00
O427   O     0.07071   0.85544   0.28213   0.00000  Uiso   1.00
O428   O     0.25491   0.81892   0.27014   0.00000  Uiso   1.00
O429   O     0.13760   0.73610   0.23413   0.00000  Uiso   1.00
O430   O     0.20345   0.92286   0.21361   0.00000  Uiso   1.00
Zn431  Zn    0.19338   0.80661   0.28734   0.00000  Uiso   1.00
Zn432  Zn    0.13379   0.79124   0.21876   0.00000  Uiso   1.00
Zn433  Zn    0.21056   0.86442   0.20657   0.00000  Uiso   1.00
Zn434  Zn    0.12893   0.87106   0.28734   0.00000  Uiso   1.00
C435   C     0.38647   0.82658   0.25926   0.00000  Uiso   1.00
C436   C     0.49923   0.81957   0.05948   0.00000  Uiso   1.00
C437   C     0.56936   0.80209   0.05697   0.00000  Uiso   1.00
C438   C     0.61399   0.84015   0.24015   0.00000  Uiso   1.00
C439   C     0.47205   0.85635   0.42014   0.00000  Uiso   1.00
C440   C     0.65934   0.84345   0.23834   0.00000  Uiso   1.00
C441   C     0.34136   0.82139   0.26372   0.00000  Uiso   1.00
C442   C     0.51377   0.98948   0.23883   0.00000  Uiso   1.00
C443   C     0.48366   0.67848   0.26464   0.00000  Uiso   1.00
C444   C     0.49003   0.72265   0.25959   0.00000  Uiso   1.00
C445   C     0.50979   0.94457   0.24039   0.00000  Uiso   1.00
C446   C     0.41669   0.86219   0.48906   0.00000  Uiso   1.00
C447   C     0.51889   0.81487   0.12944   0.00000  Uiso   1.00
C448   C     0.48243   0.85172   0.37082   0.00000  Uiso   1.00
C449   C     0.58238   0.80723   0.01141   0.00000  Uiso   1.00
C450   C     0.52811   0.80892   0.08103   0.00000  Uiso   1.00
C451   C     0.43094   0.86525   0.44317   0.00000  Uiso   1.00
C452   C     0.65091   0.78575   0.28952   0.00000  Uiso   1.00
C453   C     0.42484   0.68472   0.32575   0.00000  Uiso   1.00
C454   C     0.38811   0.99205   0.35571   0.00000  Uiso   1.00
C455   C     0.44265   0.84918   0.01260   0.00000  Uiso   1.00
C456   C     0.48474   0.84068   0.49082   0.00000  Uiso   1.00
C457   C     0.50022   0.84677   0.44436   0.00000  Uiso   1.00
C458   C     0.51210   0.82663   0.01357   0.00000  Uiso   1.00
C459   C     0.55464   0.82055   0.48981   0.00000  Uiso   1.00
C460   C     0.56995   0.82974   0.44529   0.00000  Uiso   1.00
C461   C     0.54356   0.84360   0.42323   0.00000  Uiso   1.00
H462   H     0.59207   0.79464   0.07395   0.00000  Uiso   1.00
H463   H     0.34762   0.86583   0.21687   0.00000  Uiso   1.00
H464   H     0.65507   0.78303   0.32262   0.00000  Uiso   1.00
H465   H     0.41157   0.70970   0.31392   0.00000  Uiso   1.00
H466   H     0.44756   0.69879   0.34610   0.00000  Uiso   1.00
H467   H     0.40035   0.96688   0.36828   0.00000  Uiso   1.00
H468   H     0.37202   0.67870   0.38472   0.00000  Uiso   1.00
H469   H     0.36451   0.97793   0.33660   0.00000  Uiso   1.00
H470   H     0.54222   0.67143   0.21686   0.00000  Uiso   1.00
H471   H     0.60286   0.82694   0.42755   0.00000  Uiso   1.00
H472   H     0.61484   0.80272   0.49350   0.00000  Uiso   1.00
H473   H     0.46814   0.82484   0.08019   0.00000  Uiso   1.00
H474   H     0.40900   0.87296   0.42538   0.00000  Uiso   1.00
H475   H     0.42876   0.84643   0.04783   0.00000  Uiso   1.00
H476   H     0.38466   0.86861   0.00633   0.00000  Uiso   1.00
H477   H     0.55806   0.85265   0.38962   0.00000  Uiso   1.00
O478   O     0.50000   0.83333   0.25000   0.00000  Uiso   1.00
O479   O     0.48784   0.79304   0.15459   0.00000  Uiso   1.00
O480   O     0.46274   0.87058   0.34968   0.00000  Uiso   1.00
O481   O     0.54157   0.84425   0.14606   0.00000  Uiso   1.00
O482   O     0.50785   0.82546   0.34968   0.00000  Uiso   1.00
O483   O     0.62965   0.75762   0.27271   0.00000  Uiso   1.00
O484   O     0.44485   0.99218   0.28899   0.00000  Uiso   1.00
O485   O     0.51264   0.74686   0.28214   0.00000  Uiso   1.00
O486   O     0.47965   0.92751   0.27014   0.00000  Uiso   1.00
O487   O     0.40745   0.79958   0.23413   0.00000  Uiso   1.00
O488   O     0.60026   0.85939   0.21361   0.00000  Uiso   1.00
O489   O     0.40405   0.85544   0.28213   0.00000  Uiso   1.00
O490   O     0.58824   0.81892   0.27014   0.00000  Uiso   1.00
O491   O     0.47093   0.73610   0.23413   0.00000  Uiso   1.00
O492   O     0.53678   0.92286   0.21361   0.00000  Uiso   1.00
Zn493  Zn    0.52672   0.80661   0.28734   0.00000  Uiso   1.00
Zn494  Zn    0.46713   0.79124   0.21876   0.00000  Uiso   1.00
Zn495  Zn    0.54389   0.86442   0.20657   0.00000  Uiso   1.00
Zn496  Zn    0.46226   0.87106   0.28734   0.00000  Uiso   1.00
C497   C     0.71980   0.82658   0.25926   0.00000  Uiso   1.00
C498   C     0.83256   0.81957   0.05948   0.00000  Uiso   1.00
C499   C     0.90269   0.80209   0.05697   0.00000  Uiso   1.00
C500   C     0.94732   0.84015   0.24015   0.00000  Uiso   1.00
C501   C     0.80538   0.85635   0.42014   0.00000  Uiso   1.00
C502   C     0.99268   0.84345   0.23834   0.00000  Uiso   1.00
C503   C     0.67470   0.82139   0.26372   0.00000  Uiso   1.00
C504   C     0.84710   0.98948   0.23883   0.00000  Uiso   1.00
C505   C     0.81699   0.67848   0.26464   0.00000  Uiso   1.00
C506   C     0.82337   0.72265   0.25959   0.00000  Uiso   1.00
C507   C     0.84312   0.94457   0.24039   0.00000  Uiso   1.00
C508   C     0.75002   0.86219   0.48906   0.00000  Uiso   1.00
C509   C     0.85222   0.81487   0.12944   0.00000  Uiso   1.00
C510   C     0.81576   0.85172   0.37082   0.00000  Uiso   1.00
C511   C     0.91572   0.80723   0.01141   0.00000  Uiso   1.00
C512   C     0.86144   0.80892   0.08103   0.00000  Uiso   1.00
C513   C     0.76427   0.86525   0.44317   0.00000  Uiso   1.00
C514   C     0.98424   0.78575   0.28952   0.00000  Uiso   1.00
C515   C     0.75817   0.68472   0.32575   0.00000  Uiso   1.00
C516   C     0.72144   0.99205   0.35571   0.00000  Uiso   1.00
C517   C     0.77599   0.84918   0.01260   0.00000  Uiso   1.00
C518   C     0.81807   0.84068   0.49082   0.00000  Uiso   1.00
C519   C     0.83355   0.84677   0.44436   0.00000  Uiso   1.00
C520   C     0.84543   0.82663   0.01357   0.00000  Uiso   1.00
C521   C     0.88797   0.82055   0.48981   0.00000  Uiso   1.00
C522   C     0.90328   0.82974   0.44529   0.00000  Uiso   1.00
C523   C     0.87689   0.84360   0.42323   0.00000  Uiso   1.00
H524   H     0.92541   0.79464   0.07395   0.00000  Uiso   1.00
H525   H     0.68095   0.86583   0.21687   0.00000  Uiso   1.00
H526   H     0.98840   0.78303   0.32262   0.00000  Uiso   1.00
H527   H     0.74491   0.70970   0.31392   0.00000  Uiso   1.00
H528   H     0.78090   0.69879   0.34610   0.00000  Uiso   1.00
H529   H     0.73369   0.96688   0.36828   0.00000  Uiso   1.00
H530   H     0.70535   0.67870   0.38472   0.00000  Uiso   1.00
H531   H     0.69784   0.97793   0.33660   0.00000  Uiso   1.00
H532   H     0.87555   0.67143   0.21686   0.00000  Uiso   1.00
H533   H     0.93620   0.82694   0.42755   0.00000  Uiso   1.00
H534   H     0.94818   0.80272   0.49350   0.00000  Uiso   1.00
H535   H     0.80147   0.82484   0.08019   0.00000  Uiso   1.00
H536   H     0.74234   0.87296   0.42538   0.00000  Uiso   1.00
H537   H     0.76210   0.84643   0.04783   0.00000  Uiso   1.00
H538   H     0.71799   0.86861   0.00633   0.00000  Uiso   1.00
H539   H     0.89140   0.85265   0.38962   0.00000  Uiso   1.00
O540   O     0.83333   0.83333   0.25000   0.00000  Uiso   1.00
O541   O     0.82118   0.79304   0.15459   0.00000  Uiso   1.00
O542   O     0.79607   0.87058   0.34968   0.00000  Uiso   1.00
O543   O     0.87491   0.84425   0.14606   0.00000  Uiso   1.00
O544   O     0.84118   0.82546   0.34968   0.00000  Uiso   1.00
O545   O     0.96299   0.75762   0.27271   0.00000  Uiso   1.00
O546   O     0.77818   0.99218   0.28899   0.00000  Uiso   1.00
O547   O     0.84597   0.74686   0.28214   0.00000  Uiso   1.00
O548   O     0.81298   0.92751   0.27014   0.00000  Uiso   1.00
O549   O     0.74078   0.79958   0.23413   0.00000  Uiso   1.00
O550   O     0.93360   0.85939   0.21361   0.00000  Uiso   1.00
O551   O     0.73738   0.85544   0.28213   0.00000  Uiso   1.00
O552   O     0.92158   0.81892   0.27014   0.00000  Uiso   1.00
O553   O     0.80426   0.73610   0.23413   0.00000  Uiso   1.00
O554   O     0.87012   0.92286   0.21361   0.00000  Uiso   1.00
Zn555  Zn    0.86005   0.80661   0.28734   0.00000  Uiso   1.00
Zn556  Zn    0.80046   0.79124   0.21876   0.00000  Uiso   1.00
Zn557  Zn    0.87723   0.86442   0.20657   0.00000  Uiso   1.00
Zn558  Zn    0.79560   0.87106   0.28734   0.00000  Uiso   1.00
C559   C     0.05313   0.15991   0.75926   0.00000  Uiso   1.00
C560   C     0.16590   0.15290   0.55948   0.00000  Uiso   1.00
C561   C     0.23603   0.13542   0.55697   0.00000  Uiso   1.00
C562   C     0.28066   0.17348   0.74015   0.00000  Uiso   1.00
C563   C     0.13871   0.18968   0.92014   0.00000  Uiso   1.00
C564   C     0.32601   0.17678   0.73834   0.00000  Uiso   1.00
C565   C     0.00803   0.15473   0.76372   0.00000  Uiso   1.00
C566   C     0.18043   0.32281   0.73883   0.00000  Uiso   1.00
C567   C     0.15033   0.01181   0.76464   0.00000  Uiso   1.00
C568   C     0.15670   0.05598   0.75959   0.00000  Uiso   1.00
C569   C     0.17645   0.27790   0.74039   0.00000  Uiso   1.00
C570   C     0.08336   0.19552   0.98906   0.00000  Uiso   1.00
C571   C     0.18556   0.14821   0.62944   0.00000  Uiso   1.00
C572   C     0.14909   0.18505   0.87082   0.00000  Uiso   1.00
C573   C     0.24905   0.14056   0.51141   0.00000  Uiso   1.00
C574   C     0.19477   0.14225   0.58103   0.00000  Uiso   1.00
C575   C     0.09761   0.19858   0.94317   0.00000  Uiso   1.00
C576   C     0.31758   0.11909   0.78952   0.00000  Uiso   1.00
C577   C     0.09150   0.01806   0.82575   0.00000  Uiso   1.00
C578   C     0.05478   0.32538   0.85571   0.00000  Uiso   1.00
C579   C     0.10932   0.18251   0.51260   0.00000  Uiso   1.00
C580   C     0.15140   0.17402   0.99082   0.00000  Uiso   1.00
C581   C     0.16689   0.18011   0.94436   0.00000  Uiso   1.00
C582   C     0.17876   0.15996   0.51357   0.00000  Uiso   1.00
C583   C     0.22131   0.15389   0.98981   0.00000  Uiso   1.00
C584   C     0.23662   0.16307   0.94529   0.00000  Uiso   1.00
C585   C     0.21022   0.17693   0.92323   0.00000  Uiso   1.00
H586   H     0.25874   0.12798   0.57395   0.00000  Uiso   1.00
H587   H     0.01429   0.19916   0.71687   0.00000  Uiso   1.00
H588   H     0.32174   0.11636   0.82262   0.00000  Uiso   1.00
H589   H     0.07824   0.04304   0.81392   0.00000  Uiso   1.00
H590   H     0.11423   0.03213   0.84610   0.00000  Uiso   1.00
H591   H     0.06702   0.30021   0.86828   0.00000  Uiso   1.00
H592   H     0.03869   0.01203   0.88472   0.00000  Uiso   1.00
H593   H     0.03117   0.31126   0.83660   0.00000  Uiso   1.00
H594   H     0.20889   0.00477   0.71686   0.00000  Uiso   1.00
H595   H     0.26953   0.16027   0.92755   0.00000  Uiso   1.00
H596   H     0.28151   0.13605   0.99350   0.00000  Uiso   1.00
H597   H     0.13481   0.15817   0.58019   0.00000  Uiso   1.00
H598   H     0.07567   0.20629   0.92538   0.00000  Uiso   1.00
H599   H     0.09543   0.17977   0.54783   0.00000  Uiso   1.00
H600   H     0.05132   0.20194   0.50633   0.00000  Uiso   1.00
H601   H     0.22473   0.18598   0.88962   0.00000  Uiso   1.00
O602   O     0.16667   0.16667   0.75000   0.00000  Uiso   1.00
O603   O     0.15451   0.12637   0.65459   0.00000  Uiso   1.00
O604   O     0.12940   0.20391   0.84968   0.00000  Uiso   1.00
O605   O     0.20824   0.17759   0.64606   0.00000  Uiso   1.00
O606   O     0.17451   0.15880   0.84968   0.00000  Uiso   1.00
O607   O     0.29632   0.09095   0.77271   0.00000  Uiso   1.00
O608   O     0.11152   0.32551   0.78899   0.00000  Uiso   1.00
O609   O     0.17930   0.08019   0.78214   0.00000  Uiso   1.00
O610   O     0.14632   0.26085   0.77014   0.00000  Uiso   1.00
O611   O     0.07412   0.13291   0.73413   0.00000  Uiso   1.00
O612   O     0.26693   0.19272   0.71361   0.00000  Uiso   1.00
O613   O     0.07071   0.18878   0.78213   0.00000  Uiso   1.00
O614   O     0.25491   0.15226   0.77014   0.00000  Uiso   1.00
O615   O     0.13760   0.06944   0.73413   0.00000  Uiso   1.00
O616   O     0.20345   0.25620   0.71361   0.00000  Uiso   1.00
Zn617  Zn    0.19338   0.13994   0.78734   0.00000  Uiso   1.00
Zn618  Zn    0.13379   0.12458   0.71876   0.00000  Uiso   1.00
Zn619  Zn    0.21056   0.19775   0.70657   0.00000  Uiso   1.00
Zn620  Zn    0.12893   0.20439   0.78734   0.00000  Uiso   1.00
C621   C     0.38647   0.15991   0.75926   0.00000  Uiso   1.00
C622   C     0.49923   0.15290   0.55948   0.00000  Uiso   1.00
C623   C     0.56936   0.13542   0.55697   0.00000  Uiso   1.00
C624   C     0.61399   0.17348   0.74015   0.00000  Uiso   1.00
C625   C     0.47205   0.18968   0.92014   0.00000  Uiso   1.00
C626   C     0.65934   0.17678   0.73834   0.00000  Uiso   1.00
C627   C     0.34136   0.15473   0.76372   0.00000  Uiso   1.00
C628   C     0.51377   0.32281   0.73883   0.00000  Uiso   1.00
C629   C     0.48366   0.01181   0.76464   0.00000  Uiso   1.00
C630   C     0.49003   0.05598   0.75959   0.00000  Uiso   1.00
C631   C     0.50979   0.27790   0.74039   0.00000  Uiso   1.00
C632   C     0.41669   0.19552   0.98906   0.00000  Uiso   1.00
C633   C     0.51889   0.14821   0.62944   0.00000  Uiso   1.00
C634   C     0.48243   0.18505   0.87082   0.00000  Uiso   1.00
C635   C     0.58238   0.14056   0.51141   0.00000  Uiso   1.00
C636   C     0.52811   0.14225   0.58103   0.00000  Uiso   1.00
C637   C     0.43094   0.19858   0.94317   0.00000  Uiso   1.00
C638   C     0.65091   0.11909   0.78952   0.00000  Uiso   1.00
C639   C     0.42484   0.01806   0.82575   0.00000  Uiso   1.00
C640   C     0.38811   0.32538   0.85571   0.00000  Uiso   1.00
C641   C     0.44265   0.18251   0.51260   0.00000  Uiso   1.00
C642   C     0.48474   0.17402   0.99082   0.00000  Uiso   1.00
C643   C     0.50022   0.18011   0.94436   0.00000  Uiso   1.00
C644   C     0.51210   0.15996   0.51357   0.00000  Uiso   1.00
C645   C     0.55464   0.15389   0.98981   0.00000  Uiso   1.00
C646   C     0.56995   0.16307   0.94529   0.00000  Uiso   1.00
C647   C     0.54356   0.17693   0.92323   0.00000  Uiso   1.00
H648   H     0.59207   0.12798   0.57395   0.00000  Uiso   1.00
H649   H     0.34762   0.19916   0.71687   0.00000  Uiso   1.00
H650   H     0.65507   0.11636   0.82262   0.00000  Uiso   1.00
H651   H     0.41157   0.04304   0.81392   0.00000  Uiso   1.00
H652   H     0.44756   0.03213   0.84610   0.00000  Uiso   1.00
H653   H     0.40035   0.30021   0.86828   0.00000  Uiso   1.00
H654   H     0.37202   0.01203   0.88472   0.00000  Uiso   1.00
H655   H     0.36451   0.31126   0.83660   0.00000  Uiso   1.00
H656   H     0.54222   0.00477   0.71686   0.00000  Uiso   1.00
H657   H     0.60286   0.16027   0.92755   0.00000  Uiso   1.00
H658   H     0.61484   0.13605   0.99350   0.00000  Uiso   1.00
H659   H     0.46814   0.15817   0.58019   0.00000  Uiso   1.00
H660   H     0.40900   0.20629   0.92538   0.00000  Uiso   1.00
H661   H     0.42876   0.17977   0.54783   0.00000  Uiso   1.00
H662   H     0.38466   0.20194   0.50633   0.00000  Uiso   1.00
H663   H     0.55806   0.18598   0.88962   0.00000  Uiso   1.00
O664   O     0.50000   0.16667   0.75000   0.00000  Uiso   1.00
O665   O     0.48784   0.12637   0.65459   0.00000  Uiso   1.00
O666   O     0.46274   0.20391   0.84968   0.00000  Uiso   1.00
O667   O     0.54157   0.17759   0.64606   0.00000  Uiso   1.00
O668   O     0.50785   0.15880   0.84968   0.00000  Uiso   1.00
O669   O     0.62965   0.09095   0.77271   0.00000  Uiso   1.00
O670   O     0.44485   0.32551   0.78899   0.00000  Uiso   1.00
O671   O     0.51264   0.08019   0.78214   0.00000  Uiso   1.00
O672   O     0.47965   0.26085   0.77014   0.00000  Uiso   1.00
O673   O     0.40745   0.13291   0.73413   0.00000  Uiso   1.00
O674   O     0.60026   0.19272   0.71361   0.00000  Uiso   1.00
O675   O     0.40405   0.18878   0.78213   0.00000  Uiso   1.00
O676   O     0.58824   0.15226   0.77014   0.00000  Uiso   1.00
O677   O     0.47093   0.06944   0.73413   0.00000  Uiso   1.00
O678   O     0.53678   0.25620   0.71361   0.00000  Uiso   1.00
Zn679  Zn    0.52672   0.13994   0.78734   0.00000  Uiso   1.00
Zn680  Zn    0.46713   0.12458   0.71876   0.00000  Uiso   1.00
Zn681  Zn    0.54389   0.19775   0.70657   0.00000  Uiso   1.00
Zn682  Zn    0.46226   0.20439   0.78734   0.00000  Uiso   1.00
C683   C     0.71980   0.15991   0.75926   0.00000  Uiso   1.00
C684   C     0.83256   0.15290   0.55948   0.00000  Uiso   1.00
C685   C     0.90269   0.13542   0.55697   0.00000  Uiso   1.00
C686   C     0.94732   0.17348   0.74015   0.00000  Uiso   1.00
C687   C     0.80538   0.18968   0.92014   0.00000  Uiso   1.00
C688   C     0.99268   0.17678   0.73834   0.00000  Uiso   1.00
C689   C     0.67470   0.15473   0.76372   0.00000  Uiso   1.00
C690   C     0.84710   0.32281   0.73883   0.00000  Uiso   1.00
C691   C     0.81699   0.01181   0.76464   0.00000  Uiso   1.00
C692   C     0.82337   0.05598   0.75959   0.00000  Uiso   1.00
C693   C     0.84312   0.27790   0.74039   0.00000  Uiso   1.00
C694   C     0.75002   0.19552   0.98906   0.00000  Uiso   1.00
C695   C     0.85222   0.14821   0.62944   0.00000  Uiso   1.00
C696   C     0.81576   0.18505   0.87082   0.00000  Uiso   1.00
C697   C     0.91572   0.14056   0.51141   0.00000  Uiso   1.00
C698   C     0.86144   0.14225   0.58103   0.00000  Uiso   1.00
C699   C     0.76427   0.19858   0.94317   0.00000  Uiso   1.00
C700   C     0.98424   0.11909   0.78952   0.00000  Uiso   1.00
C701   C     0.75817   0.01806   0.82575   0.00000  Uiso   1.00
C702   C     0.72144   0.32538   0.85571   0.00000  Uiso   1.00
C703   C     0.77599   0.18251   0.51260   0.00000  Uiso   1.00
C704   C     0.81807   0.17402   0.99082   0.00000  Uiso   1.00
C705   C     0.83355   0.18011   0.94436   0.00000  Uiso   1.00
C706   C     0.84543   0.15996   0.51357   0.00000  Uiso   1.00
C707   C     0.88797   0.15389   0.98981   0.00000  Uiso   1.00
C708   C     0.90328   0.16307   0.94529   0.00000  Uiso   1.00
C709   C     0.87689   0.17693   0.92323   0.00000  Uiso   1.00
H710   H     0.92541   0.12798   0.57395   0.00000  Uiso   1.00
H711   H     0.68095   0.19916   0.71687   0.00000  Uiso   1.00
H712   H     0.98840   0.11636   0.82262   0.00000  Uiso   1.00
H713   H     0.74491   0.04304   0.81392   0.00000  Uiso   1.00
H714   H     0.78090   0.03213   0.84610   0.00000  Uiso   1.00
H715   H     0.73369   0.30021   0.86828   0.00000  Uiso   1.00
H716   H     0.70535   0.01203   0.88472   0.00000  Uiso   1.00
H717   H     0.69784   0.31126   0.83660   0.00000  Uiso   1.00
H718   H     0.87555   0.00477   0.71686   0.00000  Uiso   1.00
H719   H     0.93620   0.16027   0.92755   0.00000  Uiso   1.00
H720   H     0.94818   0.13605   0.99350   0.00000  Uiso   1.00
H721   H     0.80147   0.15817   0.58019   0.00000  Uiso   1.00
H722   H     0.74234   0.20629   0.92538   0.00000  Uiso   1.00
H723   H     0.76210   0.17977   0.54783   0.00000  Uiso   1.00
H724   H     0.71799   0.20194   0.50633   0.00000  Uiso   1.00
H725   H     0.89140   0.18598   0.88962   0.00000  Uiso   1.00
O726   O     0.83333   0.16667   0.75000   0.00000  Uiso   1.00
O727   O     0.82118   0.12637   0.65459   0.00000  Uiso   1.00
O728   O     0.79607   0.20391   0.84968   0.00000  Uiso   1.00
O729   O     0.87491   0.17759   0.64606   0.00000  Uiso   1.00
O730   O     0.84118   0.15880   0.84968   0.00000  Uiso   1.00
O731   O     0.96299   0.09095   0.77271   0.00000  Uiso   1.00
O732   O     0.77818   0.32551   0.78899   0.00000  Uiso   1.00
O733   O     0.84597   0.08019   0.78214   0.00000  Uiso   1.00
O734   O     0.81298   0.26085   0.77014   0.00000  Uiso   1.00
O735   O     0.74078   0.13291   0.73413   0.00000  Uiso   1.00
O736   O     0.93360   0.19272   0.71361   0.00000  Uiso   1.00
O737   O     0.73738   0.18878   0.78213   0.00000  Uiso   1.00
O738   O     0.92158   0.15226   0.77014   0.00000  Uiso   1.00
O739   O     0.80426   0.06944   0.73413   0.00000  Uiso   1.00
O740   O     0.87012   0.25620   0.71361   0.00000  Uiso   1.00
Zn741  Zn    0.86005   0.13994   0.78734   0.00000  Uiso   1.00
Zn742  Zn    0.80046   0.12458   0.71876   0.00000  Uiso   1.00
Zn743  Zn    0.87723   0.19775   0.70657   0.00000  Uiso   1.00
Zn744  Zn    0.79560   0.20439   0.78734   0.00000  Uiso   1.00
C745   C     0.05313   0.49324   0.75926   0.00000  Uiso   1.00
C746   C     0.16590   0.48623   0.55948   0.00000  Uiso   1.00
C747   C     0.23603   0.46876   0.55697   0.00000  Uiso   1.00
C748   C     0.28066   0.50682   0.74015   0.00000  Uiso   1.00
C749   C     0.13871   0.52301   0.92014   0.00000  Uiso   1.00
C750   C     0.32601   0.51011   0.73834   0.00000  Uiso   1.00
C751   C     0.00803   0.48806   0.76372   0.00000  Uiso   1.00
C752   C     0.18043   0.65614   0.73883   0.00000  Uiso   1.00
C753   C     0.15033   0.34515   0.76464   0.00000  Uiso   1.00
C754   C     0.15670   0.38931   0.75959   0.00000  Uiso   1.00
C755   C     0.17645   0.61124   0.74039   0.00000  Uiso   1.00
C756   C     0.08336   0.52885   0.98906   0.00000  Uiso   1.00
C757   C     0.18556   0.48154   0.62944   0.00000  Uiso   1.00
C758   C     0.14909   0.51839   0.87082   0.00000  Uiso   1.00
C759   C     0.24905   0.47390   0.51141   0.00000  Uiso   1.00
C760   C     0.19477   0.47558   0.58103   0.00000  Uiso   1.00
C761   C     0.09761   0.53192   0.94317   0.00000  Uiso   1.00
C762   C     0.31758   0.45242   0.78952   0.00000  Uiso   1.00
C763   C     0.09150   0.35139   0.82575   0.00000  Uiso   1.00
C764   C     0.05478   0.65872   0.85571   0.00000  Uiso   1.00
C765   C     0.10932   0.51584   0.51260   0.00000  Uiso   1.00
C766   C     0.15140   0.50735   0.99082   0.00000  Uiso   1.00
C767   C     0.16689   0.51344   0.94436   0.00000  Uiso   1.00
C768   C     0.17876   0.49329   0.51357   0.00000  Uiso   1.00
C769   C     0.22131   0.48722   0.98981   0.00000  Uiso   1.00
C770   C     0.23662   0.49641   0.94529   0.00000  Uiso   1.00
C771   C     0.21022   0.51026   0.92323   0.00000  Uiso   1.00
H772   H     0.25874   0.46131   0.57395   0.00000  Uiso   1.00
H773   H     0.01429   0.53249   0.71687   0.00000  Uiso   1.00
H774   H     0.32174   0.44969   0.82262   0.00000  Uiso   1.00
H775   H     0.07824   0.37637   0.81392   0.00000  Uiso   1.00
H776   H     0.11423   0.36546   0.84610   0.00000  Uiso   1.00
H777   H     0.06702   0.63355   0.86828   0.00000  Uiso   1.00
H778   H     0.03869   0.34536   0.88472   0.00000  Uiso   1.00
H779   H     0.03117   0.64460   0.83660   0.00000  Uiso   1.00
H780   H     0.20889   0.33810   0.71686   0.00000  Uiso   1.00
H781   H     0.26953   0.49360   0.92755   0.00000  Uiso   1.00
H782   H     0.28151   0.46938   0.99350   0.00000  Uiso   1.00
H783   H     0.13481   0.49151   0.58019   0.00000  Uiso   1.00
H784   H     0.07567   0.53963   0.92538   0.00000  Uiso   1.00
H785   H     0.09543   0.51310   0.54783   0.00000  Uiso   1.00
H786   H     0.05132   0.53528   0.50633   0.00000  Uiso   1.00
H787   H     0.22473   0.51932   0.88962   0.00000  Uiso   1.00
O788   O     0.16667   0.50000   0.75000   0.00000  Uiso   1.00
O789   O     0.15451   0.45970   0.65459   0.00000  Uiso   1.00
O790   O     0.12940   0.53724   0.84968   0.00000  Uiso   1.00
O791   O     0.20824   0.51092   0.64606   0.00000  Uiso   1.00
O792   O     0.17451   0.49213   0.84968   0.00000  Uiso   1.00
O793   O     0.29632   0.42429   0.77271   0.00000  Uiso   1.00
O794   O     0.11152   0.65884   0.78899   0.00000  Uiso   1.00
O795   O     0.17930   0.41352   0.78214   0.00000  Uiso   1.00
O796   O     0.14632   0.59418   0.77014   0.00000  Uiso   1.00
O797   O     0.07412   0.46625   0.73413   0.00000  Uiso   1.00
O798   O     0.26693   0.52605   0.71361   0.00000  Uiso   1.00
O799   O     0.07071   0.52211   0.78213   0.00000  Uiso   1.00
O800   O     0.25491   0.48559   0.77014   0.00000  Uiso   1.00
O801   O     0.13760   0.40277   0.73413   0.00000  Uiso   1.00
O802   O     0.20345   0.58953   0.71361   0.00000  Uiso   1.00
Zn803  Zn    0.19338   0.47327   0.78734   0.00000  Uiso   1.00
Zn804  Zn    0.13379   0.45791   0.71876   0.00000  Uiso   1.00
Zn805  Zn    0.21056   0.53109   0.70657   0.00000  Uiso   1.00
Zn806  Zn    0.12893   0.53773   0.78734   0.00000  Uiso   1.00
C807   C     0.38647   0.49324   0.75926   0.00000  Uiso   1.00
C808   C     0.49923   0.48623   0.55948   0.00000  Uiso   1.00
C809   C     0.56936   0.46876   0.55697   0.00000  Uiso   1.00
C810   C     0.61399   0.50682   0.74015   0.00000  Uiso   1.00
C811   C     0.47205   0.52301   0.92014   0.00000  Uiso   1.00
C812   C     0.65934   0.51011   0.73834   0.00000  Uiso   1.00
C813   C     0.34136   0.48806   0.76372   0.00000  Uiso   1.00
C814   C     0.51377   0.65614   0.73883   0.00000  Uiso   1.00
C815   C     0.48366   0.34515   0.76464   0.00000  Uiso   1.00
C816   C     0.49003   0.38931   0.75959   0.00000  Uiso   1.00
C817   C     0.50979   0.61124   0.74039   0.00000  Uiso   1.00
C818   C     0.41669   0.52885   0.98906   0.00000  Uiso   1.00
C819   C     0.51889   0.48154   0.62944   0.00000  Uiso   1.00
C820   C     0.48243   0.51839   0.87082   0.00000  Uiso   1.00
C821   C     0.58238   0.47390   0.51141   0.00000  Uiso   1.00
C822   C     0.52811   0.47558   0.58103   0.00000  Uiso   1.00
C823   C     0.43094   0.53192   0.94317   0.00000  Uiso   1.00
C824   C     0.65091   0.45242   0.78952   0.00000  Uiso   1.00
C825   C     0.42484   0.35139   0.82575   0.00000  Uiso   1.00
C826   C     0.38811   0.65872   0.85571   0.00000  Uiso   1.00
C827   C     0.44265   0.51584   0.51260   0.00000  Uiso   1.00
C828   C     0.48474   0.50735   0.99082   0.00000  Uiso   1.00
C829   C     0.50022   0.51344   0.94436   0.00000  Uiso   1.00
C830   C     0.51210   0.49329   0.51357   0.00000  Uiso   1.00
C831   C     0.55464   0.48722   0.98981   0.00000  Uiso   1.00
C832   C     0.56995   0.49641   0.94529   0.00000  Uiso   1.00
C833   C     0.54356   0.51026   0.92323   0.00000  Uiso   1.00
H834   H     0.59207   0.46131   0.57395   0.00000  Uiso   1.00
H835   H     0.34762   0.53249   0.71687   0.00000  Uiso   1.00
H836   H     0.65507   0.44969   0.82262   0.00000  Uiso   1.00
H837   H     0.41157   0.37637   0.81392   0.00000  Uiso   1.00
H838   H     0.44756   0.36546   0.84610   0.00000  Uiso   1.00
H839   H     0.40035   0.63355   0.86828   0.00000  Uiso   1.00
H840   H     0.37202   0.34536   0.88472   0.00000  Uiso   1.00
H841   H     0.36451   0.64460   0.83660   0.00000  Uiso   1.00
H842   H     0.54222   0.33810   0.71686   0.00000  Uiso   1.00
H843   H     0.60286   0.49360   0.92755   0.00000  Uiso   1.00
H844   H     0.61484   0.46938   0.99350   0.00000  Uiso   1.00
H845   H     0.46814   0.49151   0.58019   0.00000  Uiso   1.00
H846   H     0.40900   0.53963   0.92538   0.00000  Uiso   1.00
H847   H     0.42876   0.51310   0.54783   0.00000  Uiso   1.00
H848   H     0.38466   0.53528   0.50633   0.00000  Uiso   1.00
H849   H     0.55806   0.51932   0.88962   0.00000  Uiso   1.00
O850   O     0.50000   0.50000   0.75000   0.00000  Uiso   1.00
O851   O     0.48784   0.45970   0.65459   0.00000  Uiso   1.00
O852   O     0.46274   0.53724   0.84968   0.00000  Uiso   1.00
O853   O     0.54157   0.51092   0.64606   0.00000  Uiso   1.00
O854   O     0.50785   0.49213   0.84968   0.00000  Uiso   1.00
O855   O     0.62965   0.42429   0.77271   0.00000  Uiso   1.00
O856   O     0.44485   0.65884   0.78899   0.00000  Uiso   1.00
O857   O     0.51264   0.41352   0.78214   0.00000  Uiso   1.00
O858   O     0.47965   0.59418   0.77014   0.00000  Uiso   1.00
O859   O     0.40745   0.46625   0.73413   0.00000  Uiso   1.00
O860   O     0.60026   0.52605   0.71361   0.00000  Uiso   1.00
O861   O     0.40405   0.52211   0.78213   0.00000  Uiso   1.00
O862   O     0.58824   0.48559   0.77014   0.00000  Uiso   1.00
O863   O     0.47093   0.40277   0.73413   0.00000  Uiso   1.00
O864   O     0.53678   0.58953   0.71361   0.00000  Uiso   1.00
Zn865  Zn    0.52672   0.47327   0.78734   0.00000  Uiso   1.00
Zn866  Zn    0.46713   0.45791   0.71876   0.00000  Uiso   1.00
Zn867  Zn    0.54389   0.53109   0.70657   0.00000  Uiso   1.00
Zn868  Zn    0.46226   0.53773   0.78734   0.00000  Uiso   1.00
C869   C     0.71980   0.49324   0.75926   0.00000  Uiso   1.00
C870   C     0.83256   0.48623   0.55948   0.00000  Uiso   1.00
C871   C     0.90269   0.46876   0.55697   0.00000  Uiso   1.00
C872   C     0.94732   0.50682   0.74015   0.00000  Uiso   1.00
C873   C     0.80538   0.52301   0.92014   0.00000  Uiso   1.00
C874   C     0.99268   0.51011   0.73834   0.00000  Uiso   1.00
C875   C     0.67470   0.48806   0.76372   0.00000  Uiso   1.00
C876   C     0.84710   0.65614   0.73883   0.00000  Uiso   1.00
C877   C     0.81699   0.34515   0.76464   0.00000  Uiso   1.00
C878   C     0.82337   0.38931   0.75959   0.00000  Uiso   1.00
C879   C     0.84312   0.61124   0.74039   0.00000  Uiso   1.00
C880   C     0.75002   0.52885   0.98906   0.00000  Uiso   1.00
C881   C     0.85222   0.48154   0.62944   0.00000  Uiso   1.00
C882   C     0.81576   0.51839   0.87082   0.00000  Uiso   1.00
C883   C     0.91572   0.47390   0.51141   0.00000  Uiso   1.00
C884   C     0.86144   0.47558   0.58103   0.00000  Uiso   1.00
C885   C     0.76427   0.53192   0.94317   0.00000  Uiso   1.00
C886   C     0.98424   0.45242   0.78952   0.00000  Uiso   1.00
C887   C     0.75817   0.35139   0.82575   0.00000  Uiso   1.00
C888   C     0.72144   0.65872   0.85571   0.00000  Uiso   1.00
C889   C     0.77599   0.51584   0.51260   0.00000  Uiso   1.00
C890   C     0.81807   0.50735   0.99082   0.00000  Uiso   1.00
C891   C     0.83355   0.51344   0.94436   0.00000  Uiso   1.00
C892   C     0.84543   0.49329   0.51357   0.00000  Uiso   1.00
C893   C     0.88797   0.48722   0.98981   0.00000  Uiso   1.00
C894   C     0.90328   0.49641   0.94529   0.00000  Uiso   1.00
C895   C     0.87689   0.51026   0.92323   0.00000  Uiso   1.00
H896   H     0.92541   0.46131   0.57395   0.00000  Uiso   1.00
H897   H     0.68095   0.53249   0.71687   0.00000  Uiso   1.00
H898   H     0.98840   0.44969   0.82262   0.00000  Uiso   1.00
H899   H     0.74491   0.37637   0.81392   0.00000  Uiso   1.00
H900   H     0.78090   0.36546   0.84610   0.00000  Uiso   1.00
H901   H     0.73369   0.63355   0.86828   0.00000  Uiso   1.00
H902   H     0.70535   0.34536   0.88472   0.00000  Uiso   1.00
H903   H     0.69784   0.64460   0.83660   0.00000  Uiso   1.00
H904   H     0.87555   0.33810   0.71686   0.00000  Uiso   1.00
H905   H     0.93620   0.49360   0.92755   0.00000  Uiso   1.00
H906   H     0.94818   0.46938   0.99350   0.00000  Uiso   1.00
H907   H     0.80147   0.49151   0.58019   0.00000  Uiso   1.00
H908   H     0.74234   0.53963   0.92538   0.00000  Uiso   1.00
H909   H     0.76210   0.51310   0.54783   0.00000  Uiso   1.00
H910   H     0.71799   0.53528   0.50633   0.00000  Uiso   1.00
H911   H     0.89140   0.51932   0.88962   0.00000  Uiso   1.00
O912   O     0.83333   0.50000   0.75000   0.00000  Uiso   1.00
O913   O     0.82118   0.45970   0.65459   0.00000  Uiso   1.00
O914   O     0.79607   0.53724   0.84968   0.00000  Uiso   1.00
O915   O     0.87491   0.51092   0.64606   0.00000  Uiso   1.00
O916   O     0.84118   0.49213   0.84968   0.00000  Uiso   1.00
O917   O     0.96299   0.42429   0.77271   0.00000  Uiso   1.00
O918   O     0.77818   0.65884   0.78899   0.00000  Uiso   1.00
O919   O     0.84597   0.41352   0.78214   0.00000  Uiso   1.00
O920   O     0.81298   0.59418   0.77014   0.00000  Uiso   1.00
O921   O     0.74078   0.46625   0.73413   0.00000  Uiso   1.00
O922   O     0.93360   0.52605   0.71361   0.00000  Uiso   1.00
O923   O     0.73738   0.52211   0.78213   0.00000  Uiso   1.00
O924   O     0.92158   0.48559   0.77014   0.00000  Uiso   1.00
O925   O     0.80426   0.40277   0.73413   0.00000  Uiso   1.00
O926   O     0.87012   0.58953   0.71361   0.00000  Uiso   1.00
Zn927  Zn    0.86005   0.47327   0.78734   0.00000  Uiso   1.00
Zn928  Zn    0.80046   0.45791   0.71876   0.00000  Uiso   1.00
Zn929  Zn    0.87723   0.53109   0.70657   0.00000  Uiso   1.00
Zn930  Zn    0.79560   0.53773   0.78734   0.00000  Uiso   1.00
C931   C     0.05313   0.82658   0.75926   0.00000  Uiso   1.00
C932   C     0.16590   0.81957   0.55948   0.00000  Uiso   1.00
C933   C     0.23603   0.80209   0.55697   0.00000  Uiso   1.00
C934   C     0.28066   0.84015   0.74015   0.00000  Uiso   1.00
C935   C     0.13871   0.85635   0.92014   0.00000  Uiso   1.00
C936   C     0.32601   0.84345   0.73834   0.00000  Uiso   1.00
C937   C     0.00803   0.82139   0.76372   0.00000  Uiso   1.00
C938   C     0.18043   0.98948   0.73883   0.00000  Uiso   1.00
C939   C     0.15033   0.67848   0.76464   0.00000  Uiso   1.00
C940   C     0.15670   0.72265   0.75959   0.00000  Uiso   1.00
C941   C     0.17645   0.94457   0.74039   0.00000  Uiso   1.00
C942   C     0.08336   0.86219   0.98906   0.00000  Uiso   1.00
C943   C     0.18556   0.81487   0.62944   0.00000  Uiso   1.00
C944   C     0.14909   0.85172   0.87082   0.00000  Uiso   1.00
C945   C     0.24905   0.80723   0.51141   0.00000  Uiso   1.00
C946   C     0.19477   0.80892   0.58103   0.00000  Uiso   1.00
C947   C     0.09761   0.86525   0.94317   0.00000  Uiso   1.00
C948   C     0.31758   0.78575   0.78952   0.00000  Uiso   1.00
C949   C     0.09150   0.68472   0.82575   0.00000  Uiso   1.00
C950   C     0.05478   0.99205   0.85571   0.00000  Uiso   1.00
C951   C     0.10932   0.84918   0.51260   0.00000  Uiso   1.00
C952   C     0.15140   0.84068   0.99082   0.00000  Uiso   1.00
C953   C     0.16689   0.84677   0.94436   0.00000  Uiso   1.00
C954   C     0.17876   0.82663   0.51357   0.00000  Uiso   1.00
C955   C     0.22131   0.82055   0.98981   0.00000  Uiso   1.00
C956   C     0.23662   0.82974   0.94529   0.00000  Uiso   1.00
C957   C     0.21022   0.84360   0.92323   0.00000  Uiso   1.00
H958   H     0.25874   0.79464   0.57395   0.00000  Uiso   1.00
H959   H     0.01429   0.86583   0.71687   0.00000  Uiso   1.00
H960   H     0.32174   0.78303   0.82262   0.00000  Uiso   1.00
H961   H     0.07824   0.70970   0.81392   0.00000  Uiso   1.00
H962   H     0.11423   0.69879   0.84610   0.00000  Uiso   1.00
H963   H     0.06702   0.96688   0.86828   0.00000  Uiso   1.00
H964   H     0.03869   0.67870   0.88472   0.00000  Uiso   1.00
H965   H     0.03117   0.97793   0.83660   0.00000  Uiso   1.00
H966   H     0.20889   0.67143   0.71686   0.00000  Uiso   1.00
H967   H     0.26953   0.82694   0.92755   0.00000  Uiso   1.00
H968   H     0.28151   0.80272   0.99350   0.00000  Uiso   1.00
H969   H     0.13481   0.82484   0.58019   0.00000  Uiso   1.00
H970   H     0.07567   0.87296   0.92538   0.00000  Uiso   1.00
H971   H     0.09543   0.84643   0.54783   0.00000  Uiso   1.00
H972   H     0.05132   0.86861   0.50633   0.00000  Uiso   1.00
H973   H     0.22473   0.85265   0.88962   0.00000  Uiso   1.00
O974   O     0.16667   0.83333   0.75000   0.00000  Uiso   1.00
O975   O     0.15451   0.79304   0.65459   0.00000  Uiso   1.00
O976   O     0.12940   0.87058   0.84968   0.00000  Uiso   1.00
O977   O     0.20824   0.84425   0.64606   0.00000  Uiso   1.00
O978   O     0.17451   0.82546   0.84968   0.00000  Uiso   1.00
O979   O     0.29632   0.75762   0.77271   0.00000  Uiso   1.00
O980   O     0.11152   0.99218   0.78899   0.00000  Uiso   1.00
O981   O     0.17930   0.74686   0.78214   0.00000  Uiso   1.00
O982   O     0.14632   0.92751   0.77014   0.00000  Uiso   1.00
O983   O     0.07412   0.79958   0.73413   0.00000  Uiso   1.00
O984   O     0.26693   0.85939   0.71361   0.00000  Uiso   1.00
O985   O     0.07071   0.85544   0.78213   0.00000  Uiso   1.00
O986   O     0.25491   0.81892   0.77014   0.00000  Uiso   1.00
O987   O     0.13760   0.73610   0.73413   0.00000  Uiso   1.00
O988   O     0.20345   0.92286   0.71361   0.00000  Uiso   1.00
Zn989  Zn    0.19338   0.80661   0.78734   0.00000  Uiso   1.00
Zn990  Zn    0.13379   0.79124   0.71876   0.00000  Uiso   1.00
Zn991  Zn    0.21056   0.86442   0.70657   0.00000  Uiso   1.00
Zn992  Zn    0.12893   0.87106   0.78734   0.00000  Uiso   1.00
C993   C     0.38647   0.82658   0.75926   0.00000  Uiso   1.00
C994   C     0.49923   0.81957   0.55948   0.00000  Uiso   1.00
C995   C     0.56936   0.80209   0.55697   0.00000  Uiso   1.00
C996   C     0.61399   0.84015   0.74015   0.00000  Uiso   1.00
C997   C     0.47205   0.85635   0.92014   0.00000  Uiso   1.00
C998   C     0.65934   0.84345   0.73834   0.00000  Uiso   1.00
C999   C     0.34136   0.82139   0.76372   0.00000  Uiso   1.00
C1000  C     0.51377   0.98948   0.73883   0.00000  Uiso   1.00
C1001  C     0.48366   0.67848   0.76464   0.00000  Uiso   1.00
C1002  C     0.49003   0.72265   0.75959   0.00000  Uiso   1.00
C1003  C     0.50979   0.94457   0.74039   0.00000  Uiso   1.00
C1004  C     0.41669   0.86219   0.98906   0.00000  Uiso   1.00
C1005  C     0.51889   0.81487   0.62944   0.00000  Uiso   1.00
C1006  C     0.48243   0.85172   0.87082   0.00000  Uiso   1.00
C1007  C     0.58238   0.80723   0.51141   0.00000  Uiso   1.00
C1008  C     0.52811   0.80892   0.58103   0.00000  Uiso   1.00
C1009  C     0.43094   0.86525   0.94317   0.00000  Uiso   1.00
C1010  C     0.65091   0.78575   0.78952   0.00000  Uiso   1.00
C1011  C     0.42484   0.68472   0.82575   0.00000  Uiso   1.00
C1012  C     0.38811   0.99205   0.85571   0.00000  Uiso   1.00
C1013  C     0.44265   0.84918   0.51260   0.00000  Uiso   1.00
C1014  C     0.48474   0.84068   0.99082   0.00000  Uiso   1.00
C1015  C     0.50022   0.84677   0.94436   0.00000  Uiso   1.00
C1016  C     0.51210   0.82663   0.51357   0.00000  Uiso   1.00
C1017  C     0.55464   0.82055   0.98981   0.00000  Uiso   1.00
C1018  C     0.56995   0.82974   0.94529   0.00000  Uiso   1.00
C1019  C     0.54356   0.84360   0.92323   0.00000  Uiso   1.00
H1020  H     0.59207   0.79464   0.57395   0.00000  Uiso   1.00
H1021  H     0.34762   0.86583   0.71687   0.00000  Uiso   1.00
H1022  H     0.65507   0.78303   0.82262   0.00000  Uiso   1.00
H1023  H     0.41157   0.70970   0.81392   0.00000  Uiso   1.00
H1024  H     0.44756   0.69879   0.84610   0.00000  Uiso   1.00
H1025  H     0.40035   0.96688   0.86828   0.00000  Uiso   1.00
H1026  H     0.37202   0.67870   0.88472   0.00000  Uiso   1.00
H1027  H     0.36451   0.97793   0.83660   0.00000  Uiso   1.00
H1028  H     0.54222   0.67143   0.71686   0.00000  Uiso   1.00
H1029  H     0.60286   0.82694   0.92755   0.00000  Uiso   1.00
H1030  H     0.61484   0.80272   0.99350   0.00000  Uiso   1.00
H1031  H     0.46814   0.82484   0.58019   0.00000  Uiso   1.00
H1032  H     0.40900   0.87296   0.92538   0.00000  Uiso   1.00
H1033  H     0.42876   0.84643   0.54783   0.00000  Uiso   1.00
H1034  H     0.38466   0.86861   0.50633   0.00000  Uiso   1.00
H1035  H     0.55806   0.85265   0.88962   0.00000  Uiso   1.00
O1036  O     0.50000   0.83333   0.75000   0.00000  Uiso   1.00
O1037  O     0.48784   0.79304   0.65459   0.00000  Uiso   1.00
O1038  O     0.46274   0.87058   0.84968   0.00000  Uiso   1.00
O1039  O     0.54157   0.84425   0.64606   0.00000  Uiso   1.00
O1040  O     0.50785   0.82546   0.84968   0.00000  Uiso   1.00
O1041  O     0.62965   0.75762   0.77271   0.00000  Uiso   1.00
O1042  O     0.44485   0.99218   0.78899   0.00000  Uiso   1.00
O1043  O     0.51264   0.74686   0.78214   0.00000  Uiso   1.00
O1044  O     0.47965   0.92751   0.77014   0.00000  Uiso   1.00
O1045  O     0.40745   0.79958   0.73413   0.00000  Uiso   1.00
O1046  O     0.60026   0.85939   0.71361   0.00000  Uiso   1.00
O1047  O     0.40405   0.85544   0.78213   0.00000  Uiso   1.00
O1048  O     0.58824   0.81892   0.77014   0.00000  Uiso   1.00
O1049  O     0.47093   0.73610   0.73413   0.00000  Uiso   1.00
O1050  O     0.53678   0.92286   0.71361   0.00000  Uiso   1.00
Zn1051 Zn    0.52672   0.80661   0.78734   0.00000  Uiso   1.00
Zn1052 Zn    0.46713   0.79124   0.71876   0.00000  Uiso   1.00
Zn1053 Zn    0.54389   0.86442   0.70657   0.00000  Uiso   1.00
Zn1054 Zn    0.46226   0.87106   0.78734   0.00000  Uiso   1.00
C1055  C     0.71980   0.82658   0.75926   0.00000  Uiso   1.00
C1056  C     0.83256   0.81957   0.55948   0.00000  Uiso   1.00
C1057  C     0.90269   0.80209   0.55697   0.00000  Uiso   1.00
C1058  C     0.94732   0.84015   0.74015   0.00000  Uiso   1.00
C1059  C     0.80538   0.85635   0.92014   0.00000  Uiso   1.00
C1060  C     0.99268   0.84345   0.73834   0.00000  Uiso   1.00
C1061  C     0.67470   0.82139   0.76372   0.00000  Uiso   1.00
C1062  C     0.84710   0.98948   0.73883   0.00000  Uiso   1.00
C1063  C     0.81699   0.67848   0.76464   0.00000  Uiso   1.00
C1064  C     0.82337   0.72265   0.75959   0.00000  Uiso   1.00
C1065  C     0.84312   0.94457   0.74039   0.00000  Uiso   1.00
C1066  C     0.75002   0.86219   0.98906   0.00000  Uiso   1.00
C1067  C     0.85222   0.81487   0.62944   0.00000  Uiso   1.00
C1068  C     0.81576   0.85172   0.87082   0.00000  Uiso   1.00
C1069  C     0.91572   0.80723   0.51141   0.00000  Uiso   1.00
C1070  C     0.86144   0.80892   0.58103   0.00000  Uiso   1.00
C1071  C     0.76427   0.86525   0.94317   0.00000  Uiso   1.00
C1072  C     0.98424   0.78575   0.78952   0.00000  Uiso   1.00
C1073  C     0.75817   0.68472   0.82575   0.00000  Uiso   1.00
C1074  C     0.72144   0.99205   0.85571   0.00000  Uiso   1.00
C1075  C     0.77599   0.84918   0.51260   0.00000  Uiso   1.00
C1076  C     0.81807   0.84068   0.99082   0.00000  Uiso   1.00
C1077  C     0.83355   0.84677   0.94436   0.00000  Uiso   1.00
C1078  C     0.84543   0.82663   0.51357   0.00000  Uiso   1.00
C1079  C     0.88797   0.82055   0.98981   0.00000  Uiso   1.00
C1080  C     0.90328   0.82974   0.94529   0.00000  Uiso   1.00
C1081  C     0.87689   0.84360   0.92323   0.00000  Uiso   1.00
H1082  H     0.92541   0.79464   0.57395   0.00000  Uiso   1.00
H1083  H     0.68095   0.86583   0.71687   0.00000  Uiso   1.00
H1084  H     0.98840   0.78303   0.82262   0.00000  Uiso   1.00
H1085  H     0.74491   0.70970   0.81392   0.00000  Uiso   1.00
H1086  H     0.78090   0.69879   0.84610   0.00000  Uiso   1.00
H1087  H     0.73369   0.96688   0.86828   0.00000  Uiso   1.00
H1088  H     0.70535   0.67870   0.88472   0.00000  Uiso   1.00
H1089  H     0.69784   0.97793   0.83660   0.00000  Uiso   1.00
H1090  H     0.87555   0.67143   0.71686   0.00000  Uiso   1.00
H1091  H     0.93620   0.82694   0.92755   0.00000  Uiso   1.00
H1092  H     0.94818   0.80272   0.99350   0.00000  Uiso   1.00
H1093  H     0.80147   0.82484   0.58019   0.00000  Uiso   1.00
H1094  H     0.74234   0.87296   0.92538   0.00000  Uiso   1.00
H1095  H     0.76210   0.84643   0.54783   0.00000  Uiso   1.00
H1096  H     0.71799   0.86861   0.50633   0.00000  Uiso   1.00
H1097  H     0.89140   0.85265   0.88962   0.00000  Uiso   1.00
O1098  O     0.83333   0.83333   0.75000   0.00000  Uiso   1.00
O1099  O     0.82118   0.79304   0.65459   0.00000  Uiso   1.00
O1100  O     0.79607   0.87058   0.84968   0.00000  Uiso   1.00
O1101  O     0.87491   0.84425   0.64606   0.00000  Uiso   1.00
O1102  O     0.84118   0.82546   0.84968   0.00000  Uiso   1.00
O1103  O     0.96299   0.75762   0.77271   0.00000  Uiso   1.00
O1104  O     0.77818   0.99218   0.78899   0.00000  Uiso   1.00
O1105  O     0.84597   0.74686   0.78214   0.00000  Uiso   1.00
O1106  O     0.81298   0.92751   0.77014   0.00000  Uiso   1.00
O1107  O     0.74078   0.79958   0.73413   0.00000  Uiso   1.00
O1108  O     0.93360   0.85939   0.71361   0.00000  Uiso   1.00
O1109  O     0.73738   0.85544   0.78213   0.00000  Uiso   1.00
O1110  O     0.92158   0.81892   0.77014   0.00000  Uiso   1.00
O1111  O     0.80426   0.73610   0.73413   0.00000  Uiso   1.00
O1112  O     0.87012   0.92286   0.71361   0.00000  Uiso   1.00
Zn1113 Zn    0.86005   0.80661   0.78734   0.00000  Uiso   1.00
Zn1114 Zn    0.80046   0.79124   0.71876   0.00000  Uiso   1.00
Zn1115 Zn    0.87723   0.86442   0.70657   0.00000  Uiso   1.00
Zn1116 Zn    0.79560   0.87106   0.78734   0.00000  Uiso   1.00
loop_
_geom_bond_atom_site_label_1
_geom_bond_atom_site_label_2
_geom_bond_distance
_geom_bond_site_symmetry_2
_ccdc_geom_bond_type
C1     O55     1.275   .     A
C1     O53     1.264   .     A
C1     C7      1.431   .     S
C2     C16     1.392   .     A
C2     H39     1.077   .     S
C2     C24     1.410   .     A
C3     H28     1.084   .     S
C3     C15     1.387   .     A
C3     C16     1.396   .     A
C4     O56     1.270   .     A
C4     C6      1.457   .     S
C4     O54     1.290   .     A
C5     C23     1.418   .     A
C5     C14     1.473   .     S
C5     C17     1.402   .     A
C6     C69     1.352   .     S
C6     H91     1.088   .     S
C7     C130    1.352   1_455 S
C7     C142    1.486   1_455 S
C8     C11     1.455   .     S
C8     C195    1.344   .     S
C8     H222    1.088   .     S
C9     C10     1.443   .     S
C9     C380    1.344   1_545 S
C9     O422    1.398   1_545 S
C10    O51     1.279   .     A
C10    O57     1.274   .     A
C11    O58     1.280   .     A
C11    O52     1.268   .     A
C12    C17     1.387   .     A
C12    C579    1.391   .     S
C12    H600    1.083   .     S
C13    O45     1.281   .     A
C13    C16     1.449   .     S
C13    O47     1.271   .     A
C14    O48     1.285   .     A
C14    O46     1.284   .     A
C15    C583    1.400   1_554 S
C15    H596    1.084   1_554 S
C17    H40     1.083   .     S
C18    H30     1.085   .     S
C18    O49     1.222   .     D
C18    C69     1.486   .     S
C19    H31     1.113   .     S
C19    H32     1.115   .     S
C19    C392    1.521   1_545 S
C19    O422    1.413   1_545 S
C20    H33     1.111   .     S
C20    H35     1.111   .     S
C20    C205    1.521   .     S
C20    H220    1.110   .     S
C21    H41     1.076   .     S
C21    C570    1.391   1_554 S
C21    C580    1.417   1_554 S
C22    C23     1.423   .     A
C22    C579    1.417   .     S
C22    C582    1.425   .     S
C23    C27     1.410   .     A
C24    C580    1.425   1_554 S
C24    C583    1.424   1_554 S
C25    C26     1.390   .     A
C25    C573    1.400   .     S
C25    C582    1.424   .     S
C26    C27     1.382   .     A
C26    H37     1.084   .     S
C27    H43     1.080   .     S
H29    C130    1.088   1_455 S
H34    C392    1.110   1_545 S
H36    C380    1.088   1_545 S
H38    C573    1.084   .     S
H42    C570    1.083   1_554 S
O44    Zn61    1.939   .     S
O44    Zn60    1.948   .     S
O44    Zn59    1.960   .     S
O44    Zn62    1.938   .     S
O45    Zn60    1.932   .     S
O46    Zn62    1.940   .     S
O47    Zn61    1.936   .     S
O48    Zn59    1.929   .     S
O50    C205    1.413   .     S
O50    C195    1.398   .     S
O51    Zn59    1.932   .     S
O52    Zn62    1.934   .     S
O53    Zn60    1.936   .     S
O54    Zn61    1.944   .     S
O55    Zn62    1.941   .     S
O56    Zn59    1.934   .     S
O57    Zn60    1.938   .     S
O58    Zn61    1.934   .     S
C63    O117    1.275   .     A
C63    O115    1.264   .     A
C63    C69     1.431   .     S
C64    C78     1.392   .     A
C64    H101    1.077   .     S
C64    C86     1.410   .     A
C65    H90     1.084   .     S
C65    C77     1.387   .     A
C65    C78     1.396   .     A
C66    O118    1.270   .     A
C66    C68     1.457   .     S
C66    O116    1.290   .     A
C67    C85     1.418   .     A
C67    C76     1.473   .     S
C67    C79     1.402   .     A
C68    C131    1.352   .     S
C68    H153    1.088   .     S
C70    C73     1.455   .     S
C70    C257    1.344   .     S
C70    H284    1.088   .     S
C71    C72     1.443   .     S
C71    C442    1.344   1_545 S
C71    O484    1.398   1_545 S
C72    O113    1.279   .     A
C72    O119    1.274   .     A
C73    O120    1.280   .     A
C73    O114    1.268   .     A
C74    C79     1.387   .     A
C74    C641    1.391   .     S
C74    H662    1.083   .     S
C75    O107    1.281   .     A
C75    C78     1.449   .     S
C75    O109    1.271   .     A
C76    O110    1.285   .     A
C76    O108    1.284   .     A
C77    C645    1.400   1_554 S
C77    H658    1.084   1_554 S
C79    H102    1.083   .     S
C80    H92     1.085   .     S
C80    O111    1.222   .     D
C80    C131    1.486   .     S
C81    H93     1.113   .     S
C81    H94     1.115   .     S
C81    C454    1.521   1_545 S
C81    O484    1.413   1_545 S
C82    H95     1.111   .     S
C82    H97     1.111   .     S
C82    C267    1.521   .     S
C82    H282    1.110   .     S
C83    H103    1.076   .     S
C83    C632    1.391   1_554 S
C83    C642    1.417   1_554 S
C84    C85     1.423   .     A
C84    C641    1.417   .     S
C84    C644    1.425   .     S
C85    C89     1.410   .     A
C86    C642    1.425   1_554 S
C86    C645    1.424   1_554 S
C87    C88     1.390   .     A
C87    C635    1.400   .     S
C87    C644    1.424   .     S
C88    C89     1.382   .     A
C88    H99     1.084   .     S
C89    H105    1.080   .     S
H96    C454    1.110   1_545 S
H98    C442    1.088   1_545 S
H100   C635    1.084   .     S
H104   C632    1.083   1_554 S
O106   Zn123   1.939   .     S
O106   Zn122   1.948   .     S
O106   Zn121   1.960   .     S
O106   Zn124   1.938   .     S
O107   Zn122   1.932   .     S
O108   Zn124   1.940   .     S
O109   Zn123   1.936   .     S
O110   Zn121   1.929   .     S
O112   C267    1.413   .     S
O112   C257    1.398   .     S
O113   Zn121   1.932   .     S
O114   Zn124   1.934   .     S
O115   Zn122   1.936   .     S
O116   Zn123   1.944   .     S
O117   Zn124   1.941   .     S
O118   Zn121   1.934   .     S
O119   Zn122   1.938   .     S
O120   Zn123   1.934   .     S
C125   O179    1.275   .     A
C125   O177    1.264   .     A
C125   C131    1.431   .     S
C126   C140    1.392   .     A
C126   H163    1.077   .     S
C126   C148    1.410   .     A
C127   H152    1.084   .     S
C127   C139    1.387   .     A
C127   C140    1.396   .     A
C128   O180    1.270   .     A
C128   C130    1.457   .     S
C128   O178    1.290   .     A
C129   C147    1.418   .     A
C129   C138    1.473   .     S
C129   C141    1.402   .     A
C130   C7      1.352   1_655 S
C130   H29     1.088   1_655 S
C132   C135    1.455   .     S
C132   C319    1.344   .     S
C132   H346    1.088   .     S
C133   C134    1.443   .     S
C133   C504    1.344   1_545 S
C133   O546    1.398   1_545 S
C134   O175    1.279   .     A
C134   O181    1.274   .     A
C135   O182    1.280   .     A
C135   O176    1.268   .     A
C136   C141    1.387   .     A
C136   C703    1.391   .     S
C136   H724    1.083   .     S
C137   O169    1.281   .     A
C137   C140    1.449   .     S
C137   O171    1.271   .     A
C138   O172    1.285   .     A
C138   O170    1.284   .     A
C139   C707    1.400   1_554 S
C139   H720    1.084   1_554 S
C141   H164    1.083   .     S
C142   H154    1.085   .     S
C142   O173    1.222   .     D
C142   C7      1.486   1_655 S
C143   H155    1.113   .     S
C143   H156    1.115   .     S
C143   C516    1.521   1_545 S
C143   O546    1.413   1_545 S
C144   H157    1.111   .     S
C144   H159    1.111   .     S
C144   C329    1.521   .     S
C144   H344    1.110   .     S
C145   H165    1.076   .     S
C145   C694    1.391   1_554 S
C145   C704    1.417   1_554 S
C146   C147    1.423   .     A
C146   C703    1.417   .     S
C146   C706    1.425   .     S
C147   C151    1.410   .     A
C148   C704    1.425   1_554 S
C148   C707    1.424   1_554 S
C149   C150    1.390   .     A
C149   C697    1.400   .     S
C149   C706    1.424   .     S
C150   C151    1.382   .     A
C150   H161    1.084   .     S
C151   H167    1.080   .     S
H158   C516    1.110   1_545 S
H160   C504    1.088   1_545 S
H162   C697    1.084   .     S
H166   C694    1.083   1_554 S
O168   Zn185   1.939   .     S
O168   Zn184   1.948   .     S
O168   Zn183   1.960   .     S
O168   Zn186   1.938   .     S
O169   Zn184   1.932   .     S
O170   Zn186   1.940   .     S
O171   Zn185   1.936   .     S
O172   Zn183   1.929   .     S
O174   C329    1.413   .     S
O174   C319    1.398   .     S
O175   Zn183   1.932   .     S
O176   Zn186   1.934   .     S
O177   Zn184   1.936   .     S
O178   Zn185   1.944   .     S
O179   Zn186   1.941   .     S
O180   Zn183   1.934   .     S
O181   Zn184   1.938   .     S
O182   Zn185   1.934   .     S
C187   O241    1.275   .     A
C187   O239    1.264   .     A
C187   C193    1.431   .     S
C188   C202    1.392   .     A
C188   H225    1.077   .     S
C188   C210    1.410   .     A
C189   H214    1.084   .     S
C189   C201    1.387   .     A
C189   C202    1.396   .     A
C190   O242    1.270   .     A
C190   C192    1.457   .     S
C190   O240    1.290   .     A
C191   C209    1.418   .     A
C191   C200    1.473   .     S
C191   C203    1.402   .     A
C192   C255    1.352   .     S
C192   H277    1.088   .     S
C193   C316    1.352   1_455 S
C193   C328    1.486   1_455 S
C194   C197    1.455   .     S
C194   C381    1.344   .     S
C194   H408    1.088   .     S
C195   C196    1.443   .     S
C196   O237    1.279   .     A
C196   O243    1.274   .     A
C197   O244    1.280   .     A
C197   O238    1.268   .     A
C198   C203    1.387   .     A
C198   C765    1.391   .     S
C198   H786    1.083   .     S
C199   O231    1.281   .     A
C199   C202    1.449   .     S
C199   O233    1.271   .     A
C200   O234    1.285   .     A
C200   O232    1.284   .     A
C201   C769    1.400   1_554 S
C201   H782    1.084   1_554 S
C203   H226    1.083   .     S
C204   H216    1.085   .     S
C204   O235    1.222   .     D
C204   C255    1.486   .     S
C205   H217    1.113   .     S
C205   H218    1.115   .     S
C206   H219    1.111   .     S
C206   H221    1.111   .     S
C206   C391    1.521   .     S
C206   H406    1.110   .     S
C207   H227    1.076   .     S
C207   C756    1.391   1_554 S
C207   C766    1.417   1_554 S
C208   C209    1.423   .     A
C208   C765    1.417   .     S
C208   C768    1.425   .     S
C209   C213    1.410   .     A
C210   C766    1.425   1_554 S
C210   C769    1.424   1_554 S
C211   C212    1.390   .     A
C211   C759    1.400   .     S
C211   C768    1.424   .     S
C212   C213    1.382   .     A
C212   H223    1.084   .     S
C213   H229    1.080   .     S
H215   C316    1.088   1_455 S
H224   C759    1.084   .     S
H228   C756    1.083   1_554 S
O230   Zn247   1.939   .     S
O230   Zn246   1.948   .     S
O230   Zn245   1.960   .     S
O230   Zn248   1.938   .     S
O231   Zn246   1.932   .     S
O232   Zn248   1.940   .     S
O233   Zn247   1.936   .     S
O234   Zn245   1.929   .     S
O236   C391    1.413   .     S
O236   C381    1.398   .     S
O237   Zn245   1.932   .     S
O238   Zn248   1.934   .     S
O239   Zn246   1.936   .     S
O240   Zn247   1.944   .     S
O241   Zn248   1.941   .     S
O242   Zn245   1.934   .     S
O243   Zn246   1.938   .     S
O244   Zn247   1.934   .     S
C249   O303    1.275   .     A
C249   O301    1.264   .     A
C249   C255    1.431   .     S
C250   C264    1.392   .     A
C250   H287    1.077   .     S
C250   C272    1.410   .     A
C251   H276    1.084   .     S
C251   C263    1.387   .     A
C251   C264    1.396   .     A
C252   O304    1.270   .     A
C252   C254    1.457   .     S
C252   O302    1.290   .     A
C253   C271    1.418   .     A
C253   C262    1.473   .     S
C253   C265    1.402   .     A
C254   C317    1.352   .     S
C254   H339    1.088   .     S
C256   C259    1.455   .     S
C256   C443    1.344   .     S
C256   H470    1.088   .     S
C257   C258    1.443   .     S
C258   O299    1.279   .     A
C258   O305    1.274   .     A
C259   O306    1.280   .     A
C259   O300    1.268   .     A
C260   C265    1.387   .     A
C260   C827    1.391   .     S
C260   H848    1.083   .     S
C261   O293    1.281   .     A
C261   C264    1.449   .     S
C261   O295    1.271   .     A
C262   O296    1.285   .     A
C262   O294    1.284   .     A
C263   C831    1.400   1_554 S
C263   H844    1.084   1_554 S
C265   H288    1.083   .     S
C266   H278    1.085   .     S
C266   O297    1.222   .     D
C266   C317    1.486   .     S
C267   H279    1.113   .     S
C267   H280    1.115   .     S
C268   H281    1.111   .     S
C268   H283    1.111   .     S
C268   C453    1.521   .     S
C268   H468    1.110   .     S
C269   H289    1.076   .     S
C269   C818    1.391   1_554 S
C269   C828    1.417   1_554 S
C270   C271    1.423   .     A
C270   C827    1.417   .     S
C270   C830    1.425   .     S
C271   C275    1.410   .     A
C272   C828    1.425   1_554 S
C272   C831    1.424   1_554 S
C273   C274    1.390   .     A
C273   C821    1.400   .     S
C273   C830    1.424   .     S
C274   C275    1.382   .     A
C274   H285    1.084   .     S
C275   H291    1.080   .     S
H286   C821    1.084   .     S
H290   C818    1.083   1_554 S
O292   Zn309   1.939   .     S
O292   Zn308   1.948   .     S
O292   Zn307   1.960   .     S
O292   Zn310   1.938   .     S
O293   Zn308   1.932   .     S
O294   Zn310   1.940   .     S
O295   Zn309   1.936   .     S
O296   Zn307   1.929   .     S
O298   C453    1.413   .     S
O298   C443    1.398   .     S
O299   Zn307   1.932   .     S
O300   Zn310   1.934   .     S
O301   Zn308   1.936   .     S
O302   Zn309   1.944   .     S
O303   Zn310   1.941   .     S
O304   Zn307   1.934   .     S
O305   Zn308   1.938   .     S
O306   Zn309   1.934   .     S
C311   O365    1.275   .     A
C311   O363    1.264   .     A
C311   C317    1.431   .     S
C312   C326    1.392   .     A
C312   H349    1.077   .     S
C312   C334    1.410   .     A
C313   H338    1.084   .     S
C313   C325    1.387   .     A
C313   C326    1.396   .     A
C314   O366    1.270   .     A
C314   C316    1.457   .     S
C314   O364    1.290   .     A
C315   C333    1.418   .     A
C315   C324    1.473   .     S
C315   C327    1.402   .     A
C316   C193    1.352   1_655 S
C316   H215    1.088   1_655 S
C318   C321    1.455   .     S
C318   C505    1.344   .     S
C318   H532    1.088   .     S
C319   C320    1.443   .     S
C320   O361    1.279   .     A
C320   O367    1.274   .     A
C321   O368    1.280   .     A
C321   O362    1.268   .     A
C322   C327    1.387   .     A
C322   C889    1.391   .     S
C322   H910    1.083   .     S
C323   O355    1.281   .     A
C323   C326    1.449   .     S
C323   O357    1.271   .     A
C324   O358    1.285   .     A
C324   O356    1.284   .     A
C325   C893    1.400   1_554 S
C325   H906    1.084   1_554 S
C327   H350    1.083   .     S
C328   H340    1.085   .     S
C328   O359    1.222   .     D
C328   C193    1.486   1_655 S
C329   H341    1.113   .     S
C329   H342    1.115   .     S
C330   H343    1.111   .     S
C330   H345    1.111   .     S
C330   C515    1.521   .     S
C330   H530    1.110   .     S
C331   H351    1.076   .     S
C331   C880    1.391   1_554 S
C331   C890    1.417   1_554 S
C332   C333    1.423   .     A
C332   C889    1.417   .     S
C332   C892    1.425   .     S
C333   C337    1.410   .     A
C334   C890    1.425   1_554 S
C334   C893    1.424   1_554 S
C335   C336    1.390   .     A
C335   C883    1.400   .     S
C335   C892    1.424   .     S
C336   C337    1.382   .     A
C336   H347    1.084   .     S
C337   H353    1.080   .     S
H348   C883    1.084   .     S
H352   C880    1.083   1_554 S
O354   Zn371   1.939   .     S
O354   Zn370   1.948   .     S
O354   Zn369   1.960   .     S
O354   Zn372   1.938   .     S
O355   Zn370   1.932   .     S
O356   Zn372   1.940   .     S
O357   Zn371   1.936   .     S
O358   Zn369   1.929   .     S
O360   C515    1.413   .     S
O360   C505    1.398   .     S
O361   Zn369   1.932   .     S
O362   Zn372   1.934   .     S
O363   Zn370   1.936   .     S
O364   Zn371   1.944   .     S
O365   Zn372   1.941   .     S
O366   Zn369   1.934   .     S
O367   Zn370   1.938   .     S
O368   Zn371   1.934   .     S
C373   O427    1.275   .     A
C373   O425    1.264   .     A
C373   C379    1.431   .     S
C374   C388    1.392   .     A
C374   H411    1.077   .     S
C374   C396    1.410   .     A
C375   H400    1.084   .     S
C375   C387    1.387   .     A
C375   C388    1.396   .     A
C376   O428    1.270   .     A
C376   C378    1.457   .     S
C376   O426    1.290   .     A
C377   C395    1.418   .     A
C377   C386    1.473   .     S
C377   C389    1.402   .     A
C378   C441    1.352   .     S
C378   H463    1.088   .     S
C379   C502    1.352   1_455 S
C379   C514    1.486   1_455 S
C380   C383    1.455   .     S
C380   C9      1.344   1_565 S
C380   H36     1.088   1_565 S
C381   C382    1.443   .     S
C382   O423    1.279   .     A
C382   O429    1.274   .     A
C383   O430    1.280   .     A
C383   O424    1.268   .     A
C384   C389    1.387   .     A
C384   C951    1.391   .     S
C384   H972    1.083   .     S
C385   O417    1.281   .     A
C385   C388    1.449   .     S
C385   O419    1.271   .     A
C386   O420    1.285   .     A
C386   O418    1.284   .     A
C387   C955    1.400   1_554 S
C387   H968    1.084   1_554 S
C389   H412    1.083   .     S
C390   H402    1.085   .     S
C390   O421    1.222   .     D
C390   C441    1.486   .     S
C391   H403    1.113   .     S
C391   H404    1.115   .     S
C392   H405    1.111   .     S
C392   H407    1.111   .     S
C392   C19     1.521   1_565 S
C392   H34     1.110   1_565 S
C393   H413    1.076   .     S
C393   C942    1.391   1_554 S
C393   C952    1.417   1_554 S
C394   C395    1.423   .     A
C394   C951    1.417   .     S
C394   C954    1.425   .     S
C395   C399    1.410   .     A
C396   C952    1.425   1_554 S
C396   C955    1.424   1_554 S
C397   C398    1.390   .     A
C397   C945    1.400   .     S
C397   C954    1.424   .     S
C398   C399    1.382   .     A
C398   H409    1.084   .     S
C399   H415    1.080   .     S
H401   C502    1.088   1_455 S
H410   C945    1.084   .     S
H414   C942    1.083   1_554 S
O416   Zn433   1.939   .     S
O416   Zn432   1.948   .     S
O416   Zn431   1.960   .     S
O416   Zn434   1.938   .     S
O417   Zn432   1.932   .     S
O418   Zn434   1.940   .     S
O419   Zn433   1.936   .     S
O420   Zn431   1.929   .     S
O422   C19     1.413   1_565 S
O422   C9      1.398   1_565 S
O423   Zn431   1.932   .     S
O424   Zn434   1.934   .     S
O425   Zn432   1.936   .     S
O426   Zn433   1.944   .     S
O427   Zn434   1.941   .     S
O428   Zn431   1.934   .     S
O429   Zn432   1.938   .     S
O430   Zn433   1.934   .     S
C435   O489    1.275   .     A
C435   O487    1.264   .     A
C435   C441    1.431   .     S
C436   C450    1.392   .     A
C436   H473    1.077   .     S
C436   C458    1.410   .     A
C437   H462    1.084   .     S
C437   C449    1.387   .     A
C437   C450    1.396   .     A
C438   O490    1.270   .     A
C438   C440    1.457   .     S
C438   O488    1.290   .     A
C439   C457    1.418   .     A
C439   C448    1.473   .     S
C439   C451    1.402   .     A
C440   C503    1.352   .     S
C440   H525    1.088   .     S
C442   C445    1.455   .     S
C442   C71     1.344   1_565 S
C442   H98     1.088   1_565 S
C443   C444    1.443   .     S
C444   O485    1.279   .     A
C444   O491    1.274   .     A
C445   O492    1.280   .     A
C445   O486    1.268   .     A
C446   C451    1.387   .     A
C446   C1013   1.391   .     S
C446   H1034   1.083   .     S
C447   O479    1.281   .     A
C447   C450    1.449   .     S
C447   O481    1.271   .     A
C448   O482    1.285   .     A
C448   O480    1.284   .     A
C449   C1017   1.400   1_554 S
C449   H1030   1.084   1_554 S
C451   H474    1.083   .     S
C452   H464    1.085   .     S
C452   O483    1.222   .     D
C452   C503    1.486   .     S
C453   H465    1.113   .     S
C453   H466    1.115   .     S
C454   H467    1.111   .     S
C454   H469    1.111   .     S
C454   C81     1.521   1_565 S
C454   H96     1.110   1_565 S
C455   H475    1.076   .     S
C455   C1004   1.391   1_554 S
C455   C1014   1.417   1_554 S
C456   C457    1.423   .     A
C456   C1013   1.417   .     S
C456   C1016   1.425   .     S
C457   C461    1.410   .     A
C458   C1014   1.425   1_554 S
C458   C1017   1.424   1_554 S
C459   C460    1.390   .     A
C459   C1007   1.400   .     S
C459   C1016   1.424   .     S
C460   C461    1.382   .     A
C460   H471    1.084   .     S
C461   H477    1.080   .     S
H472   C1007   1.084   .     S
H476   C1004   1.083   1_554 S
O478   Zn495   1.939   .     S
O478   Zn494   1.948   .     S
O478   Zn493   1.960   .     S
O478   Zn496   1.938   .     S
O479   Zn494   1.932   .     S
O480   Zn496   1.940   .     S
O481   Zn495   1.936   .     S
O482   Zn493   1.929   .     S
O484   C81     1.413   1_565 S
O484   C71     1.398   1_565 S
O485   Zn493   1.932   .     S
O486   Zn496   1.934   .     S
O487   Zn494   1.936   .     S
O488   Zn495   1.944   .     S
O489   Zn496   1.941   .     S
O490   Zn493   1.934   .     S
O491   Zn494   1.938   .     S
O492   Zn495   1.934   .     S
C497   O551    1.275   .     A
C497   O549    1.264   .     A
C497   C503    1.431   .     S
C498   C512    1.392   .     A
C498   H535    1.077   .     S
C498   C520    1.410   .     A
C499   H524    1.084   .     S
C499   C511    1.387   .     A
C499   C512    1.396   .     A
C500   O552    1.270   .     A
C500   C502    1.457   .     S
C500   O550    1.290   .     A
C501   C519    1.418   .     A
C501   C510    1.473   .     S
C501   C513    1.402   .     A
C502   C379    1.352   1_655 S
C502   H401    1.088   1_655 S
C504   C507    1.455   .     S
C504   C133    1.344   1_565 S
C504   H160    1.088   1_565 S
C505   C506    1.443   .     S
C506   O547    1.279   .     A
C506   O553    1.274   .     A
C507   O554    1.280   .     A
C507   O548    1.268   .     A
C508   C513    1.387   .     A
C508   C1075   1.391   .     S
C508   H1096   1.083   .     S
C509   O541    1.281   .     A
C509   C512    1.449   .     S
C509   O543    1.271   .     A
C510   O544    1.285   .     A
C510   O542    1.284   .     A
C511   C1079   1.400   1_554 S
C511   H1092   1.084   1_554 S
C513   H536    1.083   .     S
C514   H526    1.085   .     S
C514   O545    1.222   .     D
C514   C379    1.486   1_655 S
C515   H527    1.113   .     S
C515   H528    1.115   .     S
C516   H529    1.111   .     S
C516   H531    1.111   .     S
C516   C143    1.521   1_565 S
C516   H158    1.110   1_565 S
C517   H537    1.076   .     S
C517   C1066   1.391   1_554 S
C517   C1076   1.417   1_554 S
C518   C519    1.423   .     A
C518   C1075   1.417   .     S
C518   C1078   1.425   .     S
C519   C523    1.410   .     A
C520   C1076   1.425   1_554 S
C520   C1079   1.424   1_554 S
C521   C522    1.390   .     A
C521   C1069   1.400   .     S
C521   C1078   1.424   .     S
C522   C523    1.382   .     A
C522   H533    1.084   .     S
C523   H539    1.080   .     S
H534   C1069   1.084   .     S
H538   C1066   1.083   1_554 S
O540   Zn557   1.939   .     S
O540   Zn556   1.948   .     S
O540   Zn555   1.960   .     S
O540   Zn558   1.938   .     S
O541   Zn556   1.932   .     S
O542   Zn558   1.940   .     S
O543   Zn557   1.936   .     S
O544   Zn555   1.929   .     S
O546   C143    1.413   1_565 S
O546   C133    1.398   1_565 S
O547   Zn555   1.932   .     S
O548   Zn558   1.934   .     S
O549   Zn556   1.936   .     S
O550   Zn557   1.944   .     S
O551   Zn558   1.941   .     S
O552   Zn555   1.934   .     S
O553   Zn556   1.938   .     S
O554   Zn557   1.934   .     S
C559   O613    1.275   .     A
C559   O611    1.264   .     A
C559   C565    1.431   .     S
C560   C574    1.392   .     A
C560   H597    1.077   .     S
C560   C582    1.410   .     A
C561   H586    1.084   .     S
C561   C573    1.387   .     A
C561   C574    1.396   .     A
C562   O614    1.270   .     A
C562   C564    1.457   .     S
C562   O612    1.290   .     A
C563   C581    1.418   .     A
C563   C572    1.473   .     S
C563   C575    1.402   .     A
C564   C627    1.352   .     S
C564   H649    1.088   .     S
C565   C688    1.352   1_455 S
C565   C700    1.486   1_455 S
C566   C569    1.455   .     S
C566   C753    1.344   .     S
C566   H780    1.088   .     S
C567   C568    1.443   .     S
C567   C938    1.344   1_545 S
C567   O980    1.398   1_545 S
C568   O609    1.279   .     A
C568   O615    1.274   .     A
C569   O616    1.280   .     A
C569   O610    1.268   .     A
C570   C575    1.387   .     A
C570   C21     1.391   1_556 S
C570   H42     1.083   1_556 S
C571   O603    1.281   .     A
C571   C574    1.449   .     S
C571   O605    1.271   .     A
C572   O606    1.285   .     A
C572   O604    1.284   .     A
C575   H598    1.083   .     S
C576   H588    1.085   .     S
C576   O607    1.222   .     D
C576   C627    1.486   .     S
C577   H589    1.113   .     S
C577   H590    1.115   .     S
C577   C950    1.521   1_545 S
C577   O980    1.413   1_545 S
C578   H591    1.111   .     S
C578   H593    1.111   .     S
C578   C763    1.521   .     S
C578   H778    1.110   .     S
C579   H599    1.076   .     S
C580   C581    1.423   .     A
C580   C21     1.417   1_556 S
C580   C24     1.425   1_556 S
C581   C585    1.410   .     A
C583   C584    1.390   .     A
C583   C15     1.400   1_556 S
C583   C24     1.424   1_556 S
C584   C585    1.382   .     A
C584   H595    1.084   .     S
C585   H601    1.080   .     S
H587   C688    1.088   1_455 S
H592   C950    1.110   1_545 S
H594   C938    1.088   1_545 S
H596   C15     1.084   1_556 S
O602   Zn619   1.939   .     S
O602   Zn618   1.948   .     S
O602   Zn617   1.960   .     S
O602   Zn620   1.938   .     S
O603   Zn618   1.932   .     S
O604   Zn620   1.940   .     S
O605   Zn619   1.936   .     S
O606   Zn617   1.929   .     S
O608   C763    1.413   .     S
O608   C753    1.398   .     S
O609   Zn617   1.932   .     S
O610   Zn620   1.934   .     S
O611   Zn618   1.936   .     S
O612   Zn619   1.944   .     S
O613   Zn620   1.941   .     S
O614   Zn617   1.934   .     S
O615   Zn618   1.938   .     S
O616   Zn619   1.934   .     S
C621   O675    1.275   .     A
C621   O673    1.264   .     A
C621   C627    1.431   .     S
C622   C636    1.392   .     A
C622   H659    1.077   .     S
C622   C644    1.410   .     A
C623   H648    1.084   .     S
C623   C635    1.387   .     A
C623   C636    1.396   .     A
C624   O676    1.270   .     A
C624   C626    1.457   .     S
C624   O674    1.290   .     A
C625   C643    1.418   .     A
C625   C634    1.473   .     S
C625   C637    1.402   .     A
C626   C689    1.352   .     S
C626   H711    1.088   .     S
C628   C631    1.455   .     S
C628   C815    1.344   .     S
C628   H842    1.088   .     S
C629   C630    1.443   .     S
C629   C1000   1.344   1_545 S
C629   O1042   1.398   1_545 S
C630   O671    1.279   .     A
C630   O677    1.274   .     A
C631   O678    1.280   .     A
C631   O672    1.268   .     A
C632   C637    1.387   .     A
C632   C83     1.391   1_556 S
C632   H104    1.083   1_556 S
C633   O665    1.281   .     A
C633   C636    1.449   .     S
C633   O667    1.271   .     A
C634   O668    1.285   .     A
C634   O666    1.284   .     A
C637   H660    1.083   .     S
C638   H650    1.085   .     S
C638   O669    1.222   .     D
C638   C689    1.486   .     S
C639   H651    1.113   .     S
C639   H652    1.115   .     S
C639   C1012   1.521   1_545 S
C639   O1042   1.413   1_545 S
C640   H653    1.111   .     S
C640   H655    1.111   .     S
C640   C825    1.521   .     S
C640   H840    1.110   .     S
C641   H661    1.076   .     S
C642   C643    1.423   .     A
C642   C83     1.417   1_556 S
C642   C86     1.425   1_556 S
C643   C647    1.410   .     A
C645   C646    1.390   .     A
C645   C77     1.400   1_556 S
C645   C86     1.424   1_556 S
C646   C647    1.382   .     A
C646   H657    1.084   .     S
C647   H663    1.080   .     S
H654   C1012   1.110   1_545 S
H656   C1000   1.088   1_545 S
H658   C77     1.084   1_556 S
O664   Zn681   1.939   .     S
O664   Zn680   1.948   .     S
O664   Zn679   1.960   .     S
O664   Zn682   1.938   .     S
O665   Zn680   1.932   .     S
O666   Zn682   1.940   .     S
O667   Zn681   1.936   .     S
O668   Zn679   1.929   .     S
O670   C825    1.413   .     S
O670   C815    1.398   .     S
O671   Zn679   1.932   .     S
O672   Zn682   1.934   .     S
O673   Zn680   1.936   .     S
O674   Zn681   1.944   .     S
O675   Zn682   1.941   .     S
O676   Zn679   1.934   .     S
O677   Zn680   1.938   .     S
O678   Zn681   1.934   .     S
C683   O737    1.275   .     A
C683   O735    1.264   .     A
C683   C689    1.431   .     S
C684   C698    1.392   .     A
C684   H721    1.077   .     S
C684   C706    1.410   .     A
C685   H710    1.084   .     S
C685   C697    1.387   .     A
C685   C698    1.396   .     A
C686   O738    1.270   .     A
C686   C688    1.457   .     S
C686   O736    1.290   .     A
C687   C705    1.418   .     A
C687   C696    1.473   .     S
C687   C699    1.402   .     A
C688   C565    1.352   1_655 S
C688   H587    1.088   1_655 S
C690   C693    1.455   .     S
C690   C877    1.344   .     S
C690   H904    1.088   .     S
C691   C692    1.443   .     S
C691   C1062   1.344   1_545 S
C691   O1104   1.398   1_545 S
C692   O733    1.279   .     A
C692   O739    1.274   .     A
C693   O740    1.280   .     A
C693   O734    1.268   .     A
C694   C699    1.387   .     A
C694   C145    1.391   1_556 S
C694   H166    1.083   1_556 S
C695   O727    1.281   .     A
C695   C698    1.449   .     S
C695   O729    1.271   .     A
C696   O730    1.285   .     A
C696   O728    1.284   .     A
C699   H722    1.083   .     S
C700   H712    1.085   .     S
C700   O731    1.222   .     D
C700   C565    1.486   1_655 S
C701   H713    1.113   .     S
C701   H714    1.115   .     S
C701   C1074   1.521   1_545 S
C701   O1104   1.413   1_545 S
C702   H715    1.111   .     S
C702   H717    1.111   .     S
C702   C887    1.521   .     S
C702   H902    1.110   .     S
C703   H723    1.076   .     S
C704   C705    1.423   .     A
C704   C145    1.417   1_556 S
C704   C148    1.425   1_556 S
C705   C709    1.410   .     A
C707   C708    1.390   .     A
C707   C139    1.400   1_556 S
C707   C148    1.424   1_556 S
C708   C709    1.382   .     A
C708   H719    1.084   .     S
C709   H725    1.080   .     S
H716   C1074   1.110   1_545 S
H718   C1062   1.088   1_545 S
H720   C139    1.084   1_556 S
O726   Zn743   1.939   .     S
O726   Zn742   1.948   .     S
O726   Zn741   1.960   .     S
O726   Zn744   1.938   .     S
O727   Zn742   1.932   .     S
O728   Zn744   1.940   .     S
O729   Zn743   1.936   .     S
O730   Zn741   1.929   .     S
O732   C887    1.413   .     S
O732   C877    1.398   .     S
O733   Zn741   1.932   .     S
O734   Zn744   1.934   .     S
O735   Zn742   1.936   .     S
O736   Zn743   1.944   .     S
O737   Zn744   1.941   .     S
O738   Zn741   1.934   .     S
O739   Zn742   1.938   .     S
O740   Zn743   1.934   .     S
C745   O799    1.275   .     A
C745   O797    1.264   .     A
C745   C751    1.431   .     S
C746   C760    1.392   .     A
C746   H783    1.077   .     S
C746   C768    1.410   .     A
C747   H772    1.084   .     S
C747   C759    1.387   .     A
C747   C760    1.396   .     A
C748   O800    1.270   .     A
C748   C750    1.457   .     S
C748   O798    1.290   .     A
C749   C767    1.418   .     A
C749   C758    1.473   .     S
C749   C761    1.402   .     A
C750   C813    1.352   .     S
C750   H835    1.088   .     S
C751   C874    1.352   1_455 S
C751   C886    1.486   1_455 S
C752   C755    1.455   .     S
C752   C939    1.344   .     S
C752   H966    1.088   .     S
C753   C754    1.443   .     S
C754   O795    1.279   .     A
C754   O801    1.274   .     A
C755   O802    1.280   .     A
C755   O796    1.268   .     A
C756   C761    1.387   .     A
C756   C207    1.391   1_556 S
C756   H228    1.083   1_556 S
C757   O789    1.281   .     A
C757   C760    1.449   .     S
C757   O791    1.271   .     A
C758   O792    1.285   .     A
C758   O790    1.284   .     A
C761   H784    1.083   .     S
C762   H774    1.085   .     S
C762   O793    1.222   .     D
C762   C813    1.486   .     S
C763   H775    1.113   .     S
C763   H776    1.115   .     S
C764   H777    1.111   .     S
C764   H779    1.111   .     S
C764   C949    1.521   .     S
C764   H964    1.110   .     S
C765   H785    1.076   .     S
C766   C767    1.423   .     A
C766   C207    1.417   1_556 S
C766   C210    1.425   1_556 S
C767   C771    1.410   .     A
C769   C770    1.390   .     A
C769   C201    1.400   1_556 S
C769   C210    1.424   1_556 S
C770   C771    1.382   .     A
C770   H781    1.084   .     S
C771   H787    1.080   .     S
H773   C874    1.088   1_455 S
H782   C201    1.084   1_556 S
O788   Zn805   1.939   .     S
O788   Zn804   1.948   .     S
O788   Zn803   1.960   .     S
O788   Zn806   1.938   .     S
O789   Zn804   1.932   .     S
O790   Zn806   1.940   .     S
O791   Zn805   1.936   .     S
O792   Zn803   1.929   .     S
O794   C949    1.413   .     S
O794   C939    1.398   .     S
O795   Zn803   1.932   .     S
O796   Zn806   1.934   .     S
O797   Zn804   1.936   .     S
O798   Zn805   1.944   .     S
O799   Zn806   1.941   .     S
O800   Zn803   1.934   .     S
O801   Zn804   1.938   .     S
O802   Zn805   1.934   .     S
C807   O861    1.275   .     A
C807   O859    1.264   .     A
C807   C813    1.431   .     S
C808   C822    1.392   .     A
C808   H845    1.077   .     S
C808   C830    1.410   .     A
C809   H834    1.084   .     S
C809   C821    1.387   .     A
C809   C822    1.396   .     A
C810   O862    1.270   .     A
C810   C812    1.457   .     S
C810   O860    1.290   .     A
C811   C829    1.418   .     A
C811   C820    1.473   .     S
C811   C823    1.402   .     A
C812   C875    1.352   .     S
C812   H897    1.088   .     S
C814   C817    1.455   .     S
C814   C1001   1.344   .     S
C814   H1028   1.088   .     S
C815   C816    1.443   .     S
C816   O857    1.279   .     A
C816   O863    1.274   .     A
C817   O864    1.280   .     A
C817   O858    1.268   .     A
C818   C823    1.387   .     A
C818   C269    1.391   1_556 S
C818   H290    1.083   1_556 S
C819   O851    1.281   .     A
C819   C822    1.449   .     S
C819   O853    1.271   .     A
C820   O854    1.285   .     A
C820   O852    1.284   .     A
C823   H846    1.083   .     S
C824   H836    1.085   .     S
C824   O855    1.222   .     D
C824   C875    1.486   .     S
C825   H837    1.113   .     S
C825   H838    1.115   .     S
C826   H839    1.111   .     S
C826   H841    1.111   .     S
C826   C1011   1.521   .     S
C826   H1026   1.110   .     S
C827   H847    1.076   .     S
C828   C829    1.423   .     A
C828   C269    1.417   1_556 S
C828   C272    1.425   1_556 S
C829   C833    1.410   .     A
C831   C832    1.390   .     A
C831   C263    1.400   1_556 S
C831   C272    1.424   1_556 S
C832   C833    1.382   .     A
C832   H843    1.084   .     S
C833   H849    1.080   .     S
H844   C263    1.084   1_556 S
O850   Zn867   1.939   .     S
O850   Zn866   1.948   .     S
O850   Zn865   1.960   .     S
O850   Zn868   1.938   .     S
O851   Zn866   1.932   .     S
O852   Zn868   1.940   .     S
O853   Zn867   1.936   .     S
O854   Zn865   1.929   .     S
O856   C1011   1.413   .     S
O856   C1001   1.398   .     S
O857   Zn865   1.932   .     S
O858   Zn868   1.934   .     S
O859   Zn866   1.936   .     S
O860   Zn867   1.944   .     S
O861   Zn868   1.941   .     S
O862   Zn865   1.934   .     S
O863   Zn866   1.938   .     S
O864   Zn867   1.934   .     S
C869   O923    1.275   .     A
C869   O921    1.264   .     A
C869   C875    1.431   .     S
C870   C884    1.392   .     A
C870   H907    1.077   .     S
C870   C892    1.410   .     A
C871   H896    1.084   .     S
C871   C883    1.387   .     A
C871   C884    1.396   .     A
C872   O924    1.270   .     A
C872   C874    1.457   .     S
C872   O922    1.290   .     A
C873   C891    1.418   .     A
C873   C882    1.473   .     S
C873   C885    1.402   .     A
C874   C751    1.352   1_655 S
C874   H773    1.088   1_655 S
C876   C879    1.455   .     S
C876   C1063   1.344   .     S
C876   H1090   1.088   .     S
C877   C878    1.443   .     S
C878   O919    1.279   .     A
C878   O925    1.274   .     A
C879   O926    1.280   .     A
C879   O920    1.268   .     A
C880   C885    1.387   .     A
C880   C331    1.391   1_556 S
C880   H352    1.083   1_556 S
C881   O913    1.281   .     A
C881   C884    1.449   .     S
C881   O915    1.271   .     A
C882   O916    1.285   .     A
C882   O914    1.284   .     A
C885   H908    1.083   .     S
C886   H898    1.085   .     S
C886   O917    1.222   .     D
C886   C751    1.486   1_655 S
C887   H899    1.113   .     S
C887   H900    1.115   .     S
C888   H901    1.111   .     S
C888   H903    1.111   .     S
C888   C1073   1.521   .     S
C888   H1088   1.110   .     S
C889   H909    1.076   .     S
C890   C891    1.423   .     A
C890   C331    1.417   1_556 S
C890   C334    1.425   1_556 S
C891   C895    1.410   .     A
C893   C894    1.390   .     A
C893   C325    1.400   1_556 S
C893   C334    1.424   1_556 S
C894   C895    1.382   .     A
C894   H905    1.084   .     S
C895   H911    1.080   .     S
H906   C325    1.084   1_556 S
O912   Zn929   1.939   .     S
O912   Zn928   1.948   .     S
O912   Zn927   1.960   .     S
O912   Zn930   1.938   .     S
O913   Zn928   1.932   .     S
O914   Zn930   1.940   .     S
O915   Zn929   1.936   .     S
O916   Zn927   1.929   .     S
O918   C1073   1.413   .     S
O918   C1063   1.398   .     S
O919   Zn927   1.932   .     S
O920   Zn930   1.934   .     S
O921   Zn928   1.936   .     S
O922   Zn929   1.944   .     S
O923   Zn930   1.941   .     S
O924   Zn927   1.934   .     S
O925   Zn928   1.938   .     S
O926   Zn929   1.934   .     S
C931   O985    1.275   .     A
C931   O983    1.264   .     A
C931   C937    1.431   .     S
C932   C946    1.392   .     A
C932   H969    1.077   .     S
C932   C954    1.410   .     A
C933   H958    1.084   .     S
C933   C945    1.387   .     A
C933   C946    1.396   .     A
C934   O986    1.270   .     A
C934   C936    1.457   .     S
C934   O984    1.290   .     A
C935   C953    1.418   .     A
C935   C944    1.473   .     S
C935   C947    1.402   .     A
C936   C999    1.352   .     S
C936   H1021   1.088   .     S
C937   C1060   1.352   1_455 S
C937   C1072   1.486   1_455 S
C938   C941    1.455   .     S
C938   C567    1.344   1_565 S
C938   H594    1.088   1_565 S
C939   C940    1.443   .     S
C940   O981    1.279   .     A
C940   O987    1.274   .     A
C941   O988    1.280   .     A
C941   O982    1.268   .     A
C942   C947    1.387   .     A
C942   C393    1.391   1_556 S
C942   H414    1.083   1_556 S
C943   O975    1.281   .     A
C943   C946    1.449   .     S
C943   O977    1.271   .     A
C944   O978    1.285   .     A
C944   O976    1.284   .     A
C947   H970    1.083   .     S
C948   H960    1.085   .     S
C948   O979    1.222   .     D
C948   C999    1.486   .     S
C949   H961    1.113   .     S
C949   H962    1.115   .     S
C950   H963    1.111   .     S
C950   H965    1.111   .     S
C950   C577    1.521   1_565 S
C950   H592    1.110   1_565 S
C951   H971    1.076   .     S
C952   C953    1.423   .     A
C952   C393    1.417   1_556 S
C952   C396    1.425   1_556 S
C953   C957    1.410   .     A
C955   C956    1.390   .     A
C955   C387    1.400   1_556 S
C955   C396    1.424   1_556 S
C956   C957    1.382   .     A
C956   H967    1.084   .     S
C957   H973    1.080   .     S
H959   C1060   1.088   1_455 S
H968   C387    1.084   1_556 S
O974   Zn991   1.939   .     S
O974   Zn990   1.948   .     S
O974   Zn989   1.960   .     S
O974   Zn992   1.938   .     S
O975   Zn990   1.932   .     S
O976   Zn992   1.940   .     S
O977   Zn991   1.936   .     S
O978   Zn989   1.929   .     S
O980   C577    1.413   1_565 S
O980   C567    1.398   1_565 S
O981   Zn989   1.932   .     S
O982   Zn992   1.934   .     S
O983   Zn990   1.936   .     S
O984   Zn991   1.944   .     S
O985   Zn992   1.941   .     S
O986   Zn989   1.934   .     S
O987   Zn990   1.938   .     S
O988   Zn991   1.934   .     S
C993   O1047   1.275   .     A
C993   O1045   1.264   .     A
C993   C999    1.431   .     S
C994   C1008   1.392   .     A
C994   H1031   1.077   .     S
C994   C1016   1.410   .     A
C995   H1020   1.084   .     S
C995   C1007   1.387   .     A
C995   C1008   1.396   .     A
C996   O1048   1.270   .     A
C996   C998    1.457   .     S
C996   O1046   1.290   .     A
C997   C1015   1.418   .     A
C997   C1006   1.473   .     S
C997   C1009   1.402   .     A
C998   C1061   1.352   .     S
C998   H1083   1.088   .     S
C1000  C1003   1.455   .     S
C1000  C629    1.344   1_565 S
C1000  H656    1.088   1_565 S
C1001  C1002   1.443   .     S
C1002  O1043   1.279   .     A
C1002  O1049   1.274   .     A
C1003  O1050   1.280   .     A
C1003  O1044   1.268   .     A
C1004  C1009   1.387   .     A
C1004  C455    1.391   1_556 S
C1004  H476    1.083   1_556 S
C1005  O1037   1.281   .     A
C1005  C1008   1.449   .     S
C1005  O1039   1.271   .     A
C1006  O1040   1.285   .     A
C1006  O1038   1.284   .     A
C1009  H1032   1.083   .     S
C1010  H1022   1.085   .     S
C1010  O1041   1.222   .     D
C1010  C1061   1.486   .     S
C1011  H1023   1.113   .     S
C1011  H1024   1.115   .     S
C1012  H1025   1.111   .     S
C1012  H1027   1.111   .     S
C1012  C639    1.521   1_565 S
C1012  H654    1.110   1_565 S
C1013  H1033   1.076   .     S
C1014  C1015   1.423   .     A
C1014  C455    1.417   1_556 S
C1014  C458    1.425   1_556 S
C1015  C1019   1.410   .     A
C1017  C1018   1.390   .     A
C1017  C449    1.400   1_556 S
C1017  C458    1.424   1_556 S
C1018  C1019   1.382   .     A
C1018  H1029   1.084   .     S
C1019  H1035   1.080   .     S
H1030  C449    1.084   1_556 S
O1036  Zn1053  1.939   .     S
O1036  Zn1052  1.948   .     S
O1036  Zn1051  1.960   .     S
O1036  Zn1054  1.938   .     S
O1037  Zn1052  1.932   .     S
O1038  Zn1054  1.940   .     S
O1039  Zn1053  1.936   .     S
O1040  Zn1051  1.929   .     S
O1042  C639    1.413   1_565 S
O1042  C629    1.398   1_565 S
O1043  Zn1051  1.932   .     S
O1044  Zn1054  1.934   .     S
O1045  Zn1052  1.936   .     S
O1046  Zn1053  1.944   .     S
O1047  Zn1054  1.941   .     S
O1048  Zn1051  1.934   .     S
O1049  Zn1052  1.938   .     S
O1050  Zn1053  1.934   .     S
C1055  O1109   1.275   .     A
C1055  O1107   1.264   .     A
C1055  C1061   1.431   .     S
C1056  C1070   1.392   .     A
C1056  H1093   1.077   .     S
C1056  C1078   1.410   .     A
C1057  H1082   1.084   .     S
C1057  C1069   1.387   .     A
C1057  C1070   1.396   .     A
C1058  O1110   1.270   .     A
C1058  C1060   1.457   .     S
C1058  O1108   1.290   .     A
C1059  C1077   1.418   .     A
C1059  C1068   1.473   .     S
C1059  C1071   1.402   .     A
C1060  C937    1.352   1_655 S
C1060  H959    1.088   1_655 S
C1062  C1065   1.455   .     S
C1062  C691    1.344   1_565 S
C1062  H718    1.088   1_565 S
C1063  C1064   1.443   .     S
C1064  O1105   1.279   .     A
C1064  O1111   1.274   .     A
C1065  O1112   1.280   .     A
C1065  O1106   1.268   .     A
C1066  C1071   1.387   .     A
C1066  C517    1.391   1_556 S
C1066  H538    1.083   1_556 S
C1067  O1099   1.281   .     A
C1067  C1070   1.449   .     S
C1067  O1101   1.271   .     A
C1068  O1102   1.285   .     A
C1068  O1100   1.284   .     A
C1071  H1094   1.083   .     S
C1072  H1084   1.085   .     S
C1072  O1103   1.222   .     D
C1072  C937    1.486   1_655 S
C1073  H1085   1.113   .     S
C1073  H1086   1.115   .     S
C1074  H1087   1.111   .     S
C1074  H1089   1.111   .     S
C1074  C701    1.521   1_565 S
C1074  H716    1.110   1_565 S
C1075  H1095   1.076   .     S
C1076  C1077   1.423   .     A
C1076  C517    1.417   1_556 S
C1076  C520    1.425   1_556 S
C1077  C1081   1.410   .     A
C1079  C1080   1.390   .     A
C1079  C511    1.400   1_556 S
C1079  C520    1.424   1_556 S
C1080  C1081   1.382   .     A
C1080  H1091   1.084   .     S
C1081  H1097   1.080   .     S
H1092  C511    1.084   1_556 S
O1098  Zn1115  1.939   .     S
O1098  Zn1114  1.948   .     S
O1098  Zn1113  1.960   .     S
O1098  Zn1116  1.938   .     S
O1099  Zn1114  1.932   .     S
O1100  Zn1116  1.940   .     S
O1101  Zn1115  1.936   .     S
O1102  Zn1113  1.929   .     S
O1104  C701    1.413   1_565 S
O1104  C691    1.398   1_565 S
O1105  Zn1113  1.932   .     S
O1106  Zn1116  1.934   .     S
O1107  Zn1114  1.936   .     S
O1108  Zn1115  1.944   .     S
O1109  Zn1116  1.941   .     S
O1110  Zn1113  1.934   .     S
O1111  Zn1114  1.938   .     S
O1112  Zn1115  1.934   .     S
