data_str_m1_o1_o17_pcu_sym.41
_audit_creation_date              2020-01-03
_audit_creation_method            'Materials Studio'
_symmetry_space_group_name_H-M    'P1'
_symmetry_Int_Tables_number       1
_symmetry_cell_setting            triclinic
loop_
_symmetry_equiv_pos_as_xyz
  x,y,z
_cell_length_a                    36.6844
_cell_length_b                    36.6291
_cell_length_c                    34.3429
_cell_angle_alpha                 89.9636
_cell_angle_beta                  89.8765
_cell_angle_gamma                 89.9661
loop_
_atom_site_label
_atom_site_type_symbol
_atom_site_fract_x
_atom_site_fract_y
_atom_site_fract_z
_atom_site_U_iso_or_equiv
_atom_site_adp_type
_atom_site_occupancy
C1     C     0.00670   0.28522   0.41768   0.00000  Uiso   1.00
C2     C     0.27206   0.47514   0.08118   0.00000  Uiso   1.00
C3     C     0.21681   0.48819   0.54070   0.00000  Uiso   1.00
C4     C     0.00273   0.28694   0.45869   0.00000  Uiso   1.00
C5     C     0.00472   0.22005   0.54041   0.00000  Uiso   1.00
C6     C     0.21712   0.49734   0.45901   0.00000  Uiso   1.00
C7     C     0.28311   0.49732   0.54103   0.00000  Uiso   1.00
C8     C     0.26029   0.46823   0.95871   0.00000  Uiso   1.00
C9     C     0.23202   0.02874   0.04050   0.00000  Uiso   1.00
C10    C     0.03332   0.25458   0.95914   0.00000  Uiso   1.00
C11    C     0.47065   0.22946   0.04045   0.00000  Uiso   1.00
C12    C     0.23927   0.03218   0.95863   0.00000  Uiso   1.00
C13    C     0.46754   0.24318   0.91799   0.00000  Uiso   1.00
C14    C     0.26831   0.47211   0.04043   0.00000  Uiso   1.00
C15    C     0.46836   0.23722   0.95854   0.00000  Uiso   1.00
C16    C     0.02856   0.26288   0.04038   0.00000  Uiso   1.00
C17    C     0.09810   0.34816   0.24998   0.00000  Uiso   1.00
C18    C     0.40193   0.15179   0.74992   0.00000  Uiso   1.00
C19    C     0.15184   0.09809   0.25007   0.00000  Uiso   1.00
C20    C     0.34809   0.40182   0.75004   0.00000  Uiso   1.00
C21    C     0.40177   0.15195   0.24977   0.00000  Uiso   1.00
C22    C     0.09822   0.34804   0.75022   0.00000  Uiso   1.00
C23    C     0.34801   0.40173   0.24968   0.00000  Uiso   1.00
C24    C     0.02320   0.27078   0.07995   0.00000  Uiso   1.00
C25    C     0.15193   0.09820   0.75014   0.00000  Uiso   1.00
C26    C     0.09823   0.15196   0.75021   0.00000  Uiso   1.00
C27    C     0.40182   0.34807   0.24980   0.00000  Uiso   1.00
C28    C     0.15200   0.40171   0.75034   0.00000  Uiso   1.00
C29    C     0.34809   0.09819   0.24983   0.00000  Uiso   1.00
C30    C     0.40183   0.34809   0.75012   0.00000  Uiso   1.00
C31    C     0.09808   0.15181   0.25003   0.00000  Uiso   1.00
C32    C     0.34821   0.09805   0.74981   0.00000  Uiso   1.00
C33    C     0.15188   0.40184   0.25000   0.00000  Uiso   1.00
C34    C     0.49882   0.25384   0.47951   0.00000  Uiso   1.00
C35    C     0.25694   0.46734   0.91784   0.00000  Uiso   1.00
C36    C     0.00071   0.25377   0.52049   0.00000  Uiso   1.00
C37    C     0.25029   0.49357   0.47951   0.00000  Uiso   1.00
C38    C     0.24999   0.49350   0.52050   0.00000  Uiso   1.00
C39    C     0.24988   0.00028   0.97904   0.00000  Uiso   1.00
C40    C     0.25011   0.00040   0.02004   0.00000  Uiso   1.00
C41    C     0.00064   0.24563   0.97913   0.00000  Uiso   1.00
C42    C     0.00005   0.24566   0.01998   0.00000  Uiso   1.00
C43    C     0.44081   0.14990   0.47826   0.00000  Uiso   1.00
C44    C     0.43945   0.12348   0.51284   0.00000  Uiso   1.00
C45    C     0.40022   0.11418   0.52365   0.00000  Uiso   1.00
C46    C     0.22812   0.02549   0.08124   0.00000  Uiso   1.00
C47    C     0.47164   0.37543   0.53652   0.00000  Uiso   1.00
C48    C     0.48072   0.41466   0.54840   0.00000  Uiso   1.00
C49    C     0.48679   0.41831   0.59218   0.00000  Uiso   1.00
C50    C     0.34630   0.42947   0.47170   0.00000  Uiso   1.00
C51    C     0.37512   0.41754   0.50123   0.00000  Uiso   1.00
C52    C     0.37540   0.37598   0.50521   0.00000  Uiso   1.00
C53    C     0.15530   0.42853   0.52816   0.00000  Uiso   1.00
C54    C     0.12800   0.41610   0.49729   0.00000  Uiso   1.00
C55    C     0.12918   0.37460   0.49279   0.00000  Uiso   1.00
C56    C     0.03343   0.37425   0.46264   0.00000  Uiso   1.00
C57    C     0.03376   0.25275   0.91810   0.00000  Uiso   1.00
C58    C     0.02605   0.41307   0.44813   0.00000  Uiso   1.00
C59    C     0.01997   0.41453   0.40420   0.00000  Uiso   1.00
C60    C     0.05224   0.14747   0.52169   0.00000  Uiso   1.00
C61    C     0.05305   0.12050   0.48765   0.00000  Uiso   1.00
C62    C     0.09214   0.11133   0.47606   0.00000  Uiso   1.00
C63    C     0.12743   0.01998   0.47198   0.00000  Uiso   1.00
C64    C     0.08799   0.00977   0.46272   0.00000  Uiso   1.00
C65    C     0.08175   0.00502   0.41908   0.00000  Uiso   1.00
C66    C     0.37253   0.02003   0.52908   0.00000  Uiso   1.00
C67    C     0.41183   0.01081   0.54009   0.00000  Uiso   1.00
C68    C     0.47281   0.22732   0.08157   0.00000  Uiso   1.00
C69    C     0.41659   0.00626   0.58397   0.00000  Uiso   1.00
C70    C     0.25154   0.37949   0.97040   0.00000  Uiso   1.00
C71    C     0.26690   0.34592   0.99128   0.00000  Uiso   1.00
C72    C     0.23916   0.31492   0.99236   0.00000  Uiso   1.00
C73    C     0.16436   0.09058   0.02734   0.00000  Uiso   1.00
C74    C     0.14572   0.12124   0.05024   0.00000  Uiso   1.00
C75    C     0.10502   0.12314   0.04130   0.00000  Uiso   1.00
C76    C     0.12264   0.24010   0.97480   0.00000  Uiso   1.00
C77    C     0.16192   0.25199   0.96705   0.00000  Uiso   1.00
C78    C     0.17061   0.25355   0.92361   0.00000  Uiso   1.00
C79    C     0.49904   0.25221   0.39811   0.00000  Uiso   1.00
C80    C     0.40814   0.16217   0.02636   0.00000  Uiso   1.00
C81    C     0.37352   0.14615   0.04440   0.00000  Uiso   1.00
C82    C     0.36758   0.10669   0.03164   0.00000  Uiso   1.00
C83    C     0.24603   0.12184   0.97012   0.00000  Uiso   1.00
C84    C     0.22825   0.15695   0.98507   0.00000  Uiso   1.00
C85    C     0.25561   0.18830   0.98618   0.00000  Uiso   1.00
C86    C     0.33611   0.41040   0.02573   0.00000  Uiso   1.00
C87    C     0.35429   0.37805   0.04616   0.00000  Uiso   1.00
C88    C     0.39449   0.37505   0.03516   0.00000  Uiso   1.00
C89    C     0.37775   0.23954   0.96934   0.00000  Uiso   1.00
C90    C     0.00096   0.25205   0.60191   0.00000  Uiso   1.00
C91    C     0.34457   0.23162   0.94390   0.00000  Uiso   1.00
C92    C     0.31497   0.26039   0.94963   0.00000  Uiso   1.00
C93    C     0.10319   0.31841   0.03277   0.00000  Uiso   1.00
C94    C     0.13855   0.32686   0.05448   0.00000  Uiso   1.00
C95    C     0.13249   0.32971   0.09839   0.00000  Uiso   1.00
C96    C     0.05301   0.31631   0.38346   0.00000  Uiso   1.00
C97    C     0.08111   0.29538   0.40866   0.00000  Uiso   1.00
C98    C     0.11997   0.30287   0.39493   0.00000  Uiso   1.00
C99    C     0.04698   0.18168   0.61800   0.00000  Uiso   1.00
C100   C     0.07926   0.20427   0.60149   0.00000  Uiso   1.00
C101   C     0.25117   0.49860   0.39828   0.00000  Uiso   1.00
C102   C     0.11532   0.19204   0.61924   0.00000  Uiso   1.00
C103   C     0.18258   0.04965   0.38919   0.00000  Uiso   1.00
C104   C     0.19967   0.07742   0.41781   0.00000  Uiso   1.00
C105   C     0.18784   0.11631   0.40806   0.00000  Uiso   1.00
C106   C     0.31678   0.05030   0.61080   0.00000  Uiso   1.00
C107   C     0.29904   0.07785   0.58233   0.00000  Uiso   1.00
C108   C     0.30963   0.11696   0.59256   0.00000  Uiso   1.00
C109   C     0.44483   0.18668   0.38429   0.00000  Uiso   1.00
C110   C     0.41600   0.21313   0.40165   0.00000  Uiso   1.00
C111   C     0.37805   0.20490   0.38592   0.00000  Uiso   1.00
C112   C     0.00803   0.21976   0.58115   0.00000  Uiso   1.00
C113   C     0.24897   0.49856   0.60172   0.00000  Uiso   1.00
C114   C     0.45364   0.32018   0.61861   0.00000  Uiso   1.00
C115   C     0.42301   0.30125   0.59504   0.00000  Uiso   1.00
C116   C     0.38540   0.31254   0.60977   0.00000  Uiso   1.00
C117   C     0.31441   0.44487   0.37845   0.00000  Uiso   1.00
C118   C     0.28715   0.41539   0.39327   0.00000  Uiso   1.00
C119   C     0.29103   0.37999   0.37036   0.00000  Uiso   1.00
C120   C     0.18591   0.44454   0.62172   0.00000  Uiso   1.00
C121   C     0.21351   0.41508   0.60752   0.00000  Uiso   1.00
C122   C     0.21006   0.38007   0.63122   0.00000  Uiso   1.00
C123   C     0.26786   0.07921   0.87853   0.00000  Uiso   1.00
C124   C     0.24984   0.00009   0.89776   0.00000  Uiso   1.00
C125   C     0.30449   0.07399   0.90022   0.00000  Uiso   1.00
C126   C     0.33432   0.09789   0.88259   0.00000  Uiso   1.00
C127   C     0.33006   0.46413   0.10871   0.00000  Uiso   1.00
C128   C     0.34216   0.00004   0.08853   0.00000  Uiso   1.00
C129   C     0.38175   0.00894   0.09816   0.00000  Uiso   1.00
C130   C     0.42296   0.27413   0.88123   0.00000  Uiso   1.00
C131   C     0.43243   0.30936   0.90397   0.00000  Uiso   1.00
C132   C     0.41142   0.34209   0.88810   0.00000  Uiso   1.00
C133   C     0.02275   0.33186   0.09791   0.00000  Uiso   1.00
C134   C     0.00418   0.34300   0.05922   0.00000  Uiso   1.00
C135   C     0.25009   0.00029   0.10151   0.00000  Uiso   1.00
C136   C     0.49106   0.38250   0.06065   0.00000  Uiso   1.00
C137   C     0.23379   0.42093   0.87717   0.00000  Uiso   1.00
C138   C     0.19614   0.42576   0.89695   0.00000  Uiso   1.00
C139   C     0.16705   0.40306   0.87648   0.00000  Uiso   1.00
C140   C     0.16944   0.03425   0.10822   0.00000  Uiso   1.00
C141   C     0.15862   0.49855   0.08691   0.00000  Uiso   1.00
C142   C     0.11924   0.48811   0.09596   0.00000  Uiso   1.00
C143   C     0.07799   0.22594   0.87723   0.00000  Uiso   1.00
C144   C     0.06766   0.18838   0.89492   0.00000  Uiso   1.00
C145   C     0.08987   0.15769   0.87645   0.00000  Uiso   1.00
C146   C     0.00048   0.24935   0.89796   0.00000  Uiso   1.00
C147   C     0.45945   0.17068   0.11129   0.00000  Uiso   1.00
C148   C     0.49493   0.15650   0.09178   0.00000  Uiso   1.00
C149   C     0.00239   0.11692   0.10308   0.00000  Uiso   1.00
C150   C     0.49805   0.24980   0.10132   0.00000  Uiso   1.00
C151   C     0.49035   0.18781   0.48109   0.00000  Uiso   1.00
C152   C     0.49975   0.32070   0.52053   0.00000  Uiso   1.00
C153   C     0.31588   0.48344   0.48120   0.00000  Uiso   1.00
C154   C     0.18449   0.48311   0.51879   0.00000  Uiso   1.00
C155   C     0.00381   0.32056   0.47928   0.00000  Uiso   1.00
C156   C     0.21829   0.00409   0.41863   0.00000  Uiso   1.00
C157   C     0.00423   0.18730   0.51883   0.00000  Uiso   1.00
C158   C     0.18378   0.49330   0.47930   0.00000  Uiso   1.00
C159   C     0.31648   0.49326   0.52081   0.00000  Uiso   1.00
C160   C     0.27331   0.43778   0.97995   0.00000  Uiso   1.00
C161   C     0.21809   0.05911   0.01973   0.00000  Uiso   1.00
C162   C     0.06483   0.26396   0.98093   0.00000  Uiso   1.00
C163   C     0.44059   0.21558   0.01927   0.00000  Uiso   1.00
C164   C     0.22631   0.06276   0.97979   0.00000  Uiso   1.00
C165   C     0.28219   0.44177   0.01960   0.00000  Uiso   1.00
C166   C     0.43755   0.22393   0.97914   0.00000  Uiso   1.00
C167   C     0.28185   0.00419   0.58138   0.00000  Uiso   1.00
C168   C     0.06108   0.27268   0.02091   0.00000  Uiso   1.00
C169   C     0.25074   0.49982   0.35587   0.00000  Uiso   1.00
C170   C     0.24931   0.49983   0.64413   0.00000  Uiso   1.00
C171   C     0.49986   0.25082   0.35580   0.00000  Uiso   1.00
C172   C     0.00015   0.25072   0.64421   0.00000  Uiso   1.00
C173   C     0.00025   0.24993   0.85576   0.00000  Uiso   1.00
C174   C     0.49926   0.25002   0.14398   0.00000  Uiso   1.00
C175   C     0.24996   0.00012   0.85568   0.00000  Uiso   1.00
C176   C     0.25002   0.00011   0.14406   0.00000  Uiso   1.00
C177   C     0.17993   0.07006   0.25003   0.00000  Uiso   1.00
C178   C     0.48886   0.22073   0.41882   0.00000  Uiso   1.00
C179   C     0.32005   0.42992   0.75000   0.00000  Uiso   1.00
C180   C     0.42989   0.17995   0.24994   0.00000  Uiso   1.00
C181   C     0.07009   0.32005   0.75004   0.00000  Uiso   1.00
C182   C     0.32003   0.42988   0.24992   0.00000  Uiso   1.00
C183   C     0.17994   0.07009   0.75003   0.00000  Uiso   1.00
C184   C     0.07005   0.32009   0.24999   0.00000  Uiso   1.00
C185   C     0.42995   0.17991   0.75000   0.00000  Uiso   1.00
C186   C     0.17997   0.42987   0.75010   0.00000  Uiso   1.00
C187   C     0.32007   0.07008   0.24997   0.00000  Uiso   1.00
C188   C     0.42993   0.32005   0.75005   0.00000  Uiso   1.00
C189   C     0.49600   0.28565   0.58238   0.00000  Uiso   1.00
C190   C     0.07005   0.17991   0.25000   0.00000  Uiso   1.00
C191   C     0.32008   0.07006   0.74994   0.00000  Uiso   1.00
C192   C     0.17994   0.42991   0.25002   0.00000  Uiso   1.00
C193   C     0.07011   0.17996   0.75007   0.00000  Uiso   1.00
C194   C     0.42992   0.32007   0.24997   0.00000  Uiso   1.00
C195   C     0.12349   0.40337   0.22278   0.00000  Uiso   1.00
C196   C     0.37800   0.09514   0.77514   0.00000  Uiso   1.00
C197   C     0.09679   0.12342   0.22272   0.00000  Uiso   1.00
C198   C     0.40573   0.37908   0.77364   0.00000  Uiso   1.00
C199   C     0.37834   0.09494   0.22506   0.00000  Uiso   1.00
C200   C     0.28306   0.48731   0.41821   0.00000  Uiso   1.00
C201   C     0.11977   0.40696   0.77160   0.00000  Uiso   1.00
C202   C     0.40669   0.37997   0.22782   0.00000  Uiso   1.00
C203   C     0.09235   0.11906   0.77010   0.00000  Uiso   1.00
C204   C     0.11913   0.09235   0.77018   0.00000  Uiso   1.00
C205   C     0.37993   0.40670   0.22780   0.00000  Uiso   1.00
C206   C     0.09304   0.38022   0.77161   0.00000  Uiso   1.00
C207   C     0.40507   0.12169   0.22504   0.00000  Uiso   1.00
C208   C     0.37896   0.40579   0.77365   0.00000  Uiso   1.00
C209   C     0.12355   0.09670   0.22273   0.00000  Uiso   1.00
C210   C     0.40468   0.12191   0.77525   0.00000  Uiso   1.00
C211   C     0.21723   0.48691   0.58177   0.00000  Uiso   1.00
C212   C     0.09673   0.37665   0.22276   0.00000  Uiso   1.00
C213   C     0.37225   0.15459   0.72443   0.00000  Uiso   1.00
C214   C     0.12649   0.34664   0.27718   0.00000  Uiso   1.00
C215   C     0.34419   0.37083   0.72652   0.00000  Uiso   1.00
C216   C     0.15309   0.12643   0.27743   0.00000  Uiso   1.00
C217   C     0.13051   0.34271   0.72913   0.00000  Uiso   1.00
C218   C     0.37141   0.15529   0.27433   0.00000  Uiso   1.00
C219   C     0.15783   0.13111   0.73029   0.00000  Uiso   1.00
C220   C     0.34300   0.36964   0.27126   0.00000  Uiso   1.00
C221   C     0.36983   0.34302   0.27148   0.00000  Uiso   1.00
C222   C     0.24266   0.03286   0.91775   0.00000  Uiso   1.00
C223   C     0.13117   0.15794   0.73051   0.00000  Uiso   1.00
C224   C     0.34474   0.12852   0.27443   0.00000  Uiso   1.00
C225   C     0.15733   0.36934   0.72936   0.00000  Uiso   1.00
C226   C     0.12636   0.15317   0.27739   0.00000  Uiso   1.00
C227   C     0.37089   0.34406   0.72664   0.00000  Uiso   1.00
C228   C     0.15326   0.37333   0.27720   0.00000  Uiso   1.00
C229   C     0.34553   0.12785   0.72437   0.00000  Uiso   1.00
C230   C     0.49226   0.22057   0.45956   0.00000  Uiso   1.00
C231   C     0.49931   0.28708   0.54128   0.00000  Uiso   1.00
C232   C     0.28352   0.48849   0.45929   0.00000  Uiso   1.00
H233   H     0.12197   0.42509   0.20143   0.00000  Uiso   1.00
H234   H     0.38431   0.43124   0.21081   0.00000  Uiso   1.00
H235   H     0.10064   0.12843   0.00979   0.00000  Uiso   1.00
H236   H     0.09237   0.14569   0.05821   0.00000  Uiso   1.00
H237   H     0.09149   0.09713   0.04953   0.00000  Uiso   1.00
H238   H     0.11720   0.21456   0.95862   0.00000  Uiso   1.00
H239   H     0.12048   0.23353   0.00636   0.00000  Uiso   1.00
H240   H     0.16657   0.27926   0.98020   0.00000  Uiso   1.00
H241   H     0.18074   0.23228   0.98115   0.00000  Uiso   1.00
H242   H     0.16714   0.22615   0.91028   0.00000  Uiso   1.00
H243   H     0.19935   0.26219   0.91936   0.00000  Uiso   1.00
H244   H     0.15255   0.27350   0.90876   0.00000  Uiso   1.00
H245   H     0.06828   0.38486   0.78812   0.00000  Uiso   1.00
H246   H     0.43209   0.14587   0.03580   0.00000  Uiso   1.00
H247   H     0.40584   0.15947   0.99428   0.00000  Uiso   1.00
H248   H     0.37544   0.14717   0.07666   0.00000  Uiso   1.00
H249   H     0.34964   0.16277   0.03530   0.00000  Uiso   1.00
H250   H     0.36371   0.10529   0.99960   0.00000  Uiso   1.00
H251   H     0.34284   0.09557   0.04607   0.00000  Uiso   1.00
H252   H     0.39136   0.08962   0.03993   0.00000  Uiso   1.00
H253   H     0.26069   0.12849   0.94278   0.00000  Uiso   1.00
H254   H     0.26689   0.11257   0.99168   0.00000  Uiso   1.00
H255   H     0.20513   0.16467   0.96585   0.00000  Uiso   1.00
H256   H     0.42825   0.11863   0.20571   0.00000  Uiso   1.00
H257   H     0.21765   0.15247   0.01492   0.00000  Uiso   1.00
H258   H     0.27956   0.18084   0.00427   0.00000  Uiso   1.00
H259   H     0.24263   0.21294   0.99892   0.00000  Uiso   1.00
H260   H     0.26484   0.19489   0.95620   0.00000  Uiso   1.00
H261   H     0.35152   0.43580   0.03225   0.00000  Uiso   1.00
H262   H     0.33781   0.40543   0.99389   0.00000  Uiso   1.00
H263   H     0.35190   0.38118   0.07823   0.00000  Uiso   1.00
H264   H     0.34024   0.35239   0.03775   0.00000  Uiso   1.00
H265   H     0.39752   0.37082   0.00329   0.00000  Uiso   1.00
H266   H     0.40693   0.35146   0.05054   0.00000  Uiso   1.00
H267   H     0.38252   0.42953   0.79204   0.00000  Uiso   1.00
H268   H     0.40918   0.40028   0.04377   0.00000  Uiso   1.00
H269   H     0.38642   0.26826   0.96461   0.00000  Uiso   1.00
H270   H     0.36948   0.23625   0.00029   0.00000  Uiso   1.00
H271   H     0.35277   0.23124   0.91276   0.00000  Uiso   1.00
H272   H     0.33353   0.20426   0.95143   0.00000  Uiso   1.00
H273   H     0.30611   0.26103   0.98055   0.00000  Uiso   1.00
H274   H     0.29109   0.25381   0.93111   0.00000  Uiso   1.00
H275   H     0.32539   0.28771   0.94108   0.00000  Uiso   1.00
H276   H     0.08263   0.33918   0.04100   0.00000  Uiso   1.00
H277   H     0.10884   0.32132   0.00117   0.00000  Uiso   1.00
H278   H     0.12214   0.07509   0.20126   0.00000  Uiso   1.00
H279   H     0.15889   0.30508   0.04846   0.00000  Uiso   1.00
H280   H     0.14980   0.35317   0.04368   0.00000  Uiso   1.00
H281   H     0.11284   0.35193   0.10510   0.00000  Uiso   1.00
H282   H     0.15875   0.33598   0.11294   0.00000  Uiso   1.00
H283   H     0.12192   0.30352   0.11019   0.00000  Uiso   1.00
H284   H     0.06185   0.34518   0.38177   0.00000  Uiso   1.00
H285   H     0.05434   0.30713   0.35287   0.00000  Uiso   1.00
H286   H     0.07868   0.30360   0.43966   0.00000  Uiso   1.00
H287   H     0.07613   0.26552   0.40663   0.00000  Uiso   1.00
H288   H     0.13948   0.28760   0.41350   0.00000  Uiso   1.00
H289   H     0.42739   0.11918   0.79514   0.00000  Uiso   1.00
H290   H     0.12347   0.29379   0.36430   0.00000  Uiso   1.00
H291   H     0.12625   0.33246   0.39707   0.00000  Uiso   1.00
H292   H     0.05389   0.15233   0.61465   0.00000  Uiso   1.00
H293   H     0.04466   0.18595   0.64987   0.00000  Uiso   1.00
H294   H     0.08103   0.20126   0.56952   0.00000  Uiso   1.00
H295   H     0.07559   0.23371   0.60800   0.00000  Uiso   1.00
H296   H     0.12054   0.16282   0.61260   0.00000  Uiso   1.00
H297   H     0.13794   0.20859   0.60696   0.00000  Uiso   1.00
H298   H     0.11466   0.19597   0.65125   0.00000  Uiso   1.00
H299   H     0.15287   0.05530   0.38768   0.00000  Uiso   1.00
H300   H     0.07511   0.37827   0.20139   0.00000  Uiso   1.00
H301   H     0.19283   0.05472   0.35935   0.00000  Uiso   1.00
H302   H     0.19139   0.07119   0.44818   0.00000  Uiso   1.00
H303   H     0.22989   0.07603   0.41594   0.00000  Uiso   1.00
H304   H     0.20093   0.13570   0.42856   0.00000  Uiso   1.00
H305   H     0.19619   0.12348   0.37790   0.00000  Uiso   1.00
H306   H     0.15779   0.11905   0.41084   0.00000  Uiso   1.00
H307   H     0.34637   0.05651   0.61214   0.00000  Uiso   1.00
H308   H     0.30667   0.05512   0.64072   0.00000  Uiso   1.00
H309   H     0.30769   0.07212   0.55197   0.00000  Uiso   1.00
H310   H     0.26886   0.07562   0.58397   0.00000  Uiso   1.00
H311   H     0.36963   0.17740   0.70454   0.00000  Uiso   1.00
H312   H     0.29628   0.13616   0.57201   0.00000  Uiso   1.00
H313   H     0.30067   0.12365   0.62264   0.00000  Uiso   1.00
H314   H     0.33962   0.12054   0.59031   0.00000  Uiso   1.00
H315   H     0.43512   0.15835   0.38916   0.00000  Uiso   1.00
H316   H     0.44570   0.18973   0.35219   0.00000  Uiso   1.00
H317   H     0.41529   0.21083   0.43376   0.00000  Uiso   1.00
H318   H     0.42272   0.24183   0.39412   0.00000  Uiso   1.00
H319   H     0.35792   0.22362   0.39954   0.00000  Uiso   1.00
H320   H     0.37749   0.20913   0.35394   0.00000  Uiso   1.00
H321   H     0.37015   0.17632   0.39274   0.00000  Uiso   1.00
H322   H     0.12803   0.32490   0.29849   0.00000  Uiso   1.00
H323   H     0.44704   0.34966   0.62047   0.00000  Uiso   1.00
H324   H     0.45314   0.31108   0.64930   0.00000  Uiso   1.00
H325   H     0.42514   0.30835   0.56370   0.00000  Uiso   1.00
H326   H     0.42542   0.27114   0.59788   0.00000  Uiso   1.00
H327   H     0.36407   0.29852   0.59245   0.00000  Uiso   1.00
H328   H     0.38215   0.30471   0.64080   0.00000  Uiso   1.00
H329   H     0.38163   0.34250   0.60670   0.00000  Uiso   1.00
H330   H     0.34228   0.43330   0.38061   0.00000  Uiso   1.00
H331   H     0.31085   0.44961   0.34685   0.00000  Uiso   1.00
H332   H     0.29166   0.40939   0.42435   0.00000  Uiso   1.00
H333   H     0.32051   0.36717   0.70815   0.00000  Uiso   1.00
H334   H     0.25850   0.42457   0.39046   0.00000  Uiso   1.00
H335   H     0.27324   0.35869   0.38338   0.00000  Uiso   1.00
H336   H     0.28234   0.38447   0.33982   0.00000  Uiso   1.00
H337   H     0.31968   0.37015   0.37094   0.00000  Uiso   1.00
H338   H     0.15815   0.43276   0.61930   0.00000  Uiso   1.00
H339   H     0.18910   0.44951   0.65333   0.00000  Uiso   1.00
H340   H     0.20900   0.40841   0.57663   0.00000  Uiso   1.00
H341   H     0.24208   0.42457   0.60999   0.00000  Uiso   1.00
H342   H     0.22806   0.35872   0.61864   0.00000  Uiso   1.00
H343   H     0.21874   0.38518   0.66164   0.00000  Uiso   1.00
H344   H     0.38070   0.07226   0.79491   0.00000  Uiso   1.00
H345   H     0.17463   0.12791   0.29891   0.00000  Uiso   1.00
H346   H     0.18152   0.36995   0.63092   0.00000  Uiso   1.00
H347   H     0.26324   0.10897   0.87473   0.00000  Uiso   1.00
H348   H     0.26988   0.06827   0.84852   0.00000  Uiso   1.00
H349   H     0.30150   0.08089   0.93150   0.00000  Uiso   1.00
H350   H     0.31331   0.04504   0.89810   0.00000  Uiso   1.00
H351   H     0.36052   0.09262   0.89773   0.00000  Uiso   1.00
H352   H     0.33776   0.09156   0.85119   0.00000  Uiso   1.00
H353   H     0.32730   0.12722   0.88600   0.00000  Uiso   1.00
H354   H     0.34941   0.44232   0.10023   0.00000  Uiso   1.00
H355   H     0.33389   0.46697   0.14059   0.00000  Uiso   1.00
H356   H     0.13520   0.31791   0.71270   0.00000  Uiso   1.00
H357   H     0.33958   0.49747   0.05643   0.00000  Uiso   1.00
H358   H     0.32489   0.02313   0.09856   0.00000  Uiso   1.00
H359   H     0.38972   0.03483   0.08366   0.00000  Uiso   1.00
H360   H     0.38517   0.01227   0.13010   0.00000  Uiso   1.00
H361   H     0.40002   0.48682   0.08767   0.00000  Uiso   1.00
H362   H     0.39283   0.27257   0.87890   0.00000  Uiso   1.00
H363   H     0.43278   0.27620   0.85077   0.00000  Uiso   1.00
H364   H     0.42593   0.30615   0.93530   0.00000  Uiso   1.00
H365   H     0.46202   0.31528   0.90127   0.00000  Uiso   1.00
H366   H     0.41943   0.36710   0.90421   0.00000  Uiso   1.00
H367   H     0.36816   0.17858   0.29336   0.00000  Uiso   1.00
H368   H     0.41766   0.34606   0.85672   0.00000  Uiso   1.00
H369   H     0.38162   0.33790   0.89183   0.00000  Uiso   1.00
H370   H     0.04213   0.35377   0.10626   0.00000  Uiso   1.00
H371   H     0.00168   0.33136   0.12102   0.00000  Uiso   1.00
H372   H     0.02302   0.34000   0.03423   0.00000  Uiso   1.00
H373   H     0.48016   0.32520   0.05391   0.00000  Uiso   1.00
H374   H     0.47774   0.38964   0.03266   0.00000  Uiso   1.00
H375   H     0.47107   0.38619   0.08467   0.00000  Uiso   1.00
H376   H     0.01446   0.40126   0.06513   0.00000  Uiso   1.00
H377   H     0.23876   0.39120   0.87364   0.00000  Uiso   1.00
H378   H     0.18312   0.13628   0.71492   0.00000  Uiso   1.00
H379   H     0.23321   0.43185   0.84707   0.00000  Uiso   1.00
H380   H     0.19743   0.41743   0.92796   0.00000  Uiso   1.00
H381   H     0.18766   0.45485   0.89578   0.00000  Uiso   1.00
H382   H     0.14018   0.40776   0.89055   0.00000  Uiso   1.00
H383   H     0.16514   0.41106   0.84535   0.00000  Uiso   1.00
H384   H     0.17373   0.37354   0.87850   0.00000  Uiso   1.00
H385   H     0.14942   0.05558   0.10030   0.00000  Uiso   1.00
H386   H     0.16544   0.03047   0.13998   0.00000  Uiso   1.00
H387   H     0.16141   0.00210   0.05492   0.00000  Uiso   1.00
H388   H     0.17650   0.47573   0.09637   0.00000  Uiso   1.00
H389   H     0.31829   0.36492   0.28768   0.00000  Uiso   1.00
H390   H     0.11225   0.46242   0.08052   0.00000  Uiso   1.00
H391   H     0.11564   0.48371   0.12774   0.00000  Uiso   1.00
H392   H     0.10038   0.00996   0.08608   0.00000  Uiso   1.00
H393   H     0.10815   0.22741   0.87547   0.00000  Uiso   1.00
H394   H     0.06863   0.22761   0.84659   0.00000  Uiso   1.00
H395   H     0.07219   0.18807   0.92678   0.00000  Uiso   1.00
H396   H     0.03835   0.18267   0.88983   0.00000  Uiso   1.00
H397   H     0.08096   0.13101   0.88851   0.00000  Uiso   1.00
H398   H     0.08575   0.15746   0.84444   0.00000  Uiso   1.00
H399   H     0.11932   0.16136   0.88281   0.00000  Uiso   1.00
H400   H     0.36538   0.31844   0.28839   0.00000  Uiso   1.00
H401   H     0.43693   0.15190   0.10357   0.00000  Uiso   1.00
H402   H     0.46208   0.16794   0.14333   0.00000  Uiso   1.00
H403   H     0.49262   0.15807   0.05959   0.00000  Uiso   1.00
H404   H     0.01857   0.17327   0.10112   0.00000  Uiso   1.00
H405   H     0.02795   0.10750   0.08889   0.00000  Uiso   1.00
H406   H     0.00558   0.11449   0.13514   0.00000  Uiso   1.00
H407   H     0.47966   0.09911   0.09338   0.00000  Uiso   1.00
H408   H     0.13651   0.18342   0.71559   0.00000  Uiso   1.00
H409   H     0.32153   0.13165   0.29370   0.00000  Uiso   1.00
H410   H     0.18227   0.36440   0.71340   0.00000  Uiso   1.00
H411   H     0.12780   0.17480   0.29883   0.00000  Uiso   1.00
H412   H     0.07523   0.12191   0.20128   0.00000  Uiso   1.00
H413   H     0.36720   0.32019   0.70851   0.00000  Uiso   1.00
H414   H     0.17490   0.37168   0.29853   0.00000  Uiso   1.00
H415   H     0.32283   0.13055   0.70444   0.00000  Uiso   1.00
H416   H     0.42535   0.13750   0.45388   0.00000  Uiso   1.00
H417   H     0.42618   0.17556   0.48628   0.00000  Uiso   1.00
H418   H     0.45452   0.09803   0.50559   0.00000  Uiso   1.00
H419   H     0.45210   0.13623   0.53872   0.00000  Uiso   1.00
H420   H     0.38430   0.13946   0.52923   0.00000  Uiso   1.00
H421   H     0.40014   0.09758   0.55068   0.00000  Uiso   1.00
H422   H     0.38708   0.09849   0.49985   0.00000  Uiso   1.00
H423   H     0.42944   0.38277   0.79195   0.00000  Uiso   1.00
H424   H     0.44941   0.36536   0.55528   0.00000  Uiso   1.00
H425   H     0.46109   0.37612   0.50627   0.00000  Uiso   1.00
H426   H     0.00565   0.42388   0.53287   0.00000  Uiso   1.00
H427   H     0.45789   0.43285   0.53982   0.00000  Uiso   1.00
H428   H     0.46108   0.41260   0.60817   0.00000  Uiso   1.00
H429   H     0.49542   0.44663   0.59901   0.00000  Uiso   1.00
H430   H     0.00839   0.39922   0.60212   0.00000  Uiso   1.00
H431   H     0.35298   0.41576   0.44383   0.00000  Uiso   1.00
H432   H     0.31927   0.41874   0.48152   0.00000  Uiso   1.00
H433   H     0.40248   0.42706   0.49172   0.00000  Uiso   1.00
H434   H     0.38143   0.07177   0.20574   0.00000  Uiso   1.00
H435   H     0.36897   0.42924   0.53022   0.00000  Uiso   1.00
H436   H     0.34748   0.36552   0.51099   0.00000  Uiso   1.00
H437   H     0.39273   0.36785   0.53004   0.00000  Uiso   1.00
H438   H     0.38618   0.36321   0.47820   0.00000  Uiso   1.00
H439   H     0.14780   0.41467   0.55573   0.00000  Uiso   1.00
H440   H     0.18290   0.41836   0.51954   0.00000  Uiso   1.00
H441   H     0.10005   0.42466   0.50578   0.00000  Uiso   1.00
H442   H     0.13485   0.42834   0.46872   0.00000  Uiso   1.00
H443   H     0.15764   0.36500   0.48846   0.00000  Uiso   1.00
H444   H     0.11338   0.36633   0.46687   0.00000  Uiso   1.00
H445   H     0.11512   0.43174   0.78808   0.00000  Uiso   1.00
H446   H     0.11747   0.36117   0.51898   0.00000  Uiso   1.00
H447   H     0.05578   0.36236   0.44534   0.00000  Uiso   1.00
H448   H     0.04311   0.37618   0.49314   0.00000  Uiso   1.00
H449   H     0.00160   0.42426   0.46307   0.00000  Uiso   1.00
H450   H     0.04968   0.43065   0.45542   0.00000  Uiso   1.00
H451   H     0.04544   0.40722   0.38856   0.00000  Uiso   1.00
H452   H     0.01215   0.44268   0.39560   0.00000  Uiso   1.00
H453   H     0.49777   0.39564   0.39546   0.00000  Uiso   1.00
H454   H     0.06724   0.13506   0.54644   0.00000  Uiso   1.00
H455   H     0.06761   0.17259   0.51321   0.00000  Uiso   1.00
H456   H     0.43121   0.38438   0.21084   0.00000  Uiso   1.00
H457   H     0.03838   0.09507   0.49583   0.00000  Uiso   1.00
H458   H     0.03964   0.13266   0.46186   0.00000  Uiso   1.00
H459   H     0.10758   0.13661   0.46917   0.00000  Uiso   1.00
H460   H     0.09185   0.09395   0.44961   0.00000  Uiso   1.00
H461   H     0.10605   0.09651   0.50003   0.00000  Uiso   1.00
H462   H     0.13433   0.04571   0.45676   0.00000  Uiso   1.00
H463   H     0.12893   0.02529   0.50387   0.00000  Uiso   1.00
H464   H     0.08089   0.48410   0.47811   0.00000  Uiso   1.00
H465   H     0.06956   0.03152   0.47373   0.00000  Uiso   1.00
H466   H     0.08871   0.03056   0.40330   0.00000  Uiso   1.00
H467   H     0.06705   0.11389   0.78545   0.00000  Uiso   1.00
H468   H     0.05261   0.49863   0.41376   0.00000  Uiso   1.00
H469   H     0.09859   0.48222   0.40758   0.00000  Uiso   1.00
H470   H     0.36442   0.04566   0.54374   0.00000  Uiso   1.00
H471   H     0.37208   0.02502   0.49708   0.00000  Uiso   1.00
H472   H     0.42014   0.48526   0.52515   0.00000  Uiso   1.00
H473   H     0.43007   0.03304   0.52980   0.00000  Uiso   1.00
H474   H     0.40908   0.03188   0.59927   0.00000  Uiso   1.00
H475   H     0.44554   0.49990   0.59047   0.00000  Uiso   1.00
H476   H     0.39942   0.48350   0.59499   0.00000  Uiso   1.00
H477   H     0.23984   0.37032   0.94230   0.00000  Uiso   1.00
H478   H     0.11403   0.06708   0.78564   0.00000  Uiso   1.00
H479   H     0.22857   0.39103   0.98797   0.00000  Uiso   1.00
H480   H     0.29195   0.33644   0.97615   0.00000  Uiso   1.00
H481   H     0.27401   0.35304   0.02168   0.00000  Uiso   1.00
H482   H     0.21361   0.32421   0.00664   0.00000  Uiso   1.00
H483   H     0.25035   0.29158   0.00916   0.00000  Uiso   1.00
H484   H     0.23303   0.30555   0.96235   0.00000  Uiso   1.00
H485   H     0.14964   0.06448   0.03254   0.00000  Uiso   1.00
H486   H     0.16205   0.09736   0.99592   0.00000  Uiso   1.00
H487   H     0.14948   0.11688   0.08197   0.00000  Uiso   1.00
H488   H     0.15837   0.14782   0.04254   0.00000  Uiso   1.00
O489   O     0.25000   0.00000   0.25000   0.00000  Uiso   1.00
O490   O     0.25000   0.46964   0.66245   0.00000  Uiso   1.00
O491   O     0.46963   0.25000   0.33755   0.00000  Uiso   1.00
O492   O     0.03036   0.25000   0.66245   0.00000  Uiso   1.00
O493   O     0.00000   0.21964   0.83755   0.00000  Uiso   1.00
O494   O     0.00000   0.28037   0.16245   0.00000  Uiso   1.00
O495   O     0.28036   0.00000   0.83755   0.00000  Uiso   1.00
O496   O     0.21963   0.00000   0.16245   0.00000  Uiso   1.00
O497   O     0.00000   0.28037   0.83755   0.00000  Uiso   1.00
O498   O     0.00000   0.21964   0.16245   0.00000  Uiso   1.00
O499   O     0.21963   0.00000   0.83755   0.00000  Uiso   1.00
O500   O     0.25000   0.00000   0.75000   0.00000  Uiso   1.00
O501   O     0.28036   0.00000   0.16245   0.00000  Uiso   1.00
O502   O     0.20724   0.07308   0.27302   0.00000  Uiso   1.00
O503   O     0.29275   0.42693   0.72698   0.00000  Uiso   1.00
O504   O     0.42692   0.20725   0.27302   0.00000  Uiso   1.00
O505   O     0.07307   0.29276   0.72698   0.00000  Uiso   1.00
O506   O     0.29275   0.42693   0.27302   0.00000  Uiso   1.00
O507   O     0.20724   0.07308   0.72698   0.00000  Uiso   1.00
O508   O     0.07307   0.29276   0.27302   0.00000  Uiso   1.00
O509   O     0.42692   0.20725   0.72698   0.00000  Uiso   1.00
O510   O     0.20724   0.42693   0.72698   0.00000  Uiso   1.00
O511   O     0.00000   0.25000   0.25000   0.00000  Uiso   1.00
O512   O     0.29275   0.07308   0.27302   0.00000  Uiso   1.00
O513   O     0.42692   0.29276   0.72698   0.00000  Uiso   1.00
O514   O     0.07307   0.20725   0.27302   0.00000  Uiso   1.00
O515   O     0.29275   0.07308   0.72698   0.00000  Uiso   1.00
O516   O     0.20724   0.42693   0.27302   0.00000  Uiso   1.00
O517   O     0.07307   0.20725   0.72698   0.00000  Uiso   1.00
O518   O     0.42692   0.29276   0.27302   0.00000  Uiso   1.00
O519   O     0.45724   0.32308   0.77302   0.00000  Uiso   1.00
O520   O     0.04275   0.17693   0.22698   0.00000  Uiso   1.00
O521   O     0.17692   0.45725   0.77302   0.00000  Uiso   1.00
O522   O     0.00000   0.25000   0.75000   0.00000  Uiso   1.00
O523   O     0.32307   0.04276   0.22698   0.00000  Uiso   1.00
O524   O     0.04275   0.17693   0.77302   0.00000  Uiso   1.00
O525   O     0.45724   0.32308   0.22698   0.00000  Uiso   1.00
O526   O     0.32307   0.04276   0.77302   0.00000  Uiso   1.00
O527   O     0.17692   0.45725   0.22698   0.00000  Uiso   1.00
O528   O     0.45724   0.17693   0.22698   0.00000  Uiso   1.00
O529   O     0.04275   0.32308   0.77302   0.00000  Uiso   1.00
O530   O     0.17692   0.04276   0.22698   0.00000  Uiso   1.00
O531   O     0.32307   0.45725   0.77302   0.00000  Uiso   1.00
O532   O     0.04275   0.32308   0.22698   0.00000  Uiso   1.00
O533   O     0.25000   0.46964   0.33755   0.00000  Uiso   1.00
O534   O     0.45724   0.17693   0.77302   0.00000  Uiso   1.00
O535   O     0.32307   0.45725   0.22698   0.00000  Uiso   1.00
O536   O     0.17692   0.04276   0.77302   0.00000  Uiso   1.00
O537   O     0.47713   0.15571   0.46518   0.00000  Uiso   1.00
O538   O     0.00293   0.35323   0.54105   0.00000  Uiso   1.00
O539   O     0.34689   0.46783   0.46507   0.00000  Uiso   1.00
O540   O     0.15372   0.46686   0.53470   0.00000  Uiso   1.00
O541   O     0.00147   0.35305   0.45853   0.00000  Uiso   1.00
O542   O     0.01601   0.15445   0.53437   0.00000  Uiso   1.00
O543   O     0.15113   0.49193   0.45916   0.00000  Uiso   1.00
O544   O     0.25000   0.03037   0.66245   0.00000  Uiso   1.00
O545   O     0.34904   0.49151   0.54106   0.00000  Uiso   1.00
O546   O     0.27990   0.40461   0.96181   0.00000  Uiso   1.00
O547   O     0.20122   0.08769   0.03929   0.00000  Uiso   1.00
O548   O     0.09836   0.26800   0.96265   0.00000  Uiso   1.00
O549   O     0.41180   0.19892   0.03863   0.00000  Uiso   1.00
O550   O     0.21886   0.09557   0.96123   0.00000  Uiso   1.00
O551   O     0.29963   0.41351   0.03897   0.00000  Uiso   1.00
O552   O     0.40596   0.21501   0.95921   0.00000  Uiso   1.00
O553   O     0.09125   0.28288   0.04279   0.00000  Uiso   1.00
O554   O     0.01611   0.31639   0.39688   0.00000  Uiso   1.00
O555   O     0.03036   0.25000   0.33755   0.00000  Uiso   1.00
O556   O     0.01204   0.18671   0.60056   0.00000  Uiso   1.00
O557   O     0.18632   0.01193   0.39873   0.00000  Uiso   1.00
O558   O     0.31371   0.01254   0.60122   0.00000  Uiso   1.00
O559   O     0.48113   0.18853   0.39919   0.00000  Uiso   1.00
O560   O     0.48975   0.31753   0.60327   0.00000  Uiso   1.00
O561   O     0.31497   0.47924   0.39815   0.00000  Uiso   1.00
O562   O     0.18529   0.47880   0.60176   0.00000  Uiso   1.00
O563   O     0.23626   0.06517   0.89761   0.00000  Uiso   1.00
O564   O     0.29395   0.45090   0.10164   0.00000  Uiso   1.00
O565   O     0.43468   0.24052   0.89809   0.00000  Uiso   1.00
O566   O     0.46963   0.25000   0.66245   0.00000  Uiso   1.00
O567   O     0.04304   0.29856   0.09720   0.00000  Uiso   1.00
O568   O     0.26431   0.43513   0.89786   0.00000  Uiso   1.00
O569   O     0.20516   0.04885   0.10160   0.00000  Uiso   1.00
O570   O     0.06642   0.25751   0.89817   0.00000  Uiso   1.00
O571   O     0.44764   0.20703   0.10262   0.00000  Uiso   1.00
O572   O     0.25000   0.03037   0.33755   0.00000  Uiso   1.00
Zn573  Zn    0.20659   0.00000   0.21735   0.00000  Uiso   1.00
Zn574  Zn    0.04340   0.25000   0.28265   0.00000  Uiso   1.00
Zn575  Zn    0.25000   0.45660   0.71735   0.00000  Uiso   1.00
Zn576  Zn    0.25000   0.04341   0.28265   0.00000  Uiso   1.00
Zn577  Zn    0.04340   0.25000   0.71735   0.00000  Uiso   1.00
Zn578  Zn    0.45659   0.25000   0.28265   0.00000  Uiso   1.00
Zn579  Zn    0.25000   0.04341   0.71735   0.00000  Uiso   1.00
Zn580  Zn    0.25000   0.45660   0.28265   0.00000  Uiso   1.00
Zn581  Zn    0.29340   0.00000   0.78265   0.00000  Uiso   1.00
Zn582  Zn    0.00000   0.20660   0.21735   0.00000  Uiso   1.00
Zn583  Zn    0.00000   0.29341   0.78265   0.00000  Uiso   1.00
Zn584  Zn    0.29340   0.00000   0.21735   0.00000  Uiso   1.00
Zn585  Zn    0.20659   0.00000   0.78265   0.00000  Uiso   1.00
Zn586  Zn    0.00000   0.29341   0.21735   0.00000  Uiso   1.00
Zn587  Zn    0.00000   0.20660   0.78265   0.00000  Uiso   1.00
Zn588  Zn    0.45659   0.25000   0.71735   0.00000  Uiso   1.00
C589   C     0.50670   0.28522   0.41768   0.00000  Uiso   1.00
C590   C     0.77206   0.47514   0.08118   0.00000  Uiso   1.00
C591   C     0.71681   0.48819   0.54070   0.00000  Uiso   1.00
C592   C     0.50273   0.28694   0.45869   0.00000  Uiso   1.00
C593   C     0.50472   0.22005   0.54041   0.00000  Uiso   1.00
C594   C     0.71712   0.49734   0.45901   0.00000  Uiso   1.00
C595   C     0.78311   0.49732   0.54103   0.00000  Uiso   1.00
C596   C     0.76029   0.46823   0.95871   0.00000  Uiso   1.00
C597   C     0.73202   0.02874   0.04050   0.00000  Uiso   1.00
C598   C     0.53332   0.25458   0.95914   0.00000  Uiso   1.00
C599   C     0.97065   0.22946   0.04045   0.00000  Uiso   1.00
C600   C     0.73927   0.03218   0.95863   0.00000  Uiso   1.00
C601   C     0.96754   0.24318   0.91799   0.00000  Uiso   1.00
C602   C     0.76831   0.47211   0.04043   0.00000  Uiso   1.00
C603   C     0.96836   0.23722   0.95854   0.00000  Uiso   1.00
C604   C     0.52856   0.26288   0.04038   0.00000  Uiso   1.00
C605   C     0.59810   0.34816   0.24998   0.00000  Uiso   1.00
C606   C     0.90193   0.15179   0.74992   0.00000  Uiso   1.00
C607   C     0.65184   0.09809   0.25007   0.00000  Uiso   1.00
C608   C     0.84809   0.40182   0.75004   0.00000  Uiso   1.00
C609   C     0.90177   0.15195   0.24977   0.00000  Uiso   1.00
C610   C     0.59822   0.34804   0.75022   0.00000  Uiso   1.00
C611   C     0.84801   0.40173   0.24968   0.00000  Uiso   1.00
C612   C     0.52320   0.27078   0.07995   0.00000  Uiso   1.00
C613   C     0.65193   0.09820   0.75014   0.00000  Uiso   1.00
C614   C     0.59823   0.15196   0.75021   0.00000  Uiso   1.00
C615   C     0.90182   0.34807   0.24980   0.00000  Uiso   1.00
C616   C     0.65200   0.40171   0.75034   0.00000  Uiso   1.00
C617   C     0.84809   0.09819   0.24983   0.00000  Uiso   1.00
C618   C     0.90183   0.34809   0.75012   0.00000  Uiso   1.00
C619   C     0.59808   0.15181   0.25003   0.00000  Uiso   1.00
C620   C     0.84821   0.09805   0.74981   0.00000  Uiso   1.00
C621   C     0.65188   0.40184   0.25000   0.00000  Uiso   1.00
C622   C     0.99882   0.25384   0.47951   0.00000  Uiso   1.00
C623   C     0.75694   0.46734   0.91784   0.00000  Uiso   1.00
C624   C     0.50071   0.25377   0.52049   0.00000  Uiso   1.00
C625   C     0.75029   0.49357   0.47951   0.00000  Uiso   1.00
C626   C     0.74999   0.49350   0.52050   0.00000  Uiso   1.00
C627   C     0.74988   0.00028   0.97904   0.00000  Uiso   1.00
C628   C     0.75011   0.00040   0.02004   0.00000  Uiso   1.00
C629   C     0.50064   0.24563   0.97913   0.00000  Uiso   1.00
C630   C     0.50005   0.24566   0.01998   0.00000  Uiso   1.00
C631   C     0.94081   0.14990   0.47826   0.00000  Uiso   1.00
C632   C     0.93945   0.12348   0.51284   0.00000  Uiso   1.00
C633   C     0.90022   0.11418   0.52365   0.00000  Uiso   1.00
C634   C     0.72812   0.02549   0.08124   0.00000  Uiso   1.00
C635   C     0.97164   0.37543   0.53652   0.00000  Uiso   1.00
C636   C     0.98072   0.41466   0.54840   0.00000  Uiso   1.00
C637   C     0.98679   0.41831   0.59218   0.00000  Uiso   1.00
C638   C     0.84630   0.42947   0.47170   0.00000  Uiso   1.00
C639   C     0.87512   0.41754   0.50123   0.00000  Uiso   1.00
C640   C     0.87540   0.37598   0.50521   0.00000  Uiso   1.00
C641   C     0.65530   0.42853   0.52816   0.00000  Uiso   1.00
C642   C     0.62800   0.41610   0.49729   0.00000  Uiso   1.00
C643   C     0.62918   0.37460   0.49279   0.00000  Uiso   1.00
C644   C     0.53343   0.37425   0.46264   0.00000  Uiso   1.00
C645   C     0.53376   0.25275   0.91810   0.00000  Uiso   1.00
C646   C     0.52605   0.41307   0.44813   0.00000  Uiso   1.00
C647   C     0.51997   0.41453   0.40420   0.00000  Uiso   1.00
C648   C     0.55224   0.14747   0.52169   0.00000  Uiso   1.00
C649   C     0.55305   0.12050   0.48765   0.00000  Uiso   1.00
C650   C     0.59214   0.11133   0.47606   0.00000  Uiso   1.00
C651   C     0.62743   0.01998   0.47198   0.00000  Uiso   1.00
C652   C     0.58799   0.00977   0.46272   0.00000  Uiso   1.00
C653   C     0.58175   0.00502   0.41908   0.00000  Uiso   1.00
C654   C     0.87253   0.02003   0.52908   0.00000  Uiso   1.00
C655   C     0.91183   0.01081   0.54009   0.00000  Uiso   1.00
C656   C     0.97281   0.22732   0.08157   0.00000  Uiso   1.00
C657   C     0.91659   0.00626   0.58397   0.00000  Uiso   1.00
C658   C     0.75154   0.37949   0.97040   0.00000  Uiso   1.00
C659   C     0.76690   0.34592   0.99128   0.00000  Uiso   1.00
C660   C     0.73916   0.31492   0.99236   0.00000  Uiso   1.00
C661   C     0.66436   0.09058   0.02734   0.00000  Uiso   1.00
C662   C     0.64572   0.12124   0.05024   0.00000  Uiso   1.00
C663   C     0.60502   0.12314   0.04130   0.00000  Uiso   1.00
C664   C     0.62264   0.24010   0.97480   0.00000  Uiso   1.00
C665   C     0.66192   0.25199   0.96705   0.00000  Uiso   1.00
C666   C     0.67061   0.25355   0.92361   0.00000  Uiso   1.00
C667   C     0.99904   0.25221   0.39811   0.00000  Uiso   1.00
C668   C     0.90814   0.16217   0.02636   0.00000  Uiso   1.00
C669   C     0.87352   0.14615   0.04440   0.00000  Uiso   1.00
C670   C     0.86758   0.10669   0.03164   0.00000  Uiso   1.00
C671   C     0.74603   0.12184   0.97012   0.00000  Uiso   1.00
C672   C     0.72825   0.15695   0.98507   0.00000  Uiso   1.00
C673   C     0.75561   0.18830   0.98618   0.00000  Uiso   1.00
C674   C     0.83611   0.41040   0.02573   0.00000  Uiso   1.00
C675   C     0.85429   0.37805   0.04616   0.00000  Uiso   1.00
C676   C     0.89449   0.37505   0.03516   0.00000  Uiso   1.00
C677   C     0.87775   0.23954   0.96934   0.00000  Uiso   1.00
C678   C     0.50096   0.25205   0.60191   0.00000  Uiso   1.00
C679   C     0.84457   0.23162   0.94390   0.00000  Uiso   1.00
C680   C     0.81497   0.26039   0.94963   0.00000  Uiso   1.00
C681   C     0.60319   0.31841   0.03277   0.00000  Uiso   1.00
C682   C     0.63855   0.32686   0.05448   0.00000  Uiso   1.00
C683   C     0.63249   0.32971   0.09839   0.00000  Uiso   1.00
C684   C     0.55301   0.31631   0.38346   0.00000  Uiso   1.00
C685   C     0.58111   0.29538   0.40866   0.00000  Uiso   1.00
C686   C     0.61997   0.30287   0.39493   0.00000  Uiso   1.00
C687   C     0.54698   0.18168   0.61800   0.00000  Uiso   1.00
C688   C     0.57926   0.20427   0.60149   0.00000  Uiso   1.00
C689   C     0.75117   0.49860   0.39828   0.00000  Uiso   1.00
C690   C     0.61532   0.19204   0.61924   0.00000  Uiso   1.00
C691   C     0.68258   0.04965   0.38919   0.00000  Uiso   1.00
C692   C     0.69967   0.07742   0.41781   0.00000  Uiso   1.00
C693   C     0.68784   0.11631   0.40806   0.00000  Uiso   1.00
C694   C     0.81678   0.05030   0.61080   0.00000  Uiso   1.00
C695   C     0.79904   0.07785   0.58233   0.00000  Uiso   1.00
C696   C     0.80963   0.11696   0.59256   0.00000  Uiso   1.00
C697   C     0.94483   0.18668   0.38429   0.00000  Uiso   1.00
C698   C     0.91600   0.21313   0.40165   0.00000  Uiso   1.00
C699   C     0.87805   0.20490   0.38592   0.00000  Uiso   1.00
C700   C     0.50803   0.21976   0.58115   0.00000  Uiso   1.00
C701   C     0.74897   0.49856   0.60172   0.00000  Uiso   1.00
C702   C     0.95364   0.32018   0.61861   0.00000  Uiso   1.00
C703   C     0.92301   0.30125   0.59504   0.00000  Uiso   1.00
C704   C     0.88540   0.31254   0.60977   0.00000  Uiso   1.00
C705   C     0.81441   0.44487   0.37845   0.00000  Uiso   1.00
C706   C     0.78715   0.41539   0.39327   0.00000  Uiso   1.00
C707   C     0.79103   0.37999   0.37036   0.00000  Uiso   1.00
C708   C     0.68591   0.44454   0.62172   0.00000  Uiso   1.00
C709   C     0.71351   0.41508   0.60752   0.00000  Uiso   1.00
C710   C     0.71006   0.38007   0.63122   0.00000  Uiso   1.00
C711   C     0.76786   0.07921   0.87853   0.00000  Uiso   1.00
C712   C     0.74984   0.00009   0.89776   0.00000  Uiso   1.00
C713   C     0.80449   0.07399   0.90022   0.00000  Uiso   1.00
C714   C     0.83432   0.09789   0.88259   0.00000  Uiso   1.00
C715   C     0.83006   0.46413   0.10871   0.00000  Uiso   1.00
C716   C     0.84216   0.00004   0.08853   0.00000  Uiso   1.00
C717   C     0.88175   0.00894   0.09816   0.00000  Uiso   1.00
C718   C     0.92296   0.27413   0.88123   0.00000  Uiso   1.00
C719   C     0.93243   0.30936   0.90397   0.00000  Uiso   1.00
C720   C     0.91142   0.34209   0.88810   0.00000  Uiso   1.00
C721   C     0.52275   0.33186   0.09791   0.00000  Uiso   1.00
C722   C     0.50418   0.34300   0.05922   0.00000  Uiso   1.00
C723   C     0.75009   0.00029   0.10151   0.00000  Uiso   1.00
C724   C     0.99106   0.38250   0.06065   0.00000  Uiso   1.00
C725   C     0.73379   0.42093   0.87717   0.00000  Uiso   1.00
C726   C     0.69614   0.42576   0.89695   0.00000  Uiso   1.00
C727   C     0.66705   0.40306   0.87648   0.00000  Uiso   1.00
C728   C     0.66944   0.03425   0.10822   0.00000  Uiso   1.00
C729   C     0.65862   0.49855   0.08691   0.00000  Uiso   1.00
C730   C     0.61924   0.48811   0.09596   0.00000  Uiso   1.00
C731   C     0.57799   0.22594   0.87723   0.00000  Uiso   1.00
C732   C     0.56766   0.18838   0.89492   0.00000  Uiso   1.00
C733   C     0.58987   0.15769   0.87645   0.00000  Uiso   1.00
C734   C     0.50048   0.24935   0.89796   0.00000  Uiso   1.00
C735   C     0.95945   0.17068   0.11129   0.00000  Uiso   1.00
C736   C     0.99493   0.15650   0.09178   0.00000  Uiso   1.00
C737   C     0.50239   0.11692   0.10308   0.00000  Uiso   1.00
C738   C     0.99805   0.24980   0.10132   0.00000  Uiso   1.00
C739   C     0.99035   0.18781   0.48109   0.00000  Uiso   1.00
C740   C     0.99975   0.32070   0.52053   0.00000  Uiso   1.00
C741   C     0.81588   0.48344   0.48120   0.00000  Uiso   1.00
C742   C     0.68449   0.48311   0.51879   0.00000  Uiso   1.00
C743   C     0.50381   0.32056   0.47928   0.00000  Uiso   1.00
C744   C     0.71829   0.00409   0.41863   0.00000  Uiso   1.00
C745   C     0.50423   0.18730   0.51883   0.00000  Uiso   1.00
C746   C     0.68378   0.49330   0.47930   0.00000  Uiso   1.00
C747   C     0.81648   0.49326   0.52081   0.00000  Uiso   1.00
C748   C     0.77331   0.43778   0.97995   0.00000  Uiso   1.00
C749   C     0.71809   0.05911   0.01973   0.00000  Uiso   1.00
C750   C     0.56483   0.26396   0.98093   0.00000  Uiso   1.00
C751   C     0.94059   0.21558   0.01927   0.00000  Uiso   1.00
C752   C     0.72631   0.06276   0.97979   0.00000  Uiso   1.00
C753   C     0.78219   0.44177   0.01960   0.00000  Uiso   1.00
C754   C     0.93755   0.22393   0.97914   0.00000  Uiso   1.00
C755   C     0.78185   0.00419   0.58138   0.00000  Uiso   1.00
C756   C     0.56108   0.27268   0.02091   0.00000  Uiso   1.00
C757   C     0.75074   0.49982   0.35587   0.00000  Uiso   1.00
C758   C     0.74931   0.49983   0.64413   0.00000  Uiso   1.00
C759   C     0.99986   0.25082   0.35580   0.00000  Uiso   1.00
C760   C     0.50015   0.25072   0.64421   0.00000  Uiso   1.00
C761   C     0.50025   0.24993   0.85576   0.00000  Uiso   1.00
C762   C     0.99926   0.25002   0.14398   0.00000  Uiso   1.00
C763   C     0.74996   0.00012   0.85568   0.00000  Uiso   1.00
C764   C     0.75002   0.00011   0.14406   0.00000  Uiso   1.00
C765   C     0.67993   0.07006   0.25003   0.00000  Uiso   1.00
C766   C     0.98886   0.22073   0.41882   0.00000  Uiso   1.00
C767   C     0.82005   0.42992   0.75000   0.00000  Uiso   1.00
C768   C     0.92989   0.17995   0.24994   0.00000  Uiso   1.00
C769   C     0.57009   0.32005   0.75004   0.00000  Uiso   1.00
C770   C     0.82003   0.42988   0.24992   0.00000  Uiso   1.00
C771   C     0.67994   0.07009   0.75003   0.00000  Uiso   1.00
C772   C     0.57005   0.32009   0.24999   0.00000  Uiso   1.00
C773   C     0.92995   0.17991   0.75000   0.00000  Uiso   1.00
C774   C     0.67997   0.42987   0.75010   0.00000  Uiso   1.00
C775   C     0.82007   0.07008   0.24997   0.00000  Uiso   1.00
C776   C     0.92993   0.32005   0.75005   0.00000  Uiso   1.00
C777   C     0.99600   0.28565   0.58238   0.00000  Uiso   1.00
C778   C     0.57005   0.17991   0.25000   0.00000  Uiso   1.00
C779   C     0.82008   0.07006   0.74994   0.00000  Uiso   1.00
C780   C     0.67994   0.42991   0.25002   0.00000  Uiso   1.00
C781   C     0.57011   0.17996   0.75007   0.00000  Uiso   1.00
C782   C     0.92992   0.32007   0.24997   0.00000  Uiso   1.00
C783   C     0.62349   0.40337   0.22278   0.00000  Uiso   1.00
C784   C     0.87800   0.09514   0.77514   0.00000  Uiso   1.00
C785   C     0.59679   0.12342   0.22272   0.00000  Uiso   1.00
C786   C     0.90573   0.37908   0.77364   0.00000  Uiso   1.00
C787   C     0.87834   0.09494   0.22506   0.00000  Uiso   1.00
C788   C     0.78306   0.48731   0.41821   0.00000  Uiso   1.00
C789   C     0.61977   0.40696   0.77160   0.00000  Uiso   1.00
C790   C     0.90669   0.37997   0.22782   0.00000  Uiso   1.00
C791   C     0.59235   0.11906   0.77010   0.00000  Uiso   1.00
C792   C     0.61913   0.09235   0.77018   0.00000  Uiso   1.00
C793   C     0.87993   0.40670   0.22780   0.00000  Uiso   1.00
C794   C     0.59304   0.38022   0.77161   0.00000  Uiso   1.00
C795   C     0.90507   0.12169   0.22504   0.00000  Uiso   1.00
C796   C     0.87896   0.40579   0.77365   0.00000  Uiso   1.00
C797   C     0.62355   0.09670   0.22273   0.00000  Uiso   1.00
C798   C     0.90468   0.12191   0.77525   0.00000  Uiso   1.00
C799   C     0.71723   0.48691   0.58177   0.00000  Uiso   1.00
C800   C     0.59673   0.37665   0.22276   0.00000  Uiso   1.00
C801   C     0.87225   0.15459   0.72443   0.00000  Uiso   1.00
C802   C     0.62649   0.34664   0.27718   0.00000  Uiso   1.00
C803   C     0.84419   0.37083   0.72652   0.00000  Uiso   1.00
C804   C     0.65309   0.12643   0.27743   0.00000  Uiso   1.00
C805   C     0.63051   0.34271   0.72913   0.00000  Uiso   1.00
C806   C     0.87141   0.15529   0.27433   0.00000  Uiso   1.00
C807   C     0.65783   0.13111   0.73029   0.00000  Uiso   1.00
C808   C     0.84300   0.36964   0.27126   0.00000  Uiso   1.00
C809   C     0.86983   0.34302   0.27148   0.00000  Uiso   1.00
C810   C     0.74266   0.03286   0.91775   0.00000  Uiso   1.00
C811   C     0.63117   0.15794   0.73051   0.00000  Uiso   1.00
C812   C     0.84474   0.12852   0.27443   0.00000  Uiso   1.00
C813   C     0.65733   0.36934   0.72936   0.00000  Uiso   1.00
C814   C     0.62636   0.15317   0.27739   0.00000  Uiso   1.00
C815   C     0.87089   0.34406   0.72664   0.00000  Uiso   1.00
C816   C     0.65326   0.37333   0.27720   0.00000  Uiso   1.00
C817   C     0.84553   0.12785   0.72437   0.00000  Uiso   1.00
C818   C     0.99226   0.22057   0.45956   0.00000  Uiso   1.00
C819   C     0.99931   0.28708   0.54128   0.00000  Uiso   1.00
C820   C     0.78352   0.48849   0.45929   0.00000  Uiso   1.00
H821   H     0.62197   0.42509   0.20143   0.00000  Uiso   1.00
H822   H     0.88431   0.43124   0.21081   0.00000  Uiso   1.00
H823   H     0.60064   0.12843   0.00979   0.00000  Uiso   1.00
H824   H     0.59237   0.14569   0.05821   0.00000  Uiso   1.00
H825   H     0.59149   0.09713   0.04953   0.00000  Uiso   1.00
H826   H     0.61720   0.21456   0.95862   0.00000  Uiso   1.00
H827   H     0.62048   0.23353   0.00636   0.00000  Uiso   1.00
H828   H     0.66657   0.27926   0.98020   0.00000  Uiso   1.00
H829   H     0.68074   0.23228   0.98115   0.00000  Uiso   1.00
H830   H     0.66714   0.22615   0.91028   0.00000  Uiso   1.00
H831   H     0.69935   0.26219   0.91936   0.00000  Uiso   1.00
H832   H     0.65255   0.27350   0.90876   0.00000  Uiso   1.00
H833   H     0.56828   0.38486   0.78812   0.00000  Uiso   1.00
H834   H     0.93209   0.14587   0.03580   0.00000  Uiso   1.00
H835   H     0.90584   0.15947   0.99428   0.00000  Uiso   1.00
H836   H     0.87544   0.14717   0.07666   0.00000  Uiso   1.00
H837   H     0.84964   0.16277   0.03530   0.00000  Uiso   1.00
H838   H     0.86371   0.10529   0.99960   0.00000  Uiso   1.00
H839   H     0.84284   0.09557   0.04607   0.00000  Uiso   1.00
H840   H     0.89136   0.08962   0.03993   0.00000  Uiso   1.00
H841   H     0.76069   0.12849   0.94278   0.00000  Uiso   1.00
H842   H     0.76689   0.11257   0.99168   0.00000  Uiso   1.00
H843   H     0.70513   0.16467   0.96585   0.00000  Uiso   1.00
H844   H     0.92825   0.11863   0.20571   0.00000  Uiso   1.00
H845   H     0.71765   0.15247   0.01492   0.00000  Uiso   1.00
H846   H     0.77956   0.18084   0.00427   0.00000  Uiso   1.00
H847   H     0.74263   0.21294   0.99892   0.00000  Uiso   1.00
H848   H     0.76484   0.19489   0.95620   0.00000  Uiso   1.00
H849   H     0.85152   0.43580   0.03225   0.00000  Uiso   1.00
H850   H     0.83781   0.40543   0.99389   0.00000  Uiso   1.00
H851   H     0.85190   0.38118   0.07823   0.00000  Uiso   1.00
H852   H     0.84024   0.35239   0.03775   0.00000  Uiso   1.00
H853   H     0.89752   0.37082   0.00329   0.00000  Uiso   1.00
H854   H     0.90693   0.35146   0.05054   0.00000  Uiso   1.00
H855   H     0.88252   0.42953   0.79204   0.00000  Uiso   1.00
H856   H     0.90918   0.40028   0.04377   0.00000  Uiso   1.00
H857   H     0.88642   0.26826   0.96461   0.00000  Uiso   1.00
H858   H     0.86948   0.23625   0.00029   0.00000  Uiso   1.00
H859   H     0.85277   0.23124   0.91276   0.00000  Uiso   1.00
H860   H     0.83353   0.20426   0.95143   0.00000  Uiso   1.00
H861   H     0.80611   0.26103   0.98055   0.00000  Uiso   1.00
H862   H     0.79109   0.25381   0.93111   0.00000  Uiso   1.00
H863   H     0.82539   0.28771   0.94108   0.00000  Uiso   1.00
H864   H     0.58263   0.33918   0.04100   0.00000  Uiso   1.00
H865   H     0.60884   0.32132   0.00117   0.00000  Uiso   1.00
H866   H     0.62214   0.07509   0.20126   0.00000  Uiso   1.00
H867   H     0.65889   0.30508   0.04846   0.00000  Uiso   1.00
H868   H     0.64980   0.35317   0.04368   0.00000  Uiso   1.00
H869   H     0.61284   0.35193   0.10510   0.00000  Uiso   1.00
H870   H     0.65875   0.33598   0.11294   0.00000  Uiso   1.00
H871   H     0.62192   0.30352   0.11019   0.00000  Uiso   1.00
H872   H     0.56185   0.34518   0.38177   0.00000  Uiso   1.00
H873   H     0.55434   0.30713   0.35287   0.00000  Uiso   1.00
H874   H     0.57868   0.30360   0.43966   0.00000  Uiso   1.00
H875   H     0.57613   0.26552   0.40663   0.00000  Uiso   1.00
H876   H     0.63948   0.28760   0.41350   0.00000  Uiso   1.00
H877   H     0.92739   0.11918   0.79514   0.00000  Uiso   1.00
H878   H     0.62347   0.29379   0.36430   0.00000  Uiso   1.00
H879   H     0.62625   0.33246   0.39707   0.00000  Uiso   1.00
H880   H     0.55389   0.15233   0.61465   0.00000  Uiso   1.00
H881   H     0.54466   0.18595   0.64987   0.00000  Uiso   1.00
H882   H     0.58103   0.20126   0.56952   0.00000  Uiso   1.00
H883   H     0.57559   0.23371   0.60800   0.00000  Uiso   1.00
H884   H     0.62054   0.16282   0.61260   0.00000  Uiso   1.00
H885   H     0.63794   0.20859   0.60696   0.00000  Uiso   1.00
H886   H     0.61466   0.19597   0.65125   0.00000  Uiso   1.00
H887   H     0.65287   0.05530   0.38768   0.00000  Uiso   1.00
H888   H     0.57511   0.37827   0.20139   0.00000  Uiso   1.00
H889   H     0.69283   0.05472   0.35935   0.00000  Uiso   1.00
H890   H     0.69139   0.07119   0.44818   0.00000  Uiso   1.00
H891   H     0.72989   0.07603   0.41594   0.00000  Uiso   1.00
H892   H     0.70093   0.13570   0.42856   0.00000  Uiso   1.00
H893   H     0.69619   0.12348   0.37790   0.00000  Uiso   1.00
H894   H     0.65779   0.11905   0.41084   0.00000  Uiso   1.00
H895   H     0.84637   0.05651   0.61214   0.00000  Uiso   1.00
H896   H     0.80667   0.05512   0.64072   0.00000  Uiso   1.00
H897   H     0.80769   0.07212   0.55197   0.00000  Uiso   1.00
H898   H     0.76886   0.07562   0.58397   0.00000  Uiso   1.00
H899   H     0.86963   0.17740   0.70454   0.00000  Uiso   1.00
H900   H     0.79628   0.13616   0.57201   0.00000  Uiso   1.00
H901   H     0.80067   0.12365   0.62264   0.00000  Uiso   1.00
H902   H     0.83962   0.12054   0.59031   0.00000  Uiso   1.00
H903   H     0.93512   0.15835   0.38916   0.00000  Uiso   1.00
H904   H     0.94570   0.18973   0.35219   0.00000  Uiso   1.00
H905   H     0.91529   0.21083   0.43376   0.00000  Uiso   1.00
H906   H     0.92272   0.24183   0.39412   0.00000  Uiso   1.00
H907   H     0.85792   0.22362   0.39954   0.00000  Uiso   1.00
H908   H     0.87749   0.20913   0.35394   0.00000  Uiso   1.00
H909   H     0.87015   0.17632   0.39274   0.00000  Uiso   1.00
H910   H     0.62803   0.32490   0.29849   0.00000  Uiso   1.00
H911   H     0.94704   0.34966   0.62047   0.00000  Uiso   1.00
H912   H     0.95314   0.31108   0.64930   0.00000  Uiso   1.00
H913   H     0.92514   0.30835   0.56370   0.00000  Uiso   1.00
H914   H     0.92542   0.27114   0.59788   0.00000  Uiso   1.00
H915   H     0.86407   0.29852   0.59245   0.00000  Uiso   1.00
H916   H     0.88215   0.30471   0.64080   0.00000  Uiso   1.00
H917   H     0.88163   0.34250   0.60670   0.00000  Uiso   1.00
H918   H     0.84228   0.43330   0.38061   0.00000  Uiso   1.00
H919   H     0.81085   0.44961   0.34685   0.00000  Uiso   1.00
H920   H     0.79166   0.40939   0.42435   0.00000  Uiso   1.00
H921   H     0.82051   0.36717   0.70815   0.00000  Uiso   1.00
H922   H     0.75850   0.42457   0.39046   0.00000  Uiso   1.00
H923   H     0.77324   0.35869   0.38338   0.00000  Uiso   1.00
H924   H     0.78234   0.38447   0.33982   0.00000  Uiso   1.00
H925   H     0.81968   0.37015   0.37094   0.00000  Uiso   1.00
H926   H     0.65815   0.43276   0.61930   0.00000  Uiso   1.00
H927   H     0.68910   0.44951   0.65333   0.00000  Uiso   1.00
H928   H     0.70900   0.40841   0.57663   0.00000  Uiso   1.00
H929   H     0.74208   0.42457   0.60999   0.00000  Uiso   1.00
H930   H     0.72806   0.35872   0.61864   0.00000  Uiso   1.00
H931   H     0.71874   0.38518   0.66164   0.00000  Uiso   1.00
H932   H     0.88070   0.07226   0.79491   0.00000  Uiso   1.00
H933   H     0.67463   0.12791   0.29891   0.00000  Uiso   1.00
H934   H     0.68152   0.36995   0.63092   0.00000  Uiso   1.00
H935   H     0.76324   0.10897   0.87473   0.00000  Uiso   1.00
H936   H     0.76988   0.06827   0.84852   0.00000  Uiso   1.00
H937   H     0.80150   0.08089   0.93150   0.00000  Uiso   1.00
H938   H     0.81331   0.04504   0.89810   0.00000  Uiso   1.00
H939   H     0.86052   0.09262   0.89773   0.00000  Uiso   1.00
H940   H     0.83776   0.09156   0.85119   0.00000  Uiso   1.00
H941   H     0.82730   0.12722   0.88600   0.00000  Uiso   1.00
H942   H     0.84941   0.44232   0.10023   0.00000  Uiso   1.00
H943   H     0.83389   0.46697   0.14059   0.00000  Uiso   1.00
H944   H     0.63520   0.31791   0.71270   0.00000  Uiso   1.00
H945   H     0.83958   0.49747   0.05643   0.00000  Uiso   1.00
H946   H     0.82489   0.02313   0.09856   0.00000  Uiso   1.00
H947   H     0.88972   0.03483   0.08366   0.00000  Uiso   1.00
H948   H     0.88517   0.01227   0.13010   0.00000  Uiso   1.00
H949   H     0.90002   0.48682   0.08767   0.00000  Uiso   1.00
H950   H     0.89283   0.27257   0.87890   0.00000  Uiso   1.00
H951   H     0.93278   0.27620   0.85077   0.00000  Uiso   1.00
H952   H     0.92593   0.30615   0.93530   0.00000  Uiso   1.00
H953   H     0.96202   0.31528   0.90127   0.00000  Uiso   1.00
H954   H     0.91943   0.36710   0.90421   0.00000  Uiso   1.00
H955   H     0.86816   0.17858   0.29336   0.00000  Uiso   1.00
H956   H     0.91766   0.34606   0.85672   0.00000  Uiso   1.00
H957   H     0.88162   0.33790   0.89183   0.00000  Uiso   1.00
H958   H     0.54213   0.35377   0.10626   0.00000  Uiso   1.00
H959   H     0.50168   0.33136   0.12102   0.00000  Uiso   1.00
H960   H     0.52302   0.34000   0.03423   0.00000  Uiso   1.00
H961   H     0.98016   0.32520   0.05391   0.00000  Uiso   1.00
H962   H     0.97774   0.38964   0.03266   0.00000  Uiso   1.00
H963   H     0.97107   0.38619   0.08467   0.00000  Uiso   1.00
H964   H     0.51446   0.40126   0.06513   0.00000  Uiso   1.00
H965   H     0.73876   0.39120   0.87364   0.00000  Uiso   1.00
H966   H     0.68312   0.13628   0.71492   0.00000  Uiso   1.00
H967   H     0.73321   0.43185   0.84707   0.00000  Uiso   1.00
H968   H     0.69743   0.41743   0.92796   0.00000  Uiso   1.00
H969   H     0.68766   0.45485   0.89578   0.00000  Uiso   1.00
H970   H     0.64018   0.40776   0.89055   0.00000  Uiso   1.00
H971   H     0.66514   0.41106   0.84535   0.00000  Uiso   1.00
H972   H     0.67373   0.37354   0.87850   0.00000  Uiso   1.00
H973   H     0.64942   0.05558   0.10030   0.00000  Uiso   1.00
H974   H     0.66544   0.03047   0.13998   0.00000  Uiso   1.00
H975   H     0.66141   0.00210   0.05492   0.00000  Uiso   1.00
H976   H     0.67650   0.47573   0.09637   0.00000  Uiso   1.00
H977   H     0.81829   0.36492   0.28768   0.00000  Uiso   1.00
H978   H     0.61225   0.46242   0.08052   0.00000  Uiso   1.00
H979   H     0.61564   0.48371   0.12774   0.00000  Uiso   1.00
H980   H     0.60038   0.00996   0.08608   0.00000  Uiso   1.00
H981   H     0.60815   0.22741   0.87547   0.00000  Uiso   1.00
H982   H     0.56863   0.22761   0.84659   0.00000  Uiso   1.00
H983   H     0.57219   0.18807   0.92678   0.00000  Uiso   1.00
H984   H     0.53835   0.18267   0.88983   0.00000  Uiso   1.00
H985   H     0.58096   0.13101   0.88851   0.00000  Uiso   1.00
H986   H     0.58575   0.15746   0.84444   0.00000  Uiso   1.00
H987   H     0.61932   0.16136   0.88281   0.00000  Uiso   1.00
H988   H     0.86538   0.31844   0.28839   0.00000  Uiso   1.00
H989   H     0.93693   0.15190   0.10357   0.00000  Uiso   1.00
H990   H     0.96208   0.16794   0.14333   0.00000  Uiso   1.00
H991   H     0.99262   0.15807   0.05959   0.00000  Uiso   1.00
H992   H     0.51857   0.17327   0.10112   0.00000  Uiso   1.00
H993   H     0.52795   0.10750   0.08889   0.00000  Uiso   1.00
H994   H     0.50558   0.11449   0.13514   0.00000  Uiso   1.00
H995   H     0.97966   0.09911   0.09338   0.00000  Uiso   1.00
H996   H     0.63651   0.18342   0.71559   0.00000  Uiso   1.00
H997   H     0.82153   0.13165   0.29370   0.00000  Uiso   1.00
H998   H     0.68227   0.36440   0.71340   0.00000  Uiso   1.00
H999   H     0.62780   0.17480   0.29883   0.00000  Uiso   1.00
H1000  H     0.57523   0.12191   0.20128   0.00000  Uiso   1.00
H1001  H     0.86720   0.32019   0.70851   0.00000  Uiso   1.00
H1002  H     0.67490   0.37168   0.29853   0.00000  Uiso   1.00
H1003  H     0.82283   0.13055   0.70444   0.00000  Uiso   1.00
H1004  H     0.92535   0.13750   0.45388   0.00000  Uiso   1.00
H1005  H     0.92618   0.17556   0.48628   0.00000  Uiso   1.00
H1006  H     0.95452   0.09803   0.50559   0.00000  Uiso   1.00
H1007  H     0.95210   0.13623   0.53872   0.00000  Uiso   1.00
H1008  H     0.88430   0.13946   0.52923   0.00000  Uiso   1.00
H1009  H     0.90014   0.09758   0.55068   0.00000  Uiso   1.00
H1010  H     0.88708   0.09849   0.49985   0.00000  Uiso   1.00
H1011  H     0.92944   0.38277   0.79195   0.00000  Uiso   1.00
H1012  H     0.94941   0.36536   0.55528   0.00000  Uiso   1.00
H1013  H     0.96109   0.37612   0.50627   0.00000  Uiso   1.00
H1014  H     0.50565   0.42388   0.53287   0.00000  Uiso   1.00
H1015  H     0.95789   0.43285   0.53982   0.00000  Uiso   1.00
H1016  H     0.96108   0.41260   0.60817   0.00000  Uiso   1.00
H1017  H     0.99542   0.44663   0.59901   0.00000  Uiso   1.00
H1018  H     0.50839   0.39922   0.60212   0.00000  Uiso   1.00
H1019  H     0.85298   0.41576   0.44383   0.00000  Uiso   1.00
H1020  H     0.81927   0.41874   0.48152   0.00000  Uiso   1.00
H1021  H     0.90248   0.42706   0.49172   0.00000  Uiso   1.00
H1022  H     0.88143   0.07177   0.20574   0.00000  Uiso   1.00
H1023  H     0.86897   0.42924   0.53022   0.00000  Uiso   1.00
H1024  H     0.84748   0.36552   0.51099   0.00000  Uiso   1.00
H1025  H     0.89273   0.36785   0.53004   0.00000  Uiso   1.00
H1026  H     0.88618   0.36321   0.47820   0.00000  Uiso   1.00
H1027  H     0.64780   0.41467   0.55573   0.00000  Uiso   1.00
H1028  H     0.68290   0.41836   0.51954   0.00000  Uiso   1.00
H1029  H     0.60005   0.42466   0.50578   0.00000  Uiso   1.00
H1030  H     0.63485   0.42834   0.46872   0.00000  Uiso   1.00
H1031  H     0.65764   0.36500   0.48846   0.00000  Uiso   1.00
H1032  H     0.61338   0.36633   0.46687   0.00000  Uiso   1.00
H1033  H     0.61512   0.43174   0.78808   0.00000  Uiso   1.00
H1034  H     0.61747   0.36117   0.51898   0.00000  Uiso   1.00
H1035  H     0.55578   0.36236   0.44534   0.00000  Uiso   1.00
H1036  H     0.54311   0.37618   0.49314   0.00000  Uiso   1.00
H1037  H     0.50160   0.42426   0.46307   0.00000  Uiso   1.00
H1038  H     0.54968   0.43065   0.45542   0.00000  Uiso   1.00
H1039  H     0.54544   0.40722   0.38856   0.00000  Uiso   1.00
H1040  H     0.51215   0.44268   0.39560   0.00000  Uiso   1.00
H1041  H     0.99777   0.39564   0.39546   0.00000  Uiso   1.00
H1042  H     0.56724   0.13506   0.54644   0.00000  Uiso   1.00
H1043  H     0.56761   0.17259   0.51321   0.00000  Uiso   1.00
H1044  H     0.93121   0.38438   0.21084   0.00000  Uiso   1.00
H1045  H     0.53838   0.09507   0.49583   0.00000  Uiso   1.00
H1046  H     0.53964   0.13266   0.46186   0.00000  Uiso   1.00
H1047  H     0.60758   0.13661   0.46917   0.00000  Uiso   1.00
H1048  H     0.59185   0.09395   0.44961   0.00000  Uiso   1.00
H1049  H     0.60605   0.09651   0.50003   0.00000  Uiso   1.00
H1050  H     0.63433   0.04571   0.45676   0.00000  Uiso   1.00
H1051  H     0.62893   0.02529   0.50387   0.00000  Uiso   1.00
H1052  H     0.58089   0.48410   0.47811   0.00000  Uiso   1.00
H1053  H     0.56956   0.03152   0.47373   0.00000  Uiso   1.00
H1054  H     0.58871   0.03056   0.40330   0.00000  Uiso   1.00
H1055  H     0.56705   0.11389   0.78545   0.00000  Uiso   1.00
H1056  H     0.55261   0.49863   0.41376   0.00000  Uiso   1.00
H1057  H     0.59859   0.48222   0.40758   0.00000  Uiso   1.00
H1058  H     0.86442   0.04566   0.54374   0.00000  Uiso   1.00
H1059  H     0.87208   0.02502   0.49708   0.00000  Uiso   1.00
H1060  H     0.92014   0.48526   0.52515   0.00000  Uiso   1.00
H1061  H     0.93007   0.03304   0.52980   0.00000  Uiso   1.00
H1062  H     0.90908   0.03188   0.59927   0.00000  Uiso   1.00
H1063  H     0.94554   0.49990   0.59047   0.00000  Uiso   1.00
H1064  H     0.89942   0.48350   0.59499   0.00000  Uiso   1.00
H1065  H     0.73984   0.37032   0.94230   0.00000  Uiso   1.00
H1066  H     0.61403   0.06708   0.78564   0.00000  Uiso   1.00
H1067  H     0.72857   0.39103   0.98797   0.00000  Uiso   1.00
H1068  H     0.79195   0.33644   0.97615   0.00000  Uiso   1.00
H1069  H     0.77401   0.35304   0.02168   0.00000  Uiso   1.00
H1070  H     0.71361   0.32421   0.00664   0.00000  Uiso   1.00
H1071  H     0.75035   0.29158   0.00916   0.00000  Uiso   1.00
H1072  H     0.73303   0.30555   0.96235   0.00000  Uiso   1.00
H1073  H     0.64964   0.06448   0.03254   0.00000  Uiso   1.00
H1074  H     0.66205   0.09736   0.99592   0.00000  Uiso   1.00
H1075  H     0.64948   0.11688   0.08197   0.00000  Uiso   1.00
H1076  H     0.65837   0.14782   0.04254   0.00000  Uiso   1.00
O1077  O     0.75000   0.00000   0.25000   0.00000  Uiso   1.00
O1078  O     0.75000   0.46964   0.66245   0.00000  Uiso   1.00
O1079  O     0.96963   0.25000   0.33755   0.00000  Uiso   1.00
O1080  O     0.53036   0.25000   0.66245   0.00000  Uiso   1.00
O1081  O     0.50000   0.21964   0.83755   0.00000  Uiso   1.00
O1082  O     0.50000   0.28037   0.16245   0.00000  Uiso   1.00
O1083  O     0.78036   0.00000   0.83755   0.00000  Uiso   1.00
O1084  O     0.71963   0.00000   0.16245   0.00000  Uiso   1.00
O1085  O     0.50000   0.28037   0.83755   0.00000  Uiso   1.00
O1086  O     0.50000   0.21964   0.16245   0.00000  Uiso   1.00
O1087  O     0.71963   0.00000   0.83755   0.00000  Uiso   1.00
O1088  O     0.75000   0.00000   0.75000   0.00000  Uiso   1.00
O1089  O     0.78036   0.00000   0.16245   0.00000  Uiso   1.00
O1090  O     0.70724   0.07308   0.27302   0.00000  Uiso   1.00
O1091  O     0.79275   0.42693   0.72698   0.00000  Uiso   1.00
O1092  O     0.92692   0.20725   0.27302   0.00000  Uiso   1.00
O1093  O     0.57307   0.29276   0.72698   0.00000  Uiso   1.00
O1094  O     0.79275   0.42693   0.27302   0.00000  Uiso   1.00
O1095  O     0.70724   0.07308   0.72698   0.00000  Uiso   1.00
O1096  O     0.57307   0.29276   0.27302   0.00000  Uiso   1.00
O1097  O     0.92692   0.20725   0.72698   0.00000  Uiso   1.00
O1098  O     0.70724   0.42693   0.72698   0.00000  Uiso   1.00
O1099  O     0.50000   0.25000   0.25000   0.00000  Uiso   1.00
O1100  O     0.79275   0.07308   0.27302   0.00000  Uiso   1.00
O1101  O     0.92692   0.29276   0.72698   0.00000  Uiso   1.00
O1102  O     0.57307   0.20725   0.27302   0.00000  Uiso   1.00
O1103  O     0.79275   0.07308   0.72698   0.00000  Uiso   1.00
O1104  O     0.70724   0.42693   0.27302   0.00000  Uiso   1.00
O1105  O     0.57307   0.20725   0.72698   0.00000  Uiso   1.00
O1106  O     0.92692   0.29276   0.27302   0.00000  Uiso   1.00
O1107  O     0.95724   0.32308   0.77302   0.00000  Uiso   1.00
O1108  O     0.54275   0.17693   0.22698   0.00000  Uiso   1.00
O1109  O     0.67692   0.45725   0.77302   0.00000  Uiso   1.00
O1110  O     0.50000   0.25000   0.75000   0.00000  Uiso   1.00
O1111  O     0.82307   0.04276   0.22698   0.00000  Uiso   1.00
O1112  O     0.54275   0.17693   0.77302   0.00000  Uiso   1.00
O1113  O     0.95724   0.32308   0.22698   0.00000  Uiso   1.00
O1114  O     0.82307   0.04276   0.77302   0.00000  Uiso   1.00
O1115  O     0.67692   0.45725   0.22698   0.00000  Uiso   1.00
O1116  O     0.95724   0.17693   0.22698   0.00000  Uiso   1.00
O1117  O     0.54275   0.32308   0.77302   0.00000  Uiso   1.00
O1118  O     0.67692   0.04276   0.22698   0.00000  Uiso   1.00
O1119  O     0.82307   0.45725   0.77302   0.00000  Uiso   1.00
O1120  O     0.54275   0.32308   0.22698   0.00000  Uiso   1.00
O1121  O     0.75000   0.46964   0.33755   0.00000  Uiso   1.00
O1122  O     0.95724   0.17693   0.77302   0.00000  Uiso   1.00
O1123  O     0.82307   0.45725   0.22698   0.00000  Uiso   1.00
O1124  O     0.67692   0.04276   0.77302   0.00000  Uiso   1.00
O1125  O     0.97713   0.15571   0.46518   0.00000  Uiso   1.00
O1126  O     0.50293   0.35323   0.54105   0.00000  Uiso   1.00
O1127  O     0.84689   0.46783   0.46507   0.00000  Uiso   1.00
O1128  O     0.65372   0.46686   0.53470   0.00000  Uiso   1.00
O1129  O     0.50147   0.35305   0.45853   0.00000  Uiso   1.00
O1130  O     0.51601   0.15445   0.53437   0.00000  Uiso   1.00
O1131  O     0.65113   0.49193   0.45916   0.00000  Uiso   1.00
O1132  O     0.75000   0.03037   0.66245   0.00000  Uiso   1.00
O1133  O     0.84904   0.49151   0.54106   0.00000  Uiso   1.00
O1134  O     0.77990   0.40461   0.96181   0.00000  Uiso   1.00
O1135  O     0.70122   0.08769   0.03929   0.00000  Uiso   1.00
O1136  O     0.59836   0.26800   0.96265   0.00000  Uiso   1.00
O1137  O     0.91180   0.19892   0.03863   0.00000  Uiso   1.00
O1138  O     0.71886   0.09557   0.96123   0.00000  Uiso   1.00
O1139  O     0.79963   0.41351   0.03897   0.00000  Uiso   1.00
O1140  O     0.90596   0.21501   0.95921   0.00000  Uiso   1.00
O1141  O     0.59125   0.28288   0.04279   0.00000  Uiso   1.00
O1142  O     0.51611   0.31639   0.39688   0.00000  Uiso   1.00
O1143  O     0.53036   0.25000   0.33755   0.00000  Uiso   1.00
O1144  O     0.51204   0.18671   0.60056   0.00000  Uiso   1.00
O1145  O     0.68632   0.01193   0.39873   0.00000  Uiso   1.00
O1146  O     0.81371   0.01254   0.60122   0.00000  Uiso   1.00
O1147  O     0.98113   0.18853   0.39919   0.00000  Uiso   1.00
O1148  O     0.98975   0.31753   0.60327   0.00000  Uiso   1.00
O1149  O     0.81497   0.47924   0.39815   0.00000  Uiso   1.00
O1150  O     0.68529   0.47880   0.60176   0.00000  Uiso   1.00
O1151  O     0.73626   0.06517   0.89761   0.00000  Uiso   1.00
O1152  O     0.79395   0.45090   0.10164   0.00000  Uiso   1.00
O1153  O     0.93468   0.24052   0.89809   0.00000  Uiso   1.00
O1154  O     0.96963   0.25000   0.66245   0.00000  Uiso   1.00
O1155  O     0.54304   0.29856   0.09720   0.00000  Uiso   1.00
O1156  O     0.76431   0.43513   0.89786   0.00000  Uiso   1.00
O1157  O     0.70516   0.04885   0.10160   0.00000  Uiso   1.00
O1158  O     0.56642   0.25751   0.89817   0.00000  Uiso   1.00
O1159  O     0.94764   0.20703   0.10262   0.00000  Uiso   1.00
O1160  O     0.75000   0.03037   0.33755   0.00000  Uiso   1.00
Zn1161 Zn    0.70659   0.00000   0.21735   0.00000  Uiso   1.00
Zn1162 Zn    0.54340   0.25000   0.28265   0.00000  Uiso   1.00
Zn1163 Zn    0.75000   0.45660   0.71735   0.00000  Uiso   1.00
Zn1164 Zn    0.75000   0.04341   0.28265   0.00000  Uiso   1.00
Zn1165 Zn    0.54340   0.25000   0.71735   0.00000  Uiso   1.00
Zn1166 Zn    0.95659   0.25000   0.28265   0.00000  Uiso   1.00
Zn1167 Zn    0.75000   0.04341   0.71735   0.00000  Uiso   1.00
Zn1168 Zn    0.75000   0.45660   0.28265   0.00000  Uiso   1.00
Zn1169 Zn    0.79340   0.00000   0.78265   0.00000  Uiso   1.00
Zn1170 Zn    0.50000   0.20660   0.21735   0.00000  Uiso   1.00
Zn1171 Zn    0.50000   0.29341   0.78265   0.00000  Uiso   1.00
Zn1172 Zn    0.79340   0.00000   0.21735   0.00000  Uiso   1.00
Zn1173 Zn    0.70659   0.00000   0.78265   0.00000  Uiso   1.00
Zn1174 Zn    0.50000   0.29341   0.21735   0.00000  Uiso   1.00
Zn1175 Zn    0.50000   0.20660   0.78265   0.00000  Uiso   1.00
Zn1176 Zn    0.95659   0.25000   0.71735   0.00000  Uiso   1.00
C1177  C     0.00670   0.78522   0.41768   0.00000  Uiso   1.00
C1178  C     0.27206   0.97514   0.08118   0.00000  Uiso   1.00
C1179  C     0.21681   0.98819   0.54070   0.00000  Uiso   1.00
C1180  C     0.00273   0.78694   0.45869   0.00000  Uiso   1.00
C1181  C     0.00472   0.72005   0.54041   0.00000  Uiso   1.00
C1182  C     0.21712   0.99734   0.45901   0.00000  Uiso   1.00
C1183  C     0.28311   0.99732   0.54103   0.00000  Uiso   1.00
C1184  C     0.26029   0.96823   0.95871   0.00000  Uiso   1.00
C1185  C     0.23202   0.52874   0.04050   0.00000  Uiso   1.00
C1186  C     0.03332   0.75458   0.95914   0.00000  Uiso   1.00
C1187  C     0.47065   0.72946   0.04045   0.00000  Uiso   1.00
C1188  C     0.23927   0.53218   0.95863   0.00000  Uiso   1.00
C1189  C     0.46754   0.74318   0.91799   0.00000  Uiso   1.00
C1190  C     0.26831   0.97211   0.04043   0.00000  Uiso   1.00
C1191  C     0.46836   0.73722   0.95854   0.00000  Uiso   1.00
C1192  C     0.02856   0.76288   0.04038   0.00000  Uiso   1.00
C1193  C     0.09810   0.84816   0.24998   0.00000  Uiso   1.00
C1194  C     0.40193   0.65179   0.74992   0.00000  Uiso   1.00
C1195  C     0.15184   0.59809   0.25007   0.00000  Uiso   1.00
C1196  C     0.34809   0.90182   0.75004   0.00000  Uiso   1.00
C1197  C     0.40177   0.65195   0.24977   0.00000  Uiso   1.00
C1198  C     0.09822   0.84804   0.75022   0.00000  Uiso   1.00
C1199  C     0.34801   0.90173   0.24968   0.00000  Uiso   1.00
C1200  C     0.02320   0.77078   0.07995   0.00000  Uiso   1.00
C1201  C     0.15193   0.59820   0.75014   0.00000  Uiso   1.00
C1202  C     0.09823   0.65196   0.75021   0.00000  Uiso   1.00
C1203  C     0.40182   0.84807   0.24980   0.00000  Uiso   1.00
C1204  C     0.15200   0.90171   0.75034   0.00000  Uiso   1.00
C1205  C     0.34809   0.59819   0.24983   0.00000  Uiso   1.00
C1206  C     0.40183   0.84809   0.75012   0.00000  Uiso   1.00
C1207  C     0.09808   0.65181   0.25003   0.00000  Uiso   1.00
C1208  C     0.34821   0.59805   0.74981   0.00000  Uiso   1.00
C1209  C     0.15188   0.90184   0.25000   0.00000  Uiso   1.00
C1210  C     0.49882   0.75384   0.47951   0.00000  Uiso   1.00
C1211  C     0.25694   0.96734   0.91784   0.00000  Uiso   1.00
C1212  C     0.00071   0.75377   0.52049   0.00000  Uiso   1.00
C1213  C     0.25029   0.99357   0.47951   0.00000  Uiso   1.00
C1214  C     0.24999   0.99350   0.52050   0.00000  Uiso   1.00
C1215  C     0.24988   0.50028   0.97904   0.00000  Uiso   1.00
C1216  C     0.25011   0.50040   0.02004   0.00000  Uiso   1.00
C1217  C     0.00064   0.74563   0.97913   0.00000  Uiso   1.00
C1218  C     0.00005   0.74566   0.01998   0.00000  Uiso   1.00
C1219  C     0.44081   0.64990   0.47826   0.00000  Uiso   1.00
C1220  C     0.43945   0.62348   0.51284   0.00000  Uiso   1.00
C1221  C     0.40022   0.61418   0.52365   0.00000  Uiso   1.00
C1222  C     0.22812   0.52549   0.08124   0.00000  Uiso   1.00
C1223  C     0.47164   0.87543   0.53652   0.00000  Uiso   1.00
C1224  C     0.48072   0.91466   0.54840   0.00000  Uiso   1.00
C1225  C     0.48679   0.91831   0.59218   0.00000  Uiso   1.00
C1226  C     0.34630   0.92947   0.47170   0.00000  Uiso   1.00
C1227  C     0.37512   0.91754   0.50123   0.00000  Uiso   1.00
C1228  C     0.37540   0.87598   0.50521   0.00000  Uiso   1.00
C1229  C     0.15530   0.92853   0.52816   0.00000  Uiso   1.00
C1230  C     0.12800   0.91610   0.49729   0.00000  Uiso   1.00
C1231  C     0.12918   0.87460   0.49279   0.00000  Uiso   1.00
C1232  C     0.03343   0.87425   0.46264   0.00000  Uiso   1.00
C1233  C     0.03376   0.75275   0.91810   0.00000  Uiso   1.00
C1234  C     0.02605   0.91307   0.44813   0.00000  Uiso   1.00
C1235  C     0.01997   0.91453   0.40420   0.00000  Uiso   1.00
C1236  C     0.05224   0.64747   0.52169   0.00000  Uiso   1.00
C1237  C     0.05305   0.62050   0.48765   0.00000  Uiso   1.00
C1238  C     0.09214   0.61133   0.47606   0.00000  Uiso   1.00
C1239  C     0.12743   0.51998   0.47198   0.00000  Uiso   1.00
C1240  C     0.08799   0.50977   0.46272   0.00000  Uiso   1.00
C1241  C     0.08175   0.50502   0.41908   0.00000  Uiso   1.00
C1242  C     0.37253   0.52003   0.52908   0.00000  Uiso   1.00
C1243  C     0.41183   0.51081   0.54009   0.00000  Uiso   1.00
C1244  C     0.47281   0.72732   0.08157   0.00000  Uiso   1.00
C1245  C     0.41659   0.50626   0.58397   0.00000  Uiso   1.00
C1246  C     0.25154   0.87949   0.97040   0.00000  Uiso   1.00
C1247  C     0.26690   0.84592   0.99128   0.00000  Uiso   1.00
C1248  C     0.23916   0.81492   0.99236   0.00000  Uiso   1.00
C1249  C     0.16436   0.59058   0.02734   0.00000  Uiso   1.00
C1250  C     0.14572   0.62124   0.05024   0.00000  Uiso   1.00
C1251  C     0.10502   0.62314   0.04130   0.00000  Uiso   1.00
C1252  C     0.12264   0.74010   0.97480   0.00000  Uiso   1.00
C1253  C     0.16192   0.75199   0.96705   0.00000  Uiso   1.00
C1254  C     0.17061   0.75355   0.92361   0.00000  Uiso   1.00
C1255  C     0.49904   0.75221   0.39811   0.00000  Uiso   1.00
C1256  C     0.40814   0.66217   0.02636   0.00000  Uiso   1.00
C1257  C     0.37352   0.64615   0.04440   0.00000  Uiso   1.00
C1258  C     0.36758   0.60669   0.03164   0.00000  Uiso   1.00
C1259  C     0.24603   0.62184   0.97012   0.00000  Uiso   1.00
C1260  C     0.22825   0.65695   0.98507   0.00000  Uiso   1.00
C1261  C     0.25561   0.68830   0.98618   0.00000  Uiso   1.00
C1262  C     0.33611   0.91040   0.02573   0.00000  Uiso   1.00
C1263  C     0.35429   0.87805   0.04616   0.00000  Uiso   1.00
C1264  C     0.39449   0.87505   0.03516   0.00000  Uiso   1.00
C1265  C     0.37775   0.73954   0.96934   0.00000  Uiso   1.00
C1266  C     0.00096   0.75205   0.60191   0.00000  Uiso   1.00
C1267  C     0.34457   0.73162   0.94390   0.00000  Uiso   1.00
C1268  C     0.31497   0.76039   0.94963   0.00000  Uiso   1.00
C1269  C     0.10319   0.81841   0.03277   0.00000  Uiso   1.00
C1270  C     0.13855   0.82686   0.05448   0.00000  Uiso   1.00
C1271  C     0.13249   0.82971   0.09839   0.00000  Uiso   1.00
C1272  C     0.05301   0.81631   0.38346   0.00000  Uiso   1.00
C1273  C     0.08111   0.79538   0.40866   0.00000  Uiso   1.00
C1274  C     0.11997   0.80287   0.39493   0.00000  Uiso   1.00
C1275  C     0.04698   0.68168   0.61800   0.00000  Uiso   1.00
C1276  C     0.07926   0.70427   0.60149   0.00000  Uiso   1.00
C1277  C     0.25117   0.99860   0.39828   0.00000  Uiso   1.00
C1278  C     0.11532   0.69204   0.61924   0.00000  Uiso   1.00
C1279  C     0.18258   0.54965   0.38919   0.00000  Uiso   1.00
C1280  C     0.19967   0.57742   0.41781   0.00000  Uiso   1.00
C1281  C     0.18784   0.61631   0.40806   0.00000  Uiso   1.00
C1282  C     0.31678   0.55030   0.61080   0.00000  Uiso   1.00
C1283  C     0.29904   0.57785   0.58233   0.00000  Uiso   1.00
C1284  C     0.30963   0.61696   0.59256   0.00000  Uiso   1.00
C1285  C     0.44483   0.68668   0.38429   0.00000  Uiso   1.00
C1286  C     0.41600   0.71313   0.40165   0.00000  Uiso   1.00
C1287  C     0.37805   0.70490   0.38592   0.00000  Uiso   1.00
C1288  C     0.00803   0.71976   0.58115   0.00000  Uiso   1.00
C1289  C     0.24897   0.99856   0.60172   0.00000  Uiso   1.00
C1290  C     0.45364   0.82018   0.61861   0.00000  Uiso   1.00
C1291  C     0.42301   0.80125   0.59504   0.00000  Uiso   1.00
C1292  C     0.38540   0.81254   0.60977   0.00000  Uiso   1.00
C1293  C     0.31441   0.94487   0.37845   0.00000  Uiso   1.00
C1294  C     0.28715   0.91539   0.39327   0.00000  Uiso   1.00
C1295  C     0.29103   0.87999   0.37036   0.00000  Uiso   1.00
C1296  C     0.18591   0.94454   0.62172   0.00000  Uiso   1.00
C1297  C     0.21351   0.91508   0.60752   0.00000  Uiso   1.00
C1298  C     0.21006   0.88007   0.63122   0.00000  Uiso   1.00
C1299  C     0.26786   0.57921   0.87853   0.00000  Uiso   1.00
C1300  C     0.24984   0.50009   0.89776   0.00000  Uiso   1.00
C1301  C     0.30449   0.57399   0.90022   0.00000  Uiso   1.00
C1302  C     0.33432   0.59789   0.88259   0.00000  Uiso   1.00
C1303  C     0.33006   0.96413   0.10871   0.00000  Uiso   1.00
C1304  C     0.34216   0.50004   0.08853   0.00000  Uiso   1.00
C1305  C     0.38175   0.50894   0.09816   0.00000  Uiso   1.00
C1306  C     0.42296   0.77413   0.88123   0.00000  Uiso   1.00
C1307  C     0.43243   0.80936   0.90397   0.00000  Uiso   1.00
C1308  C     0.41142   0.84209   0.88810   0.00000  Uiso   1.00
C1309  C     0.02275   0.83186   0.09791   0.00000  Uiso   1.00
C1310  C     0.00418   0.84300   0.05922   0.00000  Uiso   1.00
C1311  C     0.25009   0.50029   0.10151   0.00000  Uiso   1.00
C1312  C     0.49106   0.88250   0.06065   0.00000  Uiso   1.00
C1313  C     0.23379   0.92093   0.87717   0.00000  Uiso   1.00
C1314  C     0.19614   0.92576   0.89695   0.00000  Uiso   1.00
C1315  C     0.16705   0.90306   0.87648   0.00000  Uiso   1.00
C1316  C     0.16944   0.53425   0.10822   0.00000  Uiso   1.00
C1317  C     0.15862   0.99855   0.08691   0.00000  Uiso   1.00
C1318  C     0.11924   0.98811   0.09596   0.00000  Uiso   1.00
C1319  C     0.07799   0.72594   0.87723   0.00000  Uiso   1.00
C1320  C     0.06766   0.68838   0.89492   0.00000  Uiso   1.00
C1321  C     0.08987   0.65769   0.87645   0.00000  Uiso   1.00
C1322  C     0.00048   0.74935   0.89796   0.00000  Uiso   1.00
C1323  C     0.45945   0.67068   0.11129   0.00000  Uiso   1.00
C1324  C     0.49493   0.65650   0.09178   0.00000  Uiso   1.00
C1325  C     0.00239   0.61692   0.10308   0.00000  Uiso   1.00
C1326  C     0.49805   0.74980   0.10132   0.00000  Uiso   1.00
C1327  C     0.49035   0.68781   0.48109   0.00000  Uiso   1.00
C1328  C     0.49975   0.82070   0.52053   0.00000  Uiso   1.00
C1329  C     0.31588   0.98344   0.48120   0.00000  Uiso   1.00
C1330  C     0.18449   0.98311   0.51879   0.00000  Uiso   1.00
C1331  C     0.00381   0.82056   0.47928   0.00000  Uiso   1.00
C1332  C     0.21829   0.50409   0.41863   0.00000  Uiso   1.00
C1333  C     0.00423   0.68730   0.51883   0.00000  Uiso   1.00
C1334  C     0.18378   0.99330   0.47930   0.00000  Uiso   1.00
C1335  C     0.31648   0.99326   0.52081   0.00000  Uiso   1.00
C1336  C     0.27331   0.93778   0.97995   0.00000  Uiso   1.00
C1337  C     0.21809   0.55911   0.01973   0.00000  Uiso   1.00
C1338  C     0.06483   0.76396   0.98093   0.00000  Uiso   1.00
C1339  C     0.44059   0.71558   0.01927   0.00000  Uiso   1.00
C1340  C     0.22631   0.56276   0.97979   0.00000  Uiso   1.00
C1341  C     0.28219   0.94177   0.01960   0.00000  Uiso   1.00
C1342  C     0.43755   0.72393   0.97914   0.00000  Uiso   1.00
C1343  C     0.28185   0.50419   0.58138   0.00000  Uiso   1.00
C1344  C     0.06108   0.77268   0.02091   0.00000  Uiso   1.00
C1345  C     0.25074   0.99982   0.35587   0.00000  Uiso   1.00
C1346  C     0.24931   0.99983   0.64413   0.00000  Uiso   1.00
C1347  C     0.49986   0.75082   0.35580   0.00000  Uiso   1.00
C1348  C     0.00015   0.75072   0.64421   0.00000  Uiso   1.00
C1349  C     0.00025   0.74993   0.85576   0.00000  Uiso   1.00
C1350  C     0.49926   0.75002   0.14398   0.00000  Uiso   1.00
C1351  C     0.24996   0.50012   0.85568   0.00000  Uiso   1.00
C1352  C     0.25002   0.50011   0.14406   0.00000  Uiso   1.00
C1353  C     0.17993   0.57006   0.25003   0.00000  Uiso   1.00
C1354  C     0.48886   0.72073   0.41882   0.00000  Uiso   1.00
C1355  C     0.32005   0.92992   0.75000   0.00000  Uiso   1.00
C1356  C     0.42989   0.67995   0.24994   0.00000  Uiso   1.00
C1357  C     0.07009   0.82005   0.75004   0.00000  Uiso   1.00
C1358  C     0.32003   0.92988   0.24992   0.00000  Uiso   1.00
C1359  C     0.17994   0.57009   0.75003   0.00000  Uiso   1.00
C1360  C     0.07005   0.82009   0.24999   0.00000  Uiso   1.00
C1361  C     0.42995   0.67991   0.75000   0.00000  Uiso   1.00
C1362  C     0.17997   0.92987   0.75010   0.00000  Uiso   1.00
C1363  C     0.32007   0.57008   0.24997   0.00000  Uiso   1.00
C1364  C     0.42993   0.82005   0.75005   0.00000  Uiso   1.00
C1365  C     0.49600   0.78565   0.58238   0.00000  Uiso   1.00
C1366  C     0.07005   0.67991   0.25000   0.00000  Uiso   1.00
C1367  C     0.32008   0.57006   0.74994   0.00000  Uiso   1.00
C1368  C     0.17994   0.92991   0.25002   0.00000  Uiso   1.00
C1369  C     0.07011   0.67996   0.75007   0.00000  Uiso   1.00
C1370  C     0.42992   0.82007   0.24997   0.00000  Uiso   1.00
C1371  C     0.12349   0.90337   0.22278   0.00000  Uiso   1.00
C1372  C     0.37800   0.59514   0.77514   0.00000  Uiso   1.00
C1373  C     0.09679   0.62342   0.22272   0.00000  Uiso   1.00
C1374  C     0.40573   0.87908   0.77364   0.00000  Uiso   1.00
C1375  C     0.37834   0.59494   0.22506   0.00000  Uiso   1.00
C1376  C     0.28306   0.98731   0.41821   0.00000  Uiso   1.00
C1377  C     0.11977   0.90696   0.77160   0.00000  Uiso   1.00
C1378  C     0.40669   0.87997   0.22782   0.00000  Uiso   1.00
C1379  C     0.09235   0.61906   0.77010   0.00000  Uiso   1.00
C1380  C     0.11913   0.59235   0.77018   0.00000  Uiso   1.00
C1381  C     0.37993   0.90670   0.22780   0.00000  Uiso   1.00
C1382  C     0.09304   0.88022   0.77161   0.00000  Uiso   1.00
C1383  C     0.40507   0.62169   0.22504   0.00000  Uiso   1.00
C1384  C     0.37896   0.90579   0.77365   0.00000  Uiso   1.00
C1385  C     0.12355   0.59670   0.22273   0.00000  Uiso   1.00
C1386  C     0.40468   0.62191   0.77525   0.00000  Uiso   1.00
C1387  C     0.21723   0.98691   0.58177   0.00000  Uiso   1.00
C1388  C     0.09673   0.87665   0.22276   0.00000  Uiso   1.00
C1389  C     0.37225   0.65459   0.72443   0.00000  Uiso   1.00
C1390  C     0.12649   0.84664   0.27718   0.00000  Uiso   1.00
C1391  C     0.34419   0.87083   0.72652   0.00000  Uiso   1.00
C1392  C     0.15309   0.62643   0.27743   0.00000  Uiso   1.00
C1393  C     0.13051   0.84271   0.72913   0.00000  Uiso   1.00
C1394  C     0.37141   0.65529   0.27433   0.00000  Uiso   1.00
C1395  C     0.15783   0.63111   0.73029   0.00000  Uiso   1.00
C1396  C     0.34300   0.86964   0.27126   0.00000  Uiso   1.00
C1397  C     0.36983   0.84302   0.27148   0.00000  Uiso   1.00
C1398  C     0.24266   0.53286   0.91775   0.00000  Uiso   1.00
C1399  C     0.13117   0.65794   0.73051   0.00000  Uiso   1.00
C1400  C     0.34474   0.62852   0.27443   0.00000  Uiso   1.00
C1401  C     0.15733   0.86934   0.72936   0.00000  Uiso   1.00
C1402  C     0.12636   0.65317   0.27739   0.00000  Uiso   1.00
C1403  C     0.37089   0.84406   0.72664   0.00000  Uiso   1.00
C1404  C     0.15326   0.87333   0.27720   0.00000  Uiso   1.00
C1405  C     0.34553   0.62785   0.72437   0.00000  Uiso   1.00
C1406  C     0.49226   0.72057   0.45956   0.00000  Uiso   1.00
C1407  C     0.49931   0.78708   0.54128   0.00000  Uiso   1.00
C1408  C     0.28352   0.98849   0.45929   0.00000  Uiso   1.00
H1409  H     0.12197   0.92509   0.20143   0.00000  Uiso   1.00
H1410  H     0.38431   0.93124   0.21081   0.00000  Uiso   1.00
H1411  H     0.10064   0.62843   0.00979   0.00000  Uiso   1.00
H1412  H     0.09237   0.64569   0.05821   0.00000  Uiso   1.00
H1413  H     0.09149   0.59713   0.04953   0.00000  Uiso   1.00
H1414  H     0.11720   0.71456   0.95862   0.00000  Uiso   1.00
H1415  H     0.12048   0.73353   0.00636   0.00000  Uiso   1.00
H1416  H     0.16657   0.77926   0.98020   0.00000  Uiso   1.00
H1417  H     0.18074   0.73228   0.98115   0.00000  Uiso   1.00
H1418  H     0.16714   0.72615   0.91028   0.00000  Uiso   1.00
H1419  H     0.19935   0.76219   0.91936   0.00000  Uiso   1.00
H1420  H     0.15255   0.77350   0.90876   0.00000  Uiso   1.00
H1421  H     0.06828   0.88486   0.78812   0.00000  Uiso   1.00
H1422  H     0.43209   0.64587   0.03580   0.00000  Uiso   1.00
H1423  H     0.40584   0.65947   0.99428   0.00000  Uiso   1.00
H1424  H     0.37544   0.64717   0.07666   0.00000  Uiso   1.00
H1425  H     0.34964   0.66277   0.03530   0.00000  Uiso   1.00
H1426  H     0.36371   0.60529   0.99960   0.00000  Uiso   1.00
H1427  H     0.34284   0.59557   0.04607   0.00000  Uiso   1.00
H1428  H     0.39136   0.58962   0.03993   0.00000  Uiso   1.00
H1429  H     0.26069   0.62849   0.94278   0.00000  Uiso   1.00
H1430  H     0.26689   0.61257   0.99168   0.00000  Uiso   1.00
H1431  H     0.20513   0.66467   0.96585   0.00000  Uiso   1.00
H1432  H     0.42825   0.61863   0.20571   0.00000  Uiso   1.00
H1433  H     0.21765   0.65247   0.01492   0.00000  Uiso   1.00
H1434  H     0.27956   0.68084   0.00427   0.00000  Uiso   1.00
H1435  H     0.24263   0.71294   0.99892   0.00000  Uiso   1.00
H1436  H     0.26484   0.69489   0.95620   0.00000  Uiso   1.00
H1437  H     0.35152   0.93580   0.03225   0.00000  Uiso   1.00
H1438  H     0.33781   0.90543   0.99389   0.00000  Uiso   1.00
H1439  H     0.35190   0.88118   0.07823   0.00000  Uiso   1.00
H1440  H     0.34024   0.85239   0.03775   0.00000  Uiso   1.00
H1441  H     0.39752   0.87082   0.00329   0.00000  Uiso   1.00
H1442  H     0.40693   0.85146   0.05054   0.00000  Uiso   1.00
H1443  H     0.38252   0.92953   0.79204   0.00000  Uiso   1.00
H1444  H     0.40918   0.90028   0.04377   0.00000  Uiso   1.00
H1445  H     0.38642   0.76826   0.96461   0.00000  Uiso   1.00
H1446  H     0.36948   0.73625   0.00029   0.00000  Uiso   1.00
H1447  H     0.35277   0.73124   0.91276   0.00000  Uiso   1.00
H1448  H     0.33353   0.70426   0.95143   0.00000  Uiso   1.00
H1449  H     0.30611   0.76103   0.98055   0.00000  Uiso   1.00
H1450  H     0.29109   0.75381   0.93111   0.00000  Uiso   1.00
H1451  H     0.32539   0.78771   0.94108   0.00000  Uiso   1.00
H1452  H     0.08263   0.83918   0.04100   0.00000  Uiso   1.00
H1453  H     0.10884   0.82132   0.00117   0.00000  Uiso   1.00
H1454  H     0.12214   0.57509   0.20126   0.00000  Uiso   1.00
H1455  H     0.15889   0.80508   0.04846   0.00000  Uiso   1.00
H1456  H     0.14980   0.85317   0.04368   0.00000  Uiso   1.00
H1457  H     0.11284   0.85193   0.10510   0.00000  Uiso   1.00
H1458  H     0.15875   0.83598   0.11294   0.00000  Uiso   1.00
H1459  H     0.12192   0.80352   0.11019   0.00000  Uiso   1.00
H1460  H     0.06185   0.84518   0.38177   0.00000  Uiso   1.00
H1461  H     0.05434   0.80713   0.35287   0.00000  Uiso   1.00
H1462  H     0.07868   0.80360   0.43966   0.00000  Uiso   1.00
H1463  H     0.07613   0.76552   0.40663   0.00000  Uiso   1.00
H1464  H     0.13948   0.78760   0.41350   0.00000  Uiso   1.00
H1465  H     0.42739   0.61918   0.79514   0.00000  Uiso   1.00
H1466  H     0.12347   0.79379   0.36430   0.00000  Uiso   1.00
H1467  H     0.12625   0.83246   0.39707   0.00000  Uiso   1.00
H1468  H     0.05389   0.65233   0.61465   0.00000  Uiso   1.00
H1469  H     0.04466   0.68595   0.64987   0.00000  Uiso   1.00
H1470  H     0.08103   0.70126   0.56952   0.00000  Uiso   1.00
H1471  H     0.07559   0.73371   0.60800   0.00000  Uiso   1.00
H1472  H     0.12054   0.66282   0.61260   0.00000  Uiso   1.00
H1473  H     0.13794   0.70859   0.60696   0.00000  Uiso   1.00
H1474  H     0.11466   0.69597   0.65125   0.00000  Uiso   1.00
H1475  H     0.15287   0.55530   0.38768   0.00000  Uiso   1.00
H1476  H     0.07511   0.87827   0.20139   0.00000  Uiso   1.00
H1477  H     0.19283   0.55472   0.35935   0.00000  Uiso   1.00
H1478  H     0.19139   0.57119   0.44818   0.00000  Uiso   1.00
H1479  H     0.22989   0.57603   0.41594   0.00000  Uiso   1.00
H1480  H     0.20093   0.63570   0.42856   0.00000  Uiso   1.00
H1481  H     0.19619   0.62348   0.37790   0.00000  Uiso   1.00
H1482  H     0.15779   0.61905   0.41084   0.00000  Uiso   1.00
H1483  H     0.34637   0.55651   0.61214   0.00000  Uiso   1.00
H1484  H     0.30667   0.55512   0.64072   0.00000  Uiso   1.00
H1485  H     0.30769   0.57212   0.55197   0.00000  Uiso   1.00
H1486  H     0.26886   0.57562   0.58397   0.00000  Uiso   1.00
H1487  H     0.36963   0.67740   0.70454   0.00000  Uiso   1.00
H1488  H     0.29628   0.63616   0.57201   0.00000  Uiso   1.00
H1489  H     0.30067   0.62365   0.62264   0.00000  Uiso   1.00
H1490  H     0.33962   0.62054   0.59031   0.00000  Uiso   1.00
H1491  H     0.43512   0.65835   0.38916   0.00000  Uiso   1.00
H1492  H     0.44570   0.68973   0.35219   0.00000  Uiso   1.00
H1493  H     0.41529   0.71083   0.43376   0.00000  Uiso   1.00
H1494  H     0.42272   0.74183   0.39412   0.00000  Uiso   1.00
H1495  H     0.35792   0.72362   0.39954   0.00000  Uiso   1.00
H1496  H     0.37749   0.70913   0.35394   0.00000  Uiso   1.00
H1497  H     0.37015   0.67632   0.39274   0.00000  Uiso   1.00
H1498  H     0.12803   0.82490   0.29849   0.00000  Uiso   1.00
H1499  H     0.44704   0.84966   0.62047   0.00000  Uiso   1.00
H1500  H     0.45314   0.81108   0.64930   0.00000  Uiso   1.00
H1501  H     0.42514   0.80835   0.56370   0.00000  Uiso   1.00
H1502  H     0.42542   0.77114   0.59788   0.00000  Uiso   1.00
H1503  H     0.36407   0.79852   0.59245   0.00000  Uiso   1.00
H1504  H     0.38215   0.80471   0.64080   0.00000  Uiso   1.00
H1505  H     0.38163   0.84250   0.60670   0.00000  Uiso   1.00
H1506  H     0.34228   0.93330   0.38061   0.00000  Uiso   1.00
H1507  H     0.31085   0.94961   0.34685   0.00000  Uiso   1.00
H1508  H     0.29166   0.90939   0.42435   0.00000  Uiso   1.00
H1509  H     0.32051   0.86717   0.70815   0.00000  Uiso   1.00
H1510  H     0.25850   0.92457   0.39046   0.00000  Uiso   1.00
H1511  H     0.27324   0.85869   0.38338   0.00000  Uiso   1.00
H1512  H     0.28234   0.88447   0.33982   0.00000  Uiso   1.00
H1513  H     0.31968   0.87015   0.37094   0.00000  Uiso   1.00
H1514  H     0.15815   0.93276   0.61930   0.00000  Uiso   1.00
H1515  H     0.18910   0.94951   0.65333   0.00000  Uiso   1.00
H1516  H     0.20900   0.90841   0.57663   0.00000  Uiso   1.00
H1517  H     0.24208   0.92457   0.60999   0.00000  Uiso   1.00
H1518  H     0.22806   0.85872   0.61864   0.00000  Uiso   1.00
H1519  H     0.21874   0.88518   0.66164   0.00000  Uiso   1.00
H1520  H     0.38070   0.57226   0.79491   0.00000  Uiso   1.00
H1521  H     0.17463   0.62791   0.29891   0.00000  Uiso   1.00
H1522  H     0.18152   0.86995   0.63092   0.00000  Uiso   1.00
H1523  H     0.26324   0.60897   0.87473   0.00000  Uiso   1.00
H1524  H     0.26988   0.56827   0.84852   0.00000  Uiso   1.00
H1525  H     0.30150   0.58089   0.93150   0.00000  Uiso   1.00
H1526  H     0.31331   0.54504   0.89810   0.00000  Uiso   1.00
H1527  H     0.36052   0.59262   0.89773   0.00000  Uiso   1.00
H1528  H     0.33776   0.59156   0.85119   0.00000  Uiso   1.00
H1529  H     0.32730   0.62722   0.88600   0.00000  Uiso   1.00
H1530  H     0.34941   0.94232   0.10023   0.00000  Uiso   1.00
H1531  H     0.33389   0.96697   0.14059   0.00000  Uiso   1.00
H1532  H     0.13520   0.81791   0.71270   0.00000  Uiso   1.00
H1533  H     0.33958   0.99747   0.05643   0.00000  Uiso   1.00
H1534  H     0.32489   0.52313   0.09856   0.00000  Uiso   1.00
H1535  H     0.38972   0.53483   0.08366   0.00000  Uiso   1.00
H1536  H     0.38517   0.51227   0.13010   0.00000  Uiso   1.00
H1537  H     0.40002   0.98682   0.08767   0.00000  Uiso   1.00
H1538  H     0.39283   0.77257   0.87890   0.00000  Uiso   1.00
H1539  H     0.43278   0.77620   0.85077   0.00000  Uiso   1.00
H1540  H     0.42593   0.80615   0.93530   0.00000  Uiso   1.00
H1541  H     0.46202   0.81528   0.90127   0.00000  Uiso   1.00
H1542  H     0.41943   0.86710   0.90421   0.00000  Uiso   1.00
H1543  H     0.36816   0.67858   0.29336   0.00000  Uiso   1.00
H1544  H     0.41766   0.84606   0.85672   0.00000  Uiso   1.00
H1545  H     0.38162   0.83790   0.89183   0.00000  Uiso   1.00
H1546  H     0.04213   0.85377   0.10626   0.00000  Uiso   1.00
H1547  H     0.00168   0.83136   0.12102   0.00000  Uiso   1.00
H1548  H     0.02302   0.84000   0.03423   0.00000  Uiso   1.00
H1549  H     0.48016   0.82520   0.05391   0.00000  Uiso   1.00
H1550  H     0.47774   0.88964   0.03266   0.00000  Uiso   1.00
H1551  H     0.47107   0.88619   0.08467   0.00000  Uiso   1.00
H1552  H     0.01446   0.90126   0.06513   0.00000  Uiso   1.00
H1553  H     0.23876   0.89120   0.87364   0.00000  Uiso   1.00
H1554  H     0.18312   0.63628   0.71492   0.00000  Uiso   1.00
H1555  H     0.23321   0.93185   0.84707   0.00000  Uiso   1.00
H1556  H     0.19743   0.91743   0.92796   0.00000  Uiso   1.00
H1557  H     0.18766   0.95485   0.89578   0.00000  Uiso   1.00
H1558  H     0.14018   0.90776   0.89055   0.00000  Uiso   1.00
H1559  H     0.16514   0.91106   0.84535   0.00000  Uiso   1.00
H1560  H     0.17373   0.87354   0.87850   0.00000  Uiso   1.00
H1561  H     0.14942   0.55558   0.10030   0.00000  Uiso   1.00
H1562  H     0.16544   0.53047   0.13998   0.00000  Uiso   1.00
H1563  H     0.16141   0.50210   0.05492   0.00000  Uiso   1.00
H1564  H     0.17650   0.97573   0.09637   0.00000  Uiso   1.00
H1565  H     0.31829   0.86492   0.28768   0.00000  Uiso   1.00
H1566  H     0.11225   0.96242   0.08052   0.00000  Uiso   1.00
H1567  H     0.11564   0.98371   0.12774   0.00000  Uiso   1.00
H1568  H     0.10038   0.50996   0.08608   0.00000  Uiso   1.00
H1569  H     0.10815   0.72741   0.87547   0.00000  Uiso   1.00
H1570  H     0.06863   0.72761   0.84659   0.00000  Uiso   1.00
H1571  H     0.07219   0.68807   0.92678   0.00000  Uiso   1.00
H1572  H     0.03835   0.68267   0.88983   0.00000  Uiso   1.00
H1573  H     0.08096   0.63101   0.88851   0.00000  Uiso   1.00
H1574  H     0.08575   0.65746   0.84444   0.00000  Uiso   1.00
H1575  H     0.11932   0.66136   0.88281   0.00000  Uiso   1.00
H1576  H     0.36538   0.81844   0.28839   0.00000  Uiso   1.00
H1577  H     0.43693   0.65190   0.10357   0.00000  Uiso   1.00
H1578  H     0.46208   0.66794   0.14333   0.00000  Uiso   1.00
H1579  H     0.49262   0.65807   0.05959   0.00000  Uiso   1.00
H1580  H     0.01857   0.67327   0.10112   0.00000  Uiso   1.00
H1581  H     0.02795   0.60750   0.08889   0.00000  Uiso   1.00
H1582  H     0.00558   0.61449   0.13514   0.00000  Uiso   1.00
H1583  H     0.47966   0.59911   0.09338   0.00000  Uiso   1.00
H1584  H     0.13651   0.68342   0.71559   0.00000  Uiso   1.00
H1585  H     0.32153   0.63165   0.29370   0.00000  Uiso   1.00
H1586  H     0.18227   0.86440   0.71340   0.00000  Uiso   1.00
H1587  H     0.12780   0.67480   0.29883   0.00000  Uiso   1.00
H1588  H     0.07523   0.62191   0.20128   0.00000  Uiso   1.00
H1589  H     0.36720   0.82019   0.70851   0.00000  Uiso   1.00
H1590  H     0.17490   0.87168   0.29853   0.00000  Uiso   1.00
H1591  H     0.32283   0.63055   0.70444   0.00000  Uiso   1.00
H1592  H     0.42535   0.63750   0.45388   0.00000  Uiso   1.00
H1593  H     0.42618   0.67556   0.48628   0.00000  Uiso   1.00
H1594  H     0.45452   0.59803   0.50559   0.00000  Uiso   1.00
H1595  H     0.45210   0.63623   0.53872   0.00000  Uiso   1.00
H1596  H     0.38430   0.63946   0.52923   0.00000  Uiso   1.00
H1597  H     0.40014   0.59758   0.55068   0.00000  Uiso   1.00
H1598  H     0.38708   0.59849   0.49985   0.00000  Uiso   1.00
H1599  H     0.42944   0.88277   0.79195   0.00000  Uiso   1.00
H1600  H     0.44941   0.86536   0.55528   0.00000  Uiso   1.00
H1601  H     0.46109   0.87612   0.50627   0.00000  Uiso   1.00
H1602  H     0.00565   0.92388   0.53287   0.00000  Uiso   1.00
H1603  H     0.45789   0.93285   0.53982   0.00000  Uiso   1.00
H1604  H     0.46108   0.91260   0.60817   0.00000  Uiso   1.00
H1605  H     0.49542   0.94663   0.59901   0.00000  Uiso   1.00
H1606  H     0.00839   0.89922   0.60212   0.00000  Uiso   1.00
H1607  H     0.35298   0.91576   0.44383   0.00000  Uiso   1.00
H1608  H     0.31927   0.91874   0.48152   0.00000  Uiso   1.00
H1609  H     0.40248   0.92706   0.49172   0.00000  Uiso   1.00
H1610  H     0.38143   0.57177   0.20574   0.00000  Uiso   1.00
H1611  H     0.36897   0.92924   0.53022   0.00000  Uiso   1.00
H1612  H     0.34748   0.86552   0.51099   0.00000  Uiso   1.00
H1613  H     0.39273   0.86785   0.53004   0.00000  Uiso   1.00
H1614  H     0.38618   0.86321   0.47820   0.00000  Uiso   1.00
H1615  H     0.14780   0.91467   0.55573   0.00000  Uiso   1.00
H1616  H     0.18290   0.91836   0.51954   0.00000  Uiso   1.00
H1617  H     0.10005   0.92466   0.50578   0.00000  Uiso   1.00
H1618  H     0.13485   0.92834   0.46872   0.00000  Uiso   1.00
H1619  H     0.15764   0.86500   0.48846   0.00000  Uiso   1.00
H1620  H     0.11338   0.86633   0.46687   0.00000  Uiso   1.00
H1621  H     0.11512   0.93174   0.78808   0.00000  Uiso   1.00
H1622  H     0.11747   0.86117   0.51898   0.00000  Uiso   1.00
H1623  H     0.05578   0.86236   0.44534   0.00000  Uiso   1.00
H1624  H     0.04311   0.87618   0.49314   0.00000  Uiso   1.00
H1625  H     0.00160   0.92426   0.46307   0.00000  Uiso   1.00
H1626  H     0.04968   0.93065   0.45542   0.00000  Uiso   1.00
H1627  H     0.04544   0.90722   0.38856   0.00000  Uiso   1.00
H1628  H     0.01215   0.94268   0.39560   0.00000  Uiso   1.00
H1629  H     0.49777   0.89564   0.39546   0.00000  Uiso   1.00
H1630  H     0.06724   0.63506   0.54644   0.00000  Uiso   1.00
H1631  H     0.06761   0.67259   0.51321   0.00000  Uiso   1.00
H1632  H     0.43121   0.88438   0.21084   0.00000  Uiso   1.00
H1633  H     0.03838   0.59507   0.49583   0.00000  Uiso   1.00
H1634  H     0.03964   0.63266   0.46186   0.00000  Uiso   1.00
H1635  H     0.10758   0.63661   0.46917   0.00000  Uiso   1.00
H1636  H     0.09185   0.59395   0.44961   0.00000  Uiso   1.00
H1637  H     0.10605   0.59651   0.50003   0.00000  Uiso   1.00
H1638  H     0.13433   0.54571   0.45676   0.00000  Uiso   1.00
H1639  H     0.12893   0.52529   0.50387   0.00000  Uiso   1.00
H1640  H     0.08089   0.98410   0.47811   0.00000  Uiso   1.00
H1641  H     0.06956   0.53152   0.47373   0.00000  Uiso   1.00
H1642  H     0.08871   0.53056   0.40330   0.00000  Uiso   1.00
H1643  H     0.06705   0.61389   0.78545   0.00000  Uiso   1.00
H1644  H     0.05261   0.99863   0.41376   0.00000  Uiso   1.00
H1645  H     0.09859   0.98222   0.40758   0.00000  Uiso   1.00
H1646  H     0.36442   0.54566   0.54374   0.00000  Uiso   1.00
H1647  H     0.37208   0.52502   0.49708   0.00000  Uiso   1.00
H1648  H     0.42014   0.98526   0.52515   0.00000  Uiso   1.00
H1649  H     0.43007   0.53304   0.52980   0.00000  Uiso   1.00
H1650  H     0.40908   0.53188   0.59927   0.00000  Uiso   1.00
H1651  H     0.44554   0.99990   0.59047   0.00000  Uiso   1.00
H1652  H     0.39942   0.98350   0.59499   0.00000  Uiso   1.00
H1653  H     0.23984   0.87032   0.94230   0.00000  Uiso   1.00
H1654  H     0.11403   0.56708   0.78564   0.00000  Uiso   1.00
H1655  H     0.22857   0.89103   0.98797   0.00000  Uiso   1.00
H1656  H     0.29195   0.83644   0.97615   0.00000  Uiso   1.00
H1657  H     0.27401   0.85304   0.02168   0.00000  Uiso   1.00
H1658  H     0.21361   0.82421   0.00664   0.00000  Uiso   1.00
H1659  H     0.25035   0.79158   0.00916   0.00000  Uiso   1.00
H1660  H     0.23303   0.80555   0.96235   0.00000  Uiso   1.00
H1661  H     0.14964   0.56448   0.03254   0.00000  Uiso   1.00
H1662  H     0.16205   0.59736   0.99592   0.00000  Uiso   1.00
H1663  H     0.14948   0.61688   0.08197   0.00000  Uiso   1.00
H1664  H     0.15837   0.64782   0.04254   0.00000  Uiso   1.00
O1665  O     0.25000   0.50000   0.25000   0.00000  Uiso   1.00
O1666  O     0.25000   0.96964   0.66245   0.00000  Uiso   1.00
O1667  O     0.46963   0.75000   0.33755   0.00000  Uiso   1.00
O1668  O     0.03036   0.75000   0.66245   0.00000  Uiso   1.00
O1669  O     0.00000   0.71964   0.83755   0.00000  Uiso   1.00
O1670  O     0.00000   0.78037   0.16245   0.00000  Uiso   1.00
O1671  O     0.28036   0.50000   0.83755   0.00000  Uiso   1.00
O1672  O     0.21963   0.50000   0.16245   0.00000  Uiso   1.00
O1673  O     0.00000   0.78037   0.83755   0.00000  Uiso   1.00
O1674  O     0.00000   0.71964   0.16245   0.00000  Uiso   1.00
O1675  O     0.21963   0.50000   0.83755   0.00000  Uiso   1.00
O1676  O     0.25000   0.50000   0.75000   0.00000  Uiso   1.00
O1677  O     0.28036   0.50000   0.16245   0.00000  Uiso   1.00
O1678  O     0.20724   0.57308   0.27302   0.00000  Uiso   1.00
O1679  O     0.29275   0.92693   0.72698   0.00000  Uiso   1.00
O1680  O     0.42692   0.70725   0.27302   0.00000  Uiso   1.00
O1681  O     0.07307   0.79276   0.72698   0.00000  Uiso   1.00
O1682  O     0.29275   0.92693   0.27302   0.00000  Uiso   1.00
O1683  O     0.20724   0.57308   0.72698   0.00000  Uiso   1.00
O1684  O     0.07307   0.79276   0.27302   0.00000  Uiso   1.00
O1685  O     0.42692   0.70725   0.72698   0.00000  Uiso   1.00
O1686  O     0.20724   0.92693   0.72698   0.00000  Uiso   1.00
O1687  O     0.00000   0.75000   0.25000   0.00000  Uiso   1.00
O1688  O     0.29275   0.57308   0.27302   0.00000  Uiso   1.00
O1689  O     0.42692   0.79276   0.72698   0.00000  Uiso   1.00
O1690  O     0.07307   0.70725   0.27302   0.00000  Uiso   1.00
O1691  O     0.29275   0.57308   0.72698   0.00000  Uiso   1.00
O1692  O     0.20724   0.92693   0.27302   0.00000  Uiso   1.00
O1693  O     0.07307   0.70725   0.72698   0.00000  Uiso   1.00
O1694  O     0.42692   0.79276   0.27302   0.00000  Uiso   1.00
O1695  O     0.45724   0.82308   0.77302   0.00000  Uiso   1.00
O1696  O     0.04275   0.67693   0.22698   0.00000  Uiso   1.00
O1697  O     0.17692   0.95725   0.77302   0.00000  Uiso   1.00
O1698  O     0.00000   0.75000   0.75000   0.00000  Uiso   1.00
O1699  O     0.32307   0.54276   0.22698   0.00000  Uiso   1.00
O1700  O     0.04275   0.67693   0.77302   0.00000  Uiso   1.00
O1701  O     0.45724   0.82308   0.22698   0.00000  Uiso   1.00
O1702  O     0.32307   0.54276   0.77302   0.00000  Uiso   1.00
O1703  O     0.17692   0.95725   0.22698   0.00000  Uiso   1.00
O1704  O     0.45724   0.67693   0.22698   0.00000  Uiso   1.00
O1705  O     0.04275   0.82308   0.77302   0.00000  Uiso   1.00
O1706  O     0.17692   0.54276   0.22698   0.00000  Uiso   1.00
O1707  O     0.32307   0.95725   0.77302   0.00000  Uiso   1.00
O1708  O     0.04275   0.82308   0.22698   0.00000  Uiso   1.00
O1709  O     0.25000   0.96964   0.33755   0.00000  Uiso   1.00
O1710  O     0.45724   0.67693   0.77302   0.00000  Uiso   1.00
O1711  O     0.32307   0.95725   0.22698   0.00000  Uiso   1.00
O1712  O     0.17692   0.54276   0.77302   0.00000  Uiso   1.00
O1713  O     0.47713   0.65571   0.46518   0.00000  Uiso   1.00
O1714  O     0.00293   0.85323   0.54105   0.00000  Uiso   1.00
O1715  O     0.34689   0.96783   0.46507   0.00000  Uiso   1.00
O1716  O     0.15372   0.96686   0.53470   0.00000  Uiso   1.00
O1717  O     0.00147   0.85305   0.45853   0.00000  Uiso   1.00
O1718  O     0.01601   0.65445   0.53437   0.00000  Uiso   1.00
O1719  O     0.15113   0.99193   0.45916   0.00000  Uiso   1.00
O1720  O     0.25000   0.53037   0.66245   0.00000  Uiso   1.00
O1721  O     0.34904   0.99151   0.54106   0.00000  Uiso   1.00
O1722  O     0.27990   0.90461   0.96181   0.00000  Uiso   1.00
O1723  O     0.20122   0.58769   0.03929   0.00000  Uiso   1.00
O1724  O     0.09836   0.76800   0.96265   0.00000  Uiso   1.00
O1725  O     0.41180   0.69892   0.03863   0.00000  Uiso   1.00
O1726  O     0.21886   0.59557   0.96123   0.00000  Uiso   1.00
O1727  O     0.29963   0.91351   0.03897   0.00000  Uiso   1.00
O1728  O     0.40596   0.71501   0.95921   0.00000  Uiso   1.00
O1729  O     0.09125   0.78288   0.04279   0.00000  Uiso   1.00
O1730  O     0.01611   0.81639   0.39688   0.00000  Uiso   1.00
O1731  O     0.03036   0.75000   0.33755   0.00000  Uiso   1.00
O1732  O     0.01204   0.68671   0.60056   0.00000  Uiso   1.00
O1733  O     0.18632   0.51193   0.39873   0.00000  Uiso   1.00
O1734  O     0.31371   0.51254   0.60122   0.00000  Uiso   1.00
O1735  O     0.48113   0.68853   0.39919   0.00000  Uiso   1.00
O1736  O     0.48975   0.81753   0.60327   0.00000  Uiso   1.00
O1737  O     0.31497   0.97924   0.39815   0.00000  Uiso   1.00
O1738  O     0.18529   0.97880   0.60176   0.00000  Uiso   1.00
O1739  O     0.23626   0.56517   0.89761   0.00000  Uiso   1.00
O1740  O     0.29395   0.95090   0.10164   0.00000  Uiso   1.00
O1741  O     0.43468   0.74052   0.89809   0.00000  Uiso   1.00
O1742  O     0.46963   0.75000   0.66245   0.00000  Uiso   1.00
O1743  O     0.04304   0.79856   0.09720   0.00000  Uiso   1.00
O1744  O     0.26431   0.93513   0.89786   0.00000  Uiso   1.00
O1745  O     0.20516   0.54885   0.10160   0.00000  Uiso   1.00
O1746  O     0.06642   0.75751   0.89817   0.00000  Uiso   1.00
O1747  O     0.44764   0.70703   0.10262   0.00000  Uiso   1.00
O1748  O     0.25000   0.53037   0.33755   0.00000  Uiso   1.00
Zn1749 Zn    0.20659   0.50000   0.21735   0.00000  Uiso   1.00
Zn1750 Zn    0.04340   0.75000   0.28265   0.00000  Uiso   1.00
Zn1751 Zn    0.25000   0.95660   0.71735   0.00000  Uiso   1.00
Zn1752 Zn    0.25000   0.54341   0.28265   0.00000  Uiso   1.00
Zn1753 Zn    0.04340   0.75000   0.71735   0.00000  Uiso   1.00
Zn1754 Zn    0.45659   0.75000   0.28265   0.00000  Uiso   1.00
Zn1755 Zn    0.25000   0.54341   0.71735   0.00000  Uiso   1.00
Zn1756 Zn    0.25000   0.95660   0.28265   0.00000  Uiso   1.00
Zn1757 Zn    0.29340   0.50000   0.78265   0.00000  Uiso   1.00
Zn1758 Zn    0.00000   0.70660   0.21735   0.00000  Uiso   1.00
Zn1759 Zn    0.00000   0.79341   0.78265   0.00000  Uiso   1.00
Zn1760 Zn    0.29340   0.50000   0.21735   0.00000  Uiso   1.00
Zn1761 Zn    0.20659   0.50000   0.78265   0.00000  Uiso   1.00
Zn1762 Zn    0.00000   0.79341   0.21735   0.00000  Uiso   1.00
Zn1763 Zn    0.00000   0.70660   0.78265   0.00000  Uiso   1.00
Zn1764 Zn    0.45659   0.75000   0.71735   0.00000  Uiso   1.00
C1765  C     0.50670   0.78522   0.41768   0.00000  Uiso   1.00
C1766  C     0.77206   0.97514   0.08118   0.00000  Uiso   1.00
C1767  C     0.71681   0.98819   0.54070   0.00000  Uiso   1.00
C1768  C     0.50273   0.78694   0.45869   0.00000  Uiso   1.00
C1769  C     0.50472   0.72005   0.54041   0.00000  Uiso   1.00
C1770  C     0.71712   0.99734   0.45901   0.00000  Uiso   1.00
C1771  C     0.78311   0.99732   0.54103   0.00000  Uiso   1.00
C1772  C     0.76029   0.96823   0.95871   0.00000  Uiso   1.00
C1773  C     0.73202   0.52874   0.04050   0.00000  Uiso   1.00
C1774  C     0.53332   0.75458   0.95914   0.00000  Uiso   1.00
C1775  C     0.97065   0.72946   0.04045   0.00000  Uiso   1.00
C1776  C     0.73927   0.53218   0.95863   0.00000  Uiso   1.00
C1777  C     0.96754   0.74318   0.91799   0.00000  Uiso   1.00
C1778  C     0.76831   0.97211   0.04043   0.00000  Uiso   1.00
C1779  C     0.96836   0.73722   0.95854   0.00000  Uiso   1.00
C1780  C     0.52856   0.76288   0.04038   0.00000  Uiso   1.00
C1781  C     0.59810   0.84816   0.24998   0.00000  Uiso   1.00
C1782  C     0.90193   0.65179   0.74992   0.00000  Uiso   1.00
C1783  C     0.65184   0.59809   0.25007   0.00000  Uiso   1.00
C1784  C     0.84809   0.90182   0.75004   0.00000  Uiso   1.00
C1785  C     0.90177   0.65195   0.24977   0.00000  Uiso   1.00
C1786  C     0.59822   0.84804   0.75022   0.00000  Uiso   1.00
C1787  C     0.84801   0.90173   0.24968   0.00000  Uiso   1.00
C1788  C     0.52320   0.77078   0.07995   0.00000  Uiso   1.00
C1789  C     0.65193   0.59820   0.75014   0.00000  Uiso   1.00
C1790  C     0.59823   0.65196   0.75021   0.00000  Uiso   1.00
C1791  C     0.90182   0.84807   0.24980   0.00000  Uiso   1.00
C1792  C     0.65200   0.90171   0.75034   0.00000  Uiso   1.00
C1793  C     0.84809   0.59819   0.24983   0.00000  Uiso   1.00
C1794  C     0.90183   0.84809   0.75012   0.00000  Uiso   1.00
C1795  C     0.59808   0.65181   0.25003   0.00000  Uiso   1.00
C1796  C     0.84821   0.59805   0.74981   0.00000  Uiso   1.00
C1797  C     0.65188   0.90184   0.25000   0.00000  Uiso   1.00
C1798  C     0.99882   0.75384   0.47951   0.00000  Uiso   1.00
C1799  C     0.75694   0.96734   0.91784   0.00000  Uiso   1.00
C1800  C     0.50071   0.75377   0.52049   0.00000  Uiso   1.00
C1801  C     0.75029   0.99357   0.47951   0.00000  Uiso   1.00
C1802  C     0.74999   0.99350   0.52050   0.00000  Uiso   1.00
C1803  C     0.74988   0.50028   0.97904   0.00000  Uiso   1.00
C1804  C     0.75011   0.50040   0.02004   0.00000  Uiso   1.00
C1805  C     0.50064   0.74563   0.97913   0.00000  Uiso   1.00
C1806  C     0.50005   0.74566   0.01998   0.00000  Uiso   1.00
C1807  C     0.94081   0.64990   0.47826   0.00000  Uiso   1.00
C1808  C     0.93945   0.62348   0.51284   0.00000  Uiso   1.00
C1809  C     0.90022   0.61418   0.52365   0.00000  Uiso   1.00
C1810  C     0.72812   0.52549   0.08124   0.00000  Uiso   1.00
C1811  C     0.97164   0.87543   0.53652   0.00000  Uiso   1.00
C1812  C     0.98072   0.91466   0.54840   0.00000  Uiso   1.00
C1813  C     0.98679   0.91831   0.59218   0.00000  Uiso   1.00
C1814  C     0.84630   0.92947   0.47170   0.00000  Uiso   1.00
C1815  C     0.87512   0.91754   0.50123   0.00000  Uiso   1.00
C1816  C     0.87540   0.87598   0.50521   0.00000  Uiso   1.00
C1817  C     0.65530   0.92853   0.52816   0.00000  Uiso   1.00
C1818  C     0.62800   0.91610   0.49729   0.00000  Uiso   1.00
C1819  C     0.62918   0.87460   0.49279   0.00000  Uiso   1.00
C1820  C     0.53343   0.87425   0.46264   0.00000  Uiso   1.00
C1821  C     0.53376   0.75275   0.91810   0.00000  Uiso   1.00
C1822  C     0.52605   0.91307   0.44813   0.00000  Uiso   1.00
C1823  C     0.51997   0.91453   0.40420   0.00000  Uiso   1.00
C1824  C     0.55224   0.64747   0.52169   0.00000  Uiso   1.00
C1825  C     0.55305   0.62050   0.48765   0.00000  Uiso   1.00
C1826  C     0.59214   0.61133   0.47606   0.00000  Uiso   1.00
C1827  C     0.62743   0.51998   0.47198   0.00000  Uiso   1.00
C1828  C     0.58799   0.50977   0.46272   0.00000  Uiso   1.00
C1829  C     0.58175   0.50502   0.41908   0.00000  Uiso   1.00
C1830  C     0.87253   0.52003   0.52908   0.00000  Uiso   1.00
C1831  C     0.91183   0.51081   0.54009   0.00000  Uiso   1.00
C1832  C     0.97281   0.72732   0.08157   0.00000  Uiso   1.00
C1833  C     0.91659   0.50626   0.58397   0.00000  Uiso   1.00
C1834  C     0.75154   0.87949   0.97040   0.00000  Uiso   1.00
C1835  C     0.76690   0.84592   0.99128   0.00000  Uiso   1.00
C1836  C     0.73916   0.81492   0.99236   0.00000  Uiso   1.00
C1837  C     0.66436   0.59058   0.02734   0.00000  Uiso   1.00
C1838  C     0.64572   0.62124   0.05024   0.00000  Uiso   1.00
C1839  C     0.60502   0.62314   0.04130   0.00000  Uiso   1.00
C1840  C     0.62264   0.74010   0.97480   0.00000  Uiso   1.00
C1841  C     0.66192   0.75199   0.96705   0.00000  Uiso   1.00
C1842  C     0.67061   0.75355   0.92361   0.00000  Uiso   1.00
C1843  C     0.99904   0.75221   0.39811   0.00000  Uiso   1.00
C1844  C     0.90814   0.66217   0.02636   0.00000  Uiso   1.00
C1845  C     0.87352   0.64615   0.04440   0.00000  Uiso   1.00
C1846  C     0.86758   0.60669   0.03164   0.00000  Uiso   1.00
C1847  C     0.74603   0.62184   0.97012   0.00000  Uiso   1.00
C1848  C     0.72825   0.65695   0.98507   0.00000  Uiso   1.00
C1849  C     0.75561   0.68830   0.98618   0.00000  Uiso   1.00
C1850  C     0.83611   0.91040   0.02573   0.00000  Uiso   1.00
C1851  C     0.85429   0.87805   0.04616   0.00000  Uiso   1.00
C1852  C     0.89449   0.87505   0.03516   0.00000  Uiso   1.00
C1853  C     0.87775   0.73954   0.96934   0.00000  Uiso   1.00
C1854  C     0.50096   0.75205   0.60191   0.00000  Uiso   1.00
C1855  C     0.84457   0.73162   0.94390   0.00000  Uiso   1.00
C1856  C     0.81497   0.76039   0.94963   0.00000  Uiso   1.00
C1857  C     0.60319   0.81841   0.03277   0.00000  Uiso   1.00
C1858  C     0.63855   0.82686   0.05448   0.00000  Uiso   1.00
C1859  C     0.63249   0.82971   0.09839   0.00000  Uiso   1.00
C1860  C     0.55301   0.81631   0.38346   0.00000  Uiso   1.00
C1861  C     0.58111   0.79538   0.40866   0.00000  Uiso   1.00
C1862  C     0.61997   0.80287   0.39493   0.00000  Uiso   1.00
C1863  C     0.54698   0.68168   0.61800   0.00000  Uiso   1.00
C1864  C     0.57926   0.70427   0.60149   0.00000  Uiso   1.00
C1865  C     0.75117   0.99860   0.39828   0.00000  Uiso   1.00
C1866  C     0.61532   0.69204   0.61924   0.00000  Uiso   1.00
C1867  C     0.68258   0.54965   0.38919   0.00000  Uiso   1.00
C1868  C     0.69967   0.57742   0.41781   0.00000  Uiso   1.00
C1869  C     0.68784   0.61631   0.40806   0.00000  Uiso   1.00
C1870  C     0.81678   0.55030   0.61080   0.00000  Uiso   1.00
C1871  C     0.79904   0.57785   0.58233   0.00000  Uiso   1.00
C1872  C     0.80963   0.61696   0.59256   0.00000  Uiso   1.00
C1873  C     0.94483   0.68668   0.38429   0.00000  Uiso   1.00
C1874  C     0.91600   0.71313   0.40165   0.00000  Uiso   1.00
C1875  C     0.87805   0.70490   0.38592   0.00000  Uiso   1.00
C1876  C     0.50803   0.71976   0.58115   0.00000  Uiso   1.00
C1877  C     0.74897   0.99856   0.60172   0.00000  Uiso   1.00
C1878  C     0.95364   0.82018   0.61861   0.00000  Uiso   1.00
C1879  C     0.92301   0.80125   0.59504   0.00000  Uiso   1.00
C1880  C     0.88540   0.81254   0.60977   0.00000  Uiso   1.00
C1881  C     0.81441   0.94487   0.37845   0.00000  Uiso   1.00
C1882  C     0.78715   0.91539   0.39327   0.00000  Uiso   1.00
C1883  C     0.79103   0.87999   0.37036   0.00000  Uiso   1.00
C1884  C     0.68591   0.94454   0.62172   0.00000  Uiso   1.00
C1885  C     0.71351   0.91508   0.60752   0.00000  Uiso   1.00
C1886  C     0.71006   0.88007   0.63122   0.00000  Uiso   1.00
C1887  C     0.76786   0.57921   0.87853   0.00000  Uiso   1.00
C1888  C     0.74984   0.50009   0.89776   0.00000  Uiso   1.00
C1889  C     0.80449   0.57399   0.90022   0.00000  Uiso   1.00
C1890  C     0.83432   0.59789   0.88259   0.00000  Uiso   1.00
C1891  C     0.83006   0.96413   0.10871   0.00000  Uiso   1.00
C1892  C     0.84216   0.50004   0.08853   0.00000  Uiso   1.00
C1893  C     0.88175   0.50894   0.09816   0.00000  Uiso   1.00
C1894  C     0.92296   0.77413   0.88123   0.00000  Uiso   1.00
C1895  C     0.93243   0.80936   0.90397   0.00000  Uiso   1.00
C1896  C     0.91142   0.84209   0.88810   0.00000  Uiso   1.00
C1897  C     0.52275   0.83186   0.09791   0.00000  Uiso   1.00
C1898  C     0.50418   0.84300   0.05922   0.00000  Uiso   1.00
C1899  C     0.75009   0.50029   0.10151   0.00000  Uiso   1.00
C1900  C     0.99106   0.88250   0.06065   0.00000  Uiso   1.00
C1901  C     0.73379   0.92093   0.87717   0.00000  Uiso   1.00
C1902  C     0.69614   0.92576   0.89695   0.00000  Uiso   1.00
C1903  C     0.66705   0.90306   0.87648   0.00000  Uiso   1.00
C1904  C     0.66944   0.53425   0.10822   0.00000  Uiso   1.00
C1905  C     0.65862   0.99855   0.08691   0.00000  Uiso   1.00
C1906  C     0.61924   0.98811   0.09596   0.00000  Uiso   1.00
C1907  C     0.57799   0.72594   0.87723   0.00000  Uiso   1.00
C1908  C     0.56766   0.68838   0.89492   0.00000  Uiso   1.00
C1909  C     0.58987   0.65769   0.87645   0.00000  Uiso   1.00
C1910  C     0.50048   0.74935   0.89796   0.00000  Uiso   1.00
C1911  C     0.95945   0.67068   0.11129   0.00000  Uiso   1.00
C1912  C     0.99493   0.65650   0.09178   0.00000  Uiso   1.00
C1913  C     0.50239   0.61692   0.10308   0.00000  Uiso   1.00
C1914  C     0.99805   0.74980   0.10132   0.00000  Uiso   1.00
C1915  C     0.99035   0.68781   0.48109   0.00000  Uiso   1.00
C1916  C     0.99975   0.82070   0.52053   0.00000  Uiso   1.00
C1917  C     0.81588   0.98344   0.48120   0.00000  Uiso   1.00
C1918  C     0.68449   0.98311   0.51879   0.00000  Uiso   1.00
C1919  C     0.50381   0.82056   0.47928   0.00000  Uiso   1.00
C1920  C     0.71829   0.50409   0.41863   0.00000  Uiso   1.00
C1921  C     0.50423   0.68730   0.51883   0.00000  Uiso   1.00
C1922  C     0.68378   0.99330   0.47930   0.00000  Uiso   1.00
C1923  C     0.81648   0.99326   0.52081   0.00000  Uiso   1.00
C1924  C     0.77331   0.93778   0.97995   0.00000  Uiso   1.00
C1925  C     0.71809   0.55911   0.01973   0.00000  Uiso   1.00
C1926  C     0.56483   0.76396   0.98093   0.00000  Uiso   1.00
C1927  C     0.94059   0.71558   0.01927   0.00000  Uiso   1.00
C1928  C     0.72631   0.56276   0.97979   0.00000  Uiso   1.00
C1929  C     0.78219   0.94177   0.01960   0.00000  Uiso   1.00
C1930  C     0.93755   0.72393   0.97914   0.00000  Uiso   1.00
C1931  C     0.78185   0.50419   0.58138   0.00000  Uiso   1.00
C1932  C     0.56108   0.77268   0.02091   0.00000  Uiso   1.00
C1933  C     0.75074   0.99982   0.35587   0.00000  Uiso   1.00
C1934  C     0.74931   0.99983   0.64413   0.00000  Uiso   1.00
C1935  C     0.99986   0.75082   0.35580   0.00000  Uiso   1.00
C1936  C     0.50015   0.75072   0.64421   0.00000  Uiso   1.00
C1937  C     0.50025   0.74993   0.85576   0.00000  Uiso   1.00
C1938  C     0.99926   0.75002   0.14398   0.00000  Uiso   1.00
C1939  C     0.74996   0.50012   0.85568   0.00000  Uiso   1.00
C1940  C     0.75002   0.50011   0.14406   0.00000  Uiso   1.00
C1941  C     0.67993   0.57006   0.25003   0.00000  Uiso   1.00
C1942  C     0.98886   0.72073   0.41882   0.00000  Uiso   1.00
C1943  C     0.82005   0.92992   0.75000   0.00000  Uiso   1.00
C1944  C     0.92989   0.67995   0.24994   0.00000  Uiso   1.00
C1945  C     0.57009   0.82005   0.75004   0.00000  Uiso   1.00
C1946  C     0.82003   0.92988   0.24992   0.00000  Uiso   1.00
C1947  C     0.67994   0.57009   0.75003   0.00000  Uiso   1.00
C1948  C     0.57005   0.82009   0.24999   0.00000  Uiso   1.00
C1949  C     0.92995   0.67991   0.75000   0.00000  Uiso   1.00
C1950  C     0.67997   0.92987   0.75010   0.00000  Uiso   1.00
C1951  C     0.82007   0.57008   0.24997   0.00000  Uiso   1.00
C1952  C     0.92993   0.82005   0.75005   0.00000  Uiso   1.00
C1953  C     0.99600   0.78565   0.58238   0.00000  Uiso   1.00
C1954  C     0.57005   0.67991   0.25000   0.00000  Uiso   1.00
C1955  C     0.82008   0.57006   0.74994   0.00000  Uiso   1.00
C1956  C     0.67994   0.92991   0.25002   0.00000  Uiso   1.00
C1957  C     0.57011   0.67996   0.75007   0.00000  Uiso   1.00
C1958  C     0.92992   0.82007   0.24997   0.00000  Uiso   1.00
C1959  C     0.62349   0.90337   0.22278   0.00000  Uiso   1.00
C1960  C     0.87800   0.59514   0.77514   0.00000  Uiso   1.00
C1961  C     0.59679   0.62342   0.22272   0.00000  Uiso   1.00
C1962  C     0.90573   0.87908   0.77364   0.00000  Uiso   1.00
C1963  C     0.87834   0.59494   0.22506   0.00000  Uiso   1.00
C1964  C     0.78306   0.98731   0.41821   0.00000  Uiso   1.00
C1965  C     0.61977   0.90696   0.77160   0.00000  Uiso   1.00
C1966  C     0.90669   0.87997   0.22782   0.00000  Uiso   1.00
C1967  C     0.59235   0.61906   0.77010   0.00000  Uiso   1.00
C1968  C     0.61913   0.59235   0.77018   0.00000  Uiso   1.00
C1969  C     0.87993   0.90670   0.22780   0.00000  Uiso   1.00
C1970  C     0.59304   0.88022   0.77161   0.00000  Uiso   1.00
C1971  C     0.90507   0.62169   0.22504   0.00000  Uiso   1.00
C1972  C     0.87896   0.90579   0.77365   0.00000  Uiso   1.00
C1973  C     0.62355   0.59670   0.22273   0.00000  Uiso   1.00
C1974  C     0.90468   0.62191   0.77525   0.00000  Uiso   1.00
C1975  C     0.71723   0.98691   0.58177   0.00000  Uiso   1.00
C1976  C     0.59673   0.87665   0.22276   0.00000  Uiso   1.00
C1977  C     0.87225   0.65459   0.72443   0.00000  Uiso   1.00
C1978  C     0.62649   0.84664   0.27718   0.00000  Uiso   1.00
C1979  C     0.84419   0.87083   0.72652   0.00000  Uiso   1.00
C1980  C     0.65309   0.62643   0.27743   0.00000  Uiso   1.00
C1981  C     0.63051   0.84271   0.72913   0.00000  Uiso   1.00
C1982  C     0.87141   0.65529   0.27433   0.00000  Uiso   1.00
C1983  C     0.65783   0.63111   0.73029   0.00000  Uiso   1.00
C1984  C     0.84300   0.86964   0.27126   0.00000  Uiso   1.00
C1985  C     0.86983   0.84302   0.27148   0.00000  Uiso   1.00
C1986  C     0.74266   0.53286   0.91775   0.00000  Uiso   1.00
C1987  C     0.63117   0.65794   0.73051   0.00000  Uiso   1.00
C1988  C     0.84474   0.62852   0.27443   0.00000  Uiso   1.00
C1989  C     0.65733   0.86934   0.72936   0.00000  Uiso   1.00
C1990  C     0.62636   0.65317   0.27739   0.00000  Uiso   1.00
C1991  C     0.87089   0.84406   0.72664   0.00000  Uiso   1.00
C1992  C     0.65326   0.87333   0.27720   0.00000  Uiso   1.00
C1993  C     0.84553   0.62785   0.72437   0.00000  Uiso   1.00
C1994  C     0.99226   0.72057   0.45956   0.00000  Uiso   1.00
C1995  C     0.99931   0.78708   0.54128   0.00000  Uiso   1.00
C1996  C     0.78352   0.98849   0.45929   0.00000  Uiso   1.00
H1997  H     0.62197   0.92509   0.20143   0.00000  Uiso   1.00
H1998  H     0.88431   0.93124   0.21081   0.00000  Uiso   1.00
H1999  H     0.60064   0.62843   0.00979   0.00000  Uiso   1.00
H2000  H     0.59237   0.64569   0.05821   0.00000  Uiso   1.00
H2001  H     0.59149   0.59713   0.04953   0.00000  Uiso   1.00
H2002  H     0.61720   0.71456   0.95862   0.00000  Uiso   1.00
H2003  H     0.62048   0.73353   0.00636   0.00000  Uiso   1.00
H2004  H     0.66657   0.77926   0.98020   0.00000  Uiso   1.00
H2005  H     0.68074   0.73228   0.98115   0.00000  Uiso   1.00
H2006  H     0.66714   0.72615   0.91028   0.00000  Uiso   1.00
H2007  H     0.69935   0.76219   0.91936   0.00000  Uiso   1.00
H2008  H     0.65255   0.77350   0.90876   0.00000  Uiso   1.00
H2009  H     0.56828   0.88486   0.78812   0.00000  Uiso   1.00
H2010  H     0.93209   0.64587   0.03580   0.00000  Uiso   1.00
H2011  H     0.90584   0.65947   0.99428   0.00000  Uiso   1.00
H2012  H     0.87544   0.64717   0.07666   0.00000  Uiso   1.00
H2013  H     0.84964   0.66277   0.03530   0.00000  Uiso   1.00
H2014  H     0.86371   0.60529   0.99960   0.00000  Uiso   1.00
H2015  H     0.84284   0.59557   0.04607   0.00000  Uiso   1.00
H2016  H     0.89136   0.58962   0.03993   0.00000  Uiso   1.00
H2017  H     0.76069   0.62849   0.94278   0.00000  Uiso   1.00
H2018  H     0.76689   0.61257   0.99168   0.00000  Uiso   1.00
H2019  H     0.70513   0.66467   0.96585   0.00000  Uiso   1.00
H2020  H     0.92825   0.61863   0.20571   0.00000  Uiso   1.00
H2021  H     0.71765   0.65247   0.01492   0.00000  Uiso   1.00
H2022  H     0.77956   0.68084   0.00427   0.00000  Uiso   1.00
H2023  H     0.74263   0.71294   0.99892   0.00000  Uiso   1.00
H2024  H     0.76484   0.69489   0.95620   0.00000  Uiso   1.00
H2025  H     0.85152   0.93580   0.03225   0.00000  Uiso   1.00
H2026  H     0.83781   0.90543   0.99389   0.00000  Uiso   1.00
H2027  H     0.85190   0.88118   0.07823   0.00000  Uiso   1.00
H2028  H     0.84024   0.85239   0.03775   0.00000  Uiso   1.00
H2029  H     0.89752   0.87082   0.00329   0.00000  Uiso   1.00
H2030  H     0.90693   0.85146   0.05054   0.00000  Uiso   1.00
H2031  H     0.88252   0.92953   0.79204   0.00000  Uiso   1.00
H2032  H     0.90918   0.90028   0.04377   0.00000  Uiso   1.00
H2033  H     0.88642   0.76826   0.96461   0.00000  Uiso   1.00
H2034  H     0.86948   0.73625   0.00029   0.00000  Uiso   1.00
H2035  H     0.85277   0.73124   0.91276   0.00000  Uiso   1.00
H2036  H     0.83353   0.70426   0.95143   0.00000  Uiso   1.00
H2037  H     0.80611   0.76103   0.98055   0.00000  Uiso   1.00
H2038  H     0.79109   0.75381   0.93111   0.00000  Uiso   1.00
H2039  H     0.82539   0.78771   0.94108   0.00000  Uiso   1.00
H2040  H     0.58263   0.83918   0.04100   0.00000  Uiso   1.00
H2041  H     0.60884   0.82132   0.00117   0.00000  Uiso   1.00
H2042  H     0.62214   0.57509   0.20126   0.00000  Uiso   1.00
H2043  H     0.65889   0.80508   0.04846   0.00000  Uiso   1.00
H2044  H     0.64980   0.85317   0.04368   0.00000  Uiso   1.00
H2045  H     0.61284   0.85193   0.10510   0.00000  Uiso   1.00
H2046  H     0.65875   0.83598   0.11294   0.00000  Uiso   1.00
H2047  H     0.62192   0.80352   0.11019   0.00000  Uiso   1.00
H2048  H     0.56185   0.84518   0.38177   0.00000  Uiso   1.00
H2049  H     0.55434   0.80713   0.35287   0.00000  Uiso   1.00
H2050  H     0.57868   0.80360   0.43966   0.00000  Uiso   1.00
H2051  H     0.57613   0.76552   0.40663   0.00000  Uiso   1.00
H2052  H     0.63948   0.78760   0.41350   0.00000  Uiso   1.00
H2053  H     0.92739   0.61918   0.79514   0.00000  Uiso   1.00
H2054  H     0.62347   0.79379   0.36430   0.00000  Uiso   1.00
H2055  H     0.62625   0.83246   0.39707   0.00000  Uiso   1.00
H2056  H     0.55389   0.65233   0.61465   0.00000  Uiso   1.00
H2057  H     0.54466   0.68595   0.64987   0.00000  Uiso   1.00
H2058  H     0.58103   0.70126   0.56952   0.00000  Uiso   1.00
H2059  H     0.57559   0.73371   0.60800   0.00000  Uiso   1.00
H2060  H     0.62054   0.66282   0.61260   0.00000  Uiso   1.00
H2061  H     0.63794   0.70859   0.60696   0.00000  Uiso   1.00
H2062  H     0.61466   0.69597   0.65125   0.00000  Uiso   1.00
H2063  H     0.65287   0.55530   0.38768   0.00000  Uiso   1.00
H2064  H     0.57511   0.87827   0.20139   0.00000  Uiso   1.00
H2065  H     0.69283   0.55472   0.35935   0.00000  Uiso   1.00
H2066  H     0.69139   0.57119   0.44818   0.00000  Uiso   1.00
H2067  H     0.72989   0.57603   0.41594   0.00000  Uiso   1.00
H2068  H     0.70093   0.63570   0.42856   0.00000  Uiso   1.00
H2069  H     0.69619   0.62348   0.37790   0.00000  Uiso   1.00
H2070  H     0.65779   0.61905   0.41084   0.00000  Uiso   1.00
H2071  H     0.84637   0.55651   0.61214   0.00000  Uiso   1.00
H2072  H     0.80667   0.55512   0.64072   0.00000  Uiso   1.00
H2073  H     0.80769   0.57212   0.55197   0.00000  Uiso   1.00
H2074  H     0.76886   0.57562   0.58397   0.00000  Uiso   1.00
H2075  H     0.86963   0.67740   0.70454   0.00000  Uiso   1.00
H2076  H     0.79628   0.63616   0.57201   0.00000  Uiso   1.00
H2077  H     0.80067   0.62365   0.62264   0.00000  Uiso   1.00
H2078  H     0.83962   0.62054   0.59031   0.00000  Uiso   1.00
H2079  H     0.93512   0.65835   0.38916   0.00000  Uiso   1.00
H2080  H     0.94570   0.68973   0.35219   0.00000  Uiso   1.00
H2081  H     0.91529   0.71083   0.43376   0.00000  Uiso   1.00
H2082  H     0.92272   0.74183   0.39412   0.00000  Uiso   1.00
H2083  H     0.85792   0.72362   0.39954   0.00000  Uiso   1.00
H2084  H     0.87749   0.70913   0.35394   0.00000  Uiso   1.00
H2085  H     0.87015   0.67632   0.39274   0.00000  Uiso   1.00
H2086  H     0.62803   0.82490   0.29849   0.00000  Uiso   1.00
H2087  H     0.94704   0.84966   0.62047   0.00000  Uiso   1.00
H2088  H     0.95314   0.81108   0.64930   0.00000  Uiso   1.00
H2089  H     0.92514   0.80835   0.56370   0.00000  Uiso   1.00
H2090  H     0.92542   0.77114   0.59788   0.00000  Uiso   1.00
H2091  H     0.86407   0.79852   0.59245   0.00000  Uiso   1.00
H2092  H     0.88215   0.80471   0.64080   0.00000  Uiso   1.00
H2093  H     0.88163   0.84250   0.60670   0.00000  Uiso   1.00
H2094  H     0.84228   0.93330   0.38061   0.00000  Uiso   1.00
H2095  H     0.81085   0.94961   0.34685   0.00000  Uiso   1.00
H2096  H     0.79166   0.90939   0.42435   0.00000  Uiso   1.00
H2097  H     0.82051   0.86717   0.70815   0.00000  Uiso   1.00
H2098  H     0.75850   0.92457   0.39046   0.00000  Uiso   1.00
H2099  H     0.77324   0.85869   0.38338   0.00000  Uiso   1.00
H2100  H     0.78234   0.88447   0.33982   0.00000  Uiso   1.00
H2101  H     0.81968   0.87015   0.37094   0.00000  Uiso   1.00
H2102  H     0.65815   0.93276   0.61930   0.00000  Uiso   1.00
H2103  H     0.68910   0.94951   0.65333   0.00000  Uiso   1.00
H2104  H     0.70900   0.90841   0.57663   0.00000  Uiso   1.00
H2105  H     0.74208   0.92457   0.60999   0.00000  Uiso   1.00
H2106  H     0.72806   0.85872   0.61864   0.00000  Uiso   1.00
H2107  H     0.71874   0.88518   0.66164   0.00000  Uiso   1.00
H2108  H     0.88070   0.57226   0.79491   0.00000  Uiso   1.00
H2109  H     0.67463   0.62791   0.29891   0.00000  Uiso   1.00
H2110  H     0.68152   0.86995   0.63092   0.00000  Uiso   1.00
H2111  H     0.76324   0.60897   0.87473   0.00000  Uiso   1.00
H2112  H     0.76988   0.56827   0.84852   0.00000  Uiso   1.00
H2113  H     0.80150   0.58089   0.93150   0.00000  Uiso   1.00
H2114  H     0.81331   0.54504   0.89810   0.00000  Uiso   1.00
H2115  H     0.86052   0.59262   0.89773   0.00000  Uiso   1.00
H2116  H     0.83776   0.59156   0.85119   0.00000  Uiso   1.00
H2117  H     0.82730   0.62722   0.88600   0.00000  Uiso   1.00
H2118  H     0.84941   0.94232   0.10023   0.00000  Uiso   1.00
H2119  H     0.83389   0.96697   0.14059   0.00000  Uiso   1.00
H2120  H     0.63520   0.81791   0.71270   0.00000  Uiso   1.00
H2121  H     0.83958   0.99747   0.05643   0.00000  Uiso   1.00
H2122  H     0.82489   0.52313   0.09856   0.00000  Uiso   1.00
H2123  H     0.88972   0.53483   0.08366   0.00000  Uiso   1.00
H2124  H     0.88517   0.51227   0.13010   0.00000  Uiso   1.00
H2125  H     0.90002   0.98682   0.08767   0.00000  Uiso   1.00
H2126  H     0.89283   0.77257   0.87890   0.00000  Uiso   1.00
H2127  H     0.93278   0.77620   0.85077   0.00000  Uiso   1.00
H2128  H     0.92593   0.80615   0.93530   0.00000  Uiso   1.00
H2129  H     0.96202   0.81528   0.90127   0.00000  Uiso   1.00
H2130  H     0.91943   0.86710   0.90421   0.00000  Uiso   1.00
H2131  H     0.86816   0.67858   0.29336   0.00000  Uiso   1.00
H2132  H     0.91766   0.84606   0.85672   0.00000  Uiso   1.00
H2133  H     0.88162   0.83790   0.89183   0.00000  Uiso   1.00
H2134  H     0.54213   0.85377   0.10626   0.00000  Uiso   1.00
H2135  H     0.50168   0.83136   0.12102   0.00000  Uiso   1.00
H2136  H     0.52302   0.84000   0.03423   0.00000  Uiso   1.00
H2137  H     0.98016   0.82520   0.05391   0.00000  Uiso   1.00
H2138  H     0.97774   0.88964   0.03266   0.00000  Uiso   1.00
H2139  H     0.97107   0.88619   0.08467   0.00000  Uiso   1.00
H2140  H     0.51446   0.90126   0.06513   0.00000  Uiso   1.00
H2141  H     0.73876   0.89120   0.87364   0.00000  Uiso   1.00
H2142  H     0.68312   0.63628   0.71492   0.00000  Uiso   1.00
H2143  H     0.73321   0.93185   0.84707   0.00000  Uiso   1.00
H2144  H     0.69743   0.91743   0.92796   0.00000  Uiso   1.00
H2145  H     0.68766   0.95485   0.89578   0.00000  Uiso   1.00
H2146  H     0.64018   0.90776   0.89055   0.00000  Uiso   1.00
H2147  H     0.66514   0.91106   0.84535   0.00000  Uiso   1.00
H2148  H     0.67373   0.87354   0.87850   0.00000  Uiso   1.00
H2149  H     0.64942   0.55558   0.10030   0.00000  Uiso   1.00
H2150  H     0.66544   0.53047   0.13998   0.00000  Uiso   1.00
H2151  H     0.66141   0.50210   0.05492   0.00000  Uiso   1.00
H2152  H     0.67650   0.97573   0.09637   0.00000  Uiso   1.00
H2153  H     0.81829   0.86492   0.28768   0.00000  Uiso   1.00
H2154  H     0.61225   0.96242   0.08052   0.00000  Uiso   1.00
H2155  H     0.61564   0.98371   0.12774   0.00000  Uiso   1.00
H2156  H     0.60038   0.50996   0.08608   0.00000  Uiso   1.00
H2157  H     0.60815   0.72741   0.87547   0.00000  Uiso   1.00
H2158  H     0.56863   0.72761   0.84659   0.00000  Uiso   1.00
H2159  H     0.57219   0.68807   0.92678   0.00000  Uiso   1.00
H2160  H     0.53835   0.68267   0.88983   0.00000  Uiso   1.00
H2161  H     0.58096   0.63101   0.88851   0.00000  Uiso   1.00
H2162  H     0.58575   0.65746   0.84444   0.00000  Uiso   1.00
H2163  H     0.61932   0.66136   0.88281   0.00000  Uiso   1.00
H2164  H     0.86538   0.81844   0.28839   0.00000  Uiso   1.00
H2165  H     0.93693   0.65190   0.10357   0.00000  Uiso   1.00
H2166  H     0.96208   0.66794   0.14333   0.00000  Uiso   1.00
H2167  H     0.99262   0.65807   0.05959   0.00000  Uiso   1.00
H2168  H     0.51857   0.67327   0.10112   0.00000  Uiso   1.00
H2169  H     0.52795   0.60750   0.08889   0.00000  Uiso   1.00
H2170  H     0.50558   0.61449   0.13514   0.00000  Uiso   1.00
H2171  H     0.97966   0.59911   0.09338   0.00000  Uiso   1.00
H2172  H     0.63651   0.68342   0.71559   0.00000  Uiso   1.00
H2173  H     0.82153   0.63165   0.29370   0.00000  Uiso   1.00
H2174  H     0.68227   0.86440   0.71340   0.00000  Uiso   1.00
H2175  H     0.62780   0.67480   0.29883   0.00000  Uiso   1.00
H2176  H     0.57523   0.62191   0.20128   0.00000  Uiso   1.00
H2177  H     0.86720   0.82019   0.70851   0.00000  Uiso   1.00
H2178  H     0.67490   0.87168   0.29853   0.00000  Uiso   1.00
H2179  H     0.82283   0.63055   0.70444   0.00000  Uiso   1.00
H2180  H     0.92535   0.63750   0.45388   0.00000  Uiso   1.00
H2181  H     0.92618   0.67556   0.48628   0.00000  Uiso   1.00
H2182  H     0.95452   0.59803   0.50559   0.00000  Uiso   1.00
H2183  H     0.95210   0.63623   0.53872   0.00000  Uiso   1.00
H2184  H     0.88430   0.63946   0.52923   0.00000  Uiso   1.00
H2185  H     0.90014   0.59758   0.55068   0.00000  Uiso   1.00
H2186  H     0.88708   0.59849   0.49985   0.00000  Uiso   1.00
H2187  H     0.92944   0.88277   0.79195   0.00000  Uiso   1.00
H2188  H     0.94941   0.86536   0.55528   0.00000  Uiso   1.00
H2189  H     0.96109   0.87612   0.50627   0.00000  Uiso   1.00
H2190  H     0.50565   0.92388   0.53287   0.00000  Uiso   1.00
H2191  H     0.95789   0.93285   0.53982   0.00000  Uiso   1.00
H2192  H     0.96108   0.91260   0.60817   0.00000  Uiso   1.00
H2193  H     0.99542   0.94663   0.59901   0.00000  Uiso   1.00
H2194  H     0.50839   0.89922   0.60212   0.00000  Uiso   1.00
H2195  H     0.85298   0.91576   0.44383   0.00000  Uiso   1.00
H2196  H     0.81927   0.91874   0.48152   0.00000  Uiso   1.00
H2197  H     0.90248   0.92706   0.49172   0.00000  Uiso   1.00
H2198  H     0.88143   0.57177   0.20574   0.00000  Uiso   1.00
H2199  H     0.86897   0.92924   0.53022   0.00000  Uiso   1.00
H2200  H     0.84748   0.86552   0.51099   0.00000  Uiso   1.00
H2201  H     0.89273   0.86785   0.53004   0.00000  Uiso   1.00
H2202  H     0.88618   0.86321   0.47820   0.00000  Uiso   1.00
H2203  H     0.64780   0.91467   0.55573   0.00000  Uiso   1.00
H2204  H     0.68290   0.91836   0.51954   0.00000  Uiso   1.00
H2205  H     0.60005   0.92466   0.50578   0.00000  Uiso   1.00
H2206  H     0.63485   0.92834   0.46872   0.00000  Uiso   1.00
H2207  H     0.65764   0.86500   0.48846   0.00000  Uiso   1.00
H2208  H     0.61338   0.86633   0.46687   0.00000  Uiso   1.00
H2209  H     0.61512   0.93174   0.78808   0.00000  Uiso   1.00
H2210  H     0.61747   0.86117   0.51898   0.00000  Uiso   1.00
H2211  H     0.55578   0.86236   0.44534   0.00000  Uiso   1.00
H2212  H     0.54311   0.87618   0.49314   0.00000  Uiso   1.00
H2213  H     0.50160   0.92426   0.46307   0.00000  Uiso   1.00
H2214  H     0.54968   0.93065   0.45542   0.00000  Uiso   1.00
H2215  H     0.54544   0.90722   0.38856   0.00000  Uiso   1.00
H2216  H     0.51215   0.94268   0.39560   0.00000  Uiso   1.00
H2217  H     0.99777   0.89564   0.39546   0.00000  Uiso   1.00
H2218  H     0.56724   0.63506   0.54644   0.00000  Uiso   1.00
H2219  H     0.56761   0.67259   0.51321   0.00000  Uiso   1.00
H2220  H     0.93121   0.88438   0.21084   0.00000  Uiso   1.00
H2221  H     0.53838   0.59507   0.49583   0.00000  Uiso   1.00
H2222  H     0.53964   0.63266   0.46186   0.00000  Uiso   1.00
H2223  H     0.60758   0.63661   0.46917   0.00000  Uiso   1.00
H2224  H     0.59185   0.59395   0.44961   0.00000  Uiso   1.00
H2225  H     0.60605   0.59651   0.50003   0.00000  Uiso   1.00
H2226  H     0.63433   0.54571   0.45676   0.00000  Uiso   1.00
H2227  H     0.62893   0.52529   0.50387   0.00000  Uiso   1.00
H2228  H     0.58089   0.98410   0.47811   0.00000  Uiso   1.00
H2229  H     0.56956   0.53152   0.47373   0.00000  Uiso   1.00
H2230  H     0.58871   0.53056   0.40330   0.00000  Uiso   1.00
H2231  H     0.56705   0.61389   0.78545   0.00000  Uiso   1.00
H2232  H     0.55261   0.99863   0.41376   0.00000  Uiso   1.00
H2233  H     0.59859   0.98222   0.40758   0.00000  Uiso   1.00
H2234  H     0.86442   0.54566   0.54374   0.00000  Uiso   1.00
H2235  H     0.87208   0.52502   0.49708   0.00000  Uiso   1.00
H2236  H     0.92014   0.98526   0.52515   0.00000  Uiso   1.00
H2237  H     0.93007   0.53304   0.52980   0.00000  Uiso   1.00
H2238  H     0.90908   0.53188   0.59927   0.00000  Uiso   1.00
H2239  H     0.94554   0.99990   0.59047   0.00000  Uiso   1.00
H2240  H     0.89942   0.98350   0.59499   0.00000  Uiso   1.00
H2241  H     0.73984   0.87032   0.94230   0.00000  Uiso   1.00
H2242  H     0.61403   0.56708   0.78564   0.00000  Uiso   1.00
H2243  H     0.72857   0.89103   0.98797   0.00000  Uiso   1.00
H2244  H     0.79195   0.83644   0.97615   0.00000  Uiso   1.00
H2245  H     0.77401   0.85304   0.02168   0.00000  Uiso   1.00
H2246  H     0.71361   0.82421   0.00664   0.00000  Uiso   1.00
H2247  H     0.75035   0.79158   0.00916   0.00000  Uiso   1.00
H2248  H     0.73303   0.80555   0.96235   0.00000  Uiso   1.00
H2249  H     0.64964   0.56448   0.03254   0.00000  Uiso   1.00
H2250  H     0.66205   0.59736   0.99592   0.00000  Uiso   1.00
H2251  H     0.64948   0.61688   0.08197   0.00000  Uiso   1.00
H2252  H     0.65837   0.64782   0.04254   0.00000  Uiso   1.00
O2253  O     0.75000   0.50000   0.25000   0.00000  Uiso   1.00
O2254  O     0.75000   0.96964   0.66245   0.00000  Uiso   1.00
O2255  O     0.96963   0.75000   0.33755   0.00000  Uiso   1.00
O2256  O     0.53036   0.75000   0.66245   0.00000  Uiso   1.00
O2257  O     0.50000   0.71964   0.83755   0.00000  Uiso   1.00
O2258  O     0.50000   0.78037   0.16245   0.00000  Uiso   1.00
O2259  O     0.78036   0.50000   0.83755   0.00000  Uiso   1.00
O2260  O     0.71963   0.50000   0.16245   0.00000  Uiso   1.00
O2261  O     0.50000   0.78037   0.83755   0.00000  Uiso   1.00
O2262  O     0.50000   0.71964   0.16245   0.00000  Uiso   1.00
O2263  O     0.71963   0.50000   0.83755   0.00000  Uiso   1.00
O2264  O     0.75000   0.50000   0.75000   0.00000  Uiso   1.00
O2265  O     0.78036   0.50000   0.16245   0.00000  Uiso   1.00
O2266  O     0.70724   0.57308   0.27302   0.00000  Uiso   1.00
O2267  O     0.79275   0.92693   0.72698   0.00000  Uiso   1.00
O2268  O     0.92692   0.70725   0.27302   0.00000  Uiso   1.00
O2269  O     0.57307   0.79276   0.72698   0.00000  Uiso   1.00
O2270  O     0.79275   0.92693   0.27302   0.00000  Uiso   1.00
O2271  O     0.70724   0.57308   0.72698   0.00000  Uiso   1.00
O2272  O     0.57307   0.79276   0.27302   0.00000  Uiso   1.00
O2273  O     0.92692   0.70725   0.72698   0.00000  Uiso   1.00
O2274  O     0.70724   0.92693   0.72698   0.00000  Uiso   1.00
O2275  O     0.50000   0.75000   0.25000   0.00000  Uiso   1.00
O2276  O     0.79275   0.57308   0.27302   0.00000  Uiso   1.00
O2277  O     0.92692   0.79276   0.72698   0.00000  Uiso   1.00
O2278  O     0.57307   0.70725   0.27302   0.00000  Uiso   1.00
O2279  O     0.79275   0.57308   0.72698   0.00000  Uiso   1.00
O2280  O     0.70724   0.92693   0.27302   0.00000  Uiso   1.00
O2281  O     0.57307   0.70725   0.72698   0.00000  Uiso   1.00
O2282  O     0.92692   0.79276   0.27302   0.00000  Uiso   1.00
O2283  O     0.95724   0.82308   0.77302   0.00000  Uiso   1.00
O2284  O     0.54275   0.67693   0.22698   0.00000  Uiso   1.00
O2285  O     0.67692   0.95725   0.77302   0.00000  Uiso   1.00
O2286  O     0.50000   0.75000   0.75000   0.00000  Uiso   1.00
O2287  O     0.82307   0.54276   0.22698   0.00000  Uiso   1.00
O2288  O     0.54275   0.67693   0.77302   0.00000  Uiso   1.00
O2289  O     0.95724   0.82308   0.22698   0.00000  Uiso   1.00
O2290  O     0.82307   0.54276   0.77302   0.00000  Uiso   1.00
O2291  O     0.67692   0.95725   0.22698   0.00000  Uiso   1.00
O2292  O     0.95724   0.67693   0.22698   0.00000  Uiso   1.00
O2293  O     0.54275   0.82308   0.77302   0.00000  Uiso   1.00
O2294  O     0.67692   0.54276   0.22698   0.00000  Uiso   1.00
O2295  O     0.82307   0.95725   0.77302   0.00000  Uiso   1.00
O2296  O     0.54275   0.82308   0.22698   0.00000  Uiso   1.00
O2297  O     0.75000   0.96964   0.33755   0.00000  Uiso   1.00
O2298  O     0.95724   0.67693   0.77302   0.00000  Uiso   1.00
O2299  O     0.82307   0.95725   0.22698   0.00000  Uiso   1.00
O2300  O     0.67692   0.54276   0.77302   0.00000  Uiso   1.00
O2301  O     0.97713   0.65571   0.46518   0.00000  Uiso   1.00
O2302  O     0.50293   0.85323   0.54105   0.00000  Uiso   1.00
O2303  O     0.84689   0.96783   0.46507   0.00000  Uiso   1.00
O2304  O     0.65372   0.96686   0.53470   0.00000  Uiso   1.00
O2305  O     0.50147   0.85305   0.45853   0.00000  Uiso   1.00
O2306  O     0.51601   0.65445   0.53437   0.00000  Uiso   1.00
O2307  O     0.65113   0.99193   0.45916   0.00000  Uiso   1.00
O2308  O     0.75000   0.53037   0.66245   0.00000  Uiso   1.00
O2309  O     0.84904   0.99151   0.54106   0.00000  Uiso   1.00
O2310  O     0.77990   0.90461   0.96181   0.00000  Uiso   1.00
O2311  O     0.70122   0.58769   0.03929   0.00000  Uiso   1.00
O2312  O     0.59836   0.76800   0.96265   0.00000  Uiso   1.00
O2313  O     0.91180   0.69892   0.03863   0.00000  Uiso   1.00
O2314  O     0.71886   0.59557   0.96123   0.00000  Uiso   1.00
O2315  O     0.79963   0.91351   0.03897   0.00000  Uiso   1.00
O2316  O     0.90596   0.71501   0.95921   0.00000  Uiso   1.00
O2317  O     0.59125   0.78288   0.04279   0.00000  Uiso   1.00
O2318  O     0.51611   0.81639   0.39688   0.00000  Uiso   1.00
O2319  O     0.53036   0.75000   0.33755   0.00000  Uiso   1.00
O2320  O     0.51204   0.68671   0.60056   0.00000  Uiso   1.00
O2321  O     0.68632   0.51193   0.39873   0.00000  Uiso   1.00
O2322  O     0.81371   0.51254   0.60122   0.00000  Uiso   1.00
O2323  O     0.98113   0.68853   0.39919   0.00000  Uiso   1.00
O2324  O     0.98975   0.81753   0.60327   0.00000  Uiso   1.00
O2325  O     0.81497   0.97924   0.39815   0.00000  Uiso   1.00
O2326  O     0.68529   0.97880   0.60176   0.00000  Uiso   1.00
O2327  O     0.73626   0.56517   0.89761   0.00000  Uiso   1.00
O2328  O     0.79395   0.95090   0.10164   0.00000  Uiso   1.00
O2329  O     0.93468   0.74052   0.89809   0.00000  Uiso   1.00
O2330  O     0.96963   0.75000   0.66245   0.00000  Uiso   1.00
O2331  O     0.54304   0.79856   0.09720   0.00000  Uiso   1.00
O2332  O     0.76431   0.93513   0.89786   0.00000  Uiso   1.00
O2333  O     0.70516   0.54885   0.10160   0.00000  Uiso   1.00
O2334  O     0.56642   0.75751   0.89817   0.00000  Uiso   1.00
O2335  O     0.94764   0.70703   0.10262   0.00000  Uiso   1.00
O2336  O     0.75000   0.53037   0.33755   0.00000  Uiso   1.00
Zn2337 Zn    0.70659   0.50000   0.21735   0.00000  Uiso   1.00
Zn2338 Zn    0.54340   0.75000   0.28265   0.00000  Uiso   1.00
Zn2339 Zn    0.75000   0.95660   0.71735   0.00000  Uiso   1.00
Zn2340 Zn    0.75000   0.54341   0.28265   0.00000  Uiso   1.00
Zn2341 Zn    0.54340   0.75000   0.71735   0.00000  Uiso   1.00
Zn2342 Zn    0.95659   0.75000   0.28265   0.00000  Uiso   1.00
Zn2343 Zn    0.75000   0.54341   0.71735   0.00000  Uiso   1.00
Zn2344 Zn    0.75000   0.95660   0.28265   0.00000  Uiso   1.00
Zn2345 Zn    0.79340   0.50000   0.78265   0.00000  Uiso   1.00
Zn2346 Zn    0.50000   0.70660   0.21735   0.00000  Uiso   1.00
Zn2347 Zn    0.50000   0.79341   0.78265   0.00000  Uiso   1.00
Zn2348 Zn    0.79340   0.50000   0.21735   0.00000  Uiso   1.00
Zn2349 Zn    0.70659   0.50000   0.78265   0.00000  Uiso   1.00
Zn2350 Zn    0.50000   0.79341   0.21735   0.00000  Uiso   1.00
Zn2351 Zn    0.50000   0.70660   0.78265   0.00000  Uiso   1.00
Zn2352 Zn    0.95659   0.75000   0.71735   0.00000  Uiso   1.00
loop_
_geom_bond_atom_site_label_1
_geom_bond_atom_site_label_2
_geom_bond_distance
_geom_bond_site_symmetry_2
_ccdc_geom_bond_type
C1     C4      1.417   .     A
C1     O554    1.390   .     S
C1     C667    1.412   1_455 S
C2     C14     1.411   .     A
C2     O564    1.388   .     S
C2     C1311   1.408   .     S
C3     C211    1.411   .     A
C3     C154    1.418   .     A
C3     C38     1.413   .     A
C4     C155    1.421   .     A
C4     C622    1.414   1_455 S
C5     C36     1.419   .     A
C5     C112    1.405   .     A
C5     C157    1.411   .     A
C6     C158    1.414   .     A
C6     C37     1.414   .     A
C6     C1332   1.409   .     S
C7     C159    1.414   .     A
C7     C38     1.413   .     A
C7     C1343   1.409   .     S
C8     C160    1.416   .     A
C8     C35     1.409   .     A
C8     C1215   1.418   .     S
C9     C46     1.411   .     A
C9     C161    1.417   .     A
C9     C40     1.418   .     A
C10    C162    1.421   .     A
C10    C41     1.419   .     A
C10    C57     1.411   .     A
C11    C163    1.417   .     A
C11    C68     1.417   .     A
C11    C630    1.417   .     S
C12    C222    1.409   .     A
C12    C39     1.417   .     A
C12    C164    1.417   .     A
C13    O565    1.391   .     S
C13    C15     1.410   .     A
C13    C734    1.407   .     S
C14    C165    1.416   .     A
C14    C1216   1.418   .     S
C15    C166    1.418   .     A
C15    C629    1.415   .     S
C16    C24     1.403   .     A
C16    C42     1.409   .     A
C16    C168    1.413   .     A
C17    C184    1.455   .     S
C17    C212    1.401   .     A
C17    C214    1.402   .     A
C18    C210    1.401   .     A
C18    C185    1.456   .     S
C18    C213    1.402   .     A
C19    C177    1.454   .     S
C19    C209    1.402   .     A
C19    C216    1.401   .     A
C20    C215    1.401   .     A
C20    C179    1.455   .     S
C20    C208    1.402   .     A
C21    C218    1.401   .     A
C21    C180    1.455   .     S
C21    C207    1.402   .     A
C22    C181    1.455   .     S
C22    C206    1.402   .     A
C22    C217    1.401   .     A
C23    C182    1.455   .     S
C23    C220    1.401   .     A
C23    C205    1.402   .     A
C24    O567    1.385   .     S
C24    C738    1.406   1_455 S
C25    C204    1.402   .     A
C25    C183    1.454   .     S
C25    C219    1.401   .     A
C26    C203    1.401   .     A
C26    C223    1.401   .     A
C26    C193    1.454   .     S
C27    C202    1.402   .     A
C27    C221    1.401   .     A
C27    C194    1.454   .     S
C28    C201    1.402   .     A
C28    C186    1.455   .     S
C28    C225    1.401   .     A
C29    C199    1.402   .     A
C29    C224    1.401   .     A
C29    C187    1.455   .     S
C30    C198    1.401   .     A
C30    C188    1.454   .     S
C30    C227    1.402   .     A
C31    C190    1.455   .     S
C31    C226    1.402   .     A
C31    C197    1.402   .     A
C32    C196    1.402   .     A
C32    C229    1.401   .     A
C32    C191    1.455   .     S
C33    C195    1.402   .     A
C33    C228    1.401   .     A
C33    C192    1.455   .     S
C34    C230    1.420   .     A
C34    C592    1.414   .     S
C34    C624    1.409   .     S
C35    O568    1.392   .     S
C35    C1300   1.408   .     S
C36    C622    1.409   1_455 S
C36    C819    1.415   1_455 S
C37    C232    1.414   .     A
C37    C38     1.408   .     A
C39    C1184   1.418   1_545 S
C39    C40     1.408   1_556 S
C40    C1190   1.418   1_545 S
C40    C39     1.408   1_554 S
C41    C603    1.415   1_455 S
C41    C42     1.403   1_556 S
C42    C599    1.417   1_455 S
C42    C41     1.403   1_554 S
C43    O537    1.421   .     S
C43    C44     1.532   .     S
C43    H416    1.110   .     S
C43    H417    1.117   .     S
C44    C45     1.524   .     S
C44    H419    1.107   .     S
C44    H418    1.111   .     S
C45    H421    1.109   .     S
C45    H420    1.111   .     S
C45    H422    1.111   .     S
C46    C135    1.410   .     A
C46    O569    1.388   .     S
C47    C48     1.531   .     S
C47    H424    1.102   .     S
C47    H425    1.110   .     S
C47    O1126   1.415   .     S
C48    H427    1.110   .     S
C48    C49     1.526   .     S
C48    H1014   1.110   .     S
C49    H428    1.110   .     S
C49    H429    1.110   .     S
C49    H1018   1.111   .     S
C50    H432    1.118   .     S
C50    O539    1.423   .     S
C50    C51     1.530   .     S
C50    H431    1.108   .     S
C51    C52     1.528   .     S
C51    H433    1.111   .     S
C51    H435    1.107   .     S
C52    H436    1.111   .     S
C52    H438    1.111   .     S
C52    H437    1.106   .     S
C53    O540    1.423   .     S
C53    C54     1.530   .     S
C53    H439    1.108   .     S
C53    H440    1.118   .     S
C54    H442    1.107   .     S
C54    C55     1.529   .     S
C54    H441    1.111   .     S
C55    H444    1.106   .     S
C55    H446    1.111   .     S
C55    H443    1.111   .     S
C56    O541    1.414   .     S
C56    C58     1.531   .     S
C56    H447    1.101   .     S
C56    H448    1.109   .     S
C57    O570    1.390   .     S
C57    C146    1.410   .     A
C58    H449    1.111   .     S
C58    C59     1.526   .     S
C58    H450    1.109   .     S
C59    H452    1.110   .     S
C59    H451    1.110   .     S
C59    H1041   1.111   1_455 S
C60    H455    1.117   .     S
C60    H454    1.110   .     S
C60    C61     1.531   .     S
C60    O542    1.421   .     S
C61    H457    1.111   .     S
C61    C62     1.525   .     S
C61    H458    1.107   .     S
C62    H460    1.109   .     S
C62    H461    1.111   .     S
C62    H459    1.111   .     S
C63    H463    1.114   .     S
C63    C64     1.529   .     S
C63    H462    1.107   .     S
C63    O1719   1.416   1_545 S
C64    H465    1.111   .     S
C64    C65     1.527   .     S
C64    H1640   1.109   1_545 S
C65    H466    1.111   .     S
C65    H1644   1.110   1_545 S
C65    H1645   1.111   1_545 S
C66    H470    1.106   .     S
C66    C67     1.529   .     S
C66    H471    1.114   .     S
C66    O1721   1.415   1_545 S
C67    C69     1.527   .     S
C67    H473    1.111   .     S
C67    H1648   1.109   1_545 S
C68    C150    1.414   .     A
C68    O571    1.387   .     S
C69    H474    1.110   .     S
C69    H1651   1.110   1_545 S
C69    H1652   1.111   1_545 S
C70    H477    1.109   .     S
C70    H479    1.118   .     S
C70    C71     1.531   .     S
C70    O546    1.420   .     S
C71    H480    1.110   .     S
C71    C72     1.525   .     S
C71    H481    1.108   1_556 S
C72    H484    1.110   .     S
C72    H482    1.110   1_556 S
C72    H483    1.110   1_556 S
C73    C74     1.531   .     S
C73    O547    1.418   .     S
C73    H485    1.113   .     S
C73    H486    1.110   1_554 S
C74    H488    1.111   .     S
C74    H487    1.110   .     S
C74    C75     1.527   .     S
C75    H236    1.111   .     S
C75    H237    1.111   .     S
C75    H235    1.111   .     S
C76    O548    1.418   .     S
C76    H238    1.107   .     S
C76    C77     1.528   .     S
C76    H239    1.113   1_556 S
C77    H240    1.110   .     S
C77    C78     1.526   .     S
C77    H241    1.110   .     S
C78    H243    1.110   .     S
C78    H244    1.111   .     S
C78    H242    1.111   .     S
C79    C178    1.405   .     A
C79    C171    1.454   .     S
C79    C589    1.412   .     S
C80    H246    1.111   .     S
C80    O549    1.417   .     S
C80    C81     1.529   .     S
C80    H247    1.110   1_554 S
C81    H248    1.111   .     S
C81    C82     1.527   .     S
C81    H249    1.112   .     S
C82    H252    1.110   .     S
C82    H251    1.111   .     S
C82    H250    1.111   1_554 S
C83    O550    1.420   .     S
C83    H254    1.118   .     S
C83    C84     1.530   .     S
C83    H253    1.108   .     S
C84    C85     1.526   .     S
C84    H255    1.112   .     S
C84    H257    1.108   1_556 S
C85    H259    1.110   .     S
C85    H260    1.110   .     S
C85    H258    1.111   1_556 S
C86    O551    1.417   .     S
C86    C87     1.530   .     S
C86    H261    1.112   .     S
C86    H262    1.111   1_554 S
C87    H263    1.111   .     S
C87    C88     1.526   .     S
C87    H264    1.111   .     S
C88    H268    1.111   .     S
C88    H265    1.111   .     S
C88    H266    1.111   .     S
C89    C91     1.528   .     S
C89    O552    1.413   .     S
C89    H269    1.111   .     S
C89    H270    1.111   1_556 S
C90    C172    1.454   .     S
C90    C112    1.405   .     A
C90    C777    1.413   1_455 S
C91    C92     1.525   .     S
C91    H272    1.111   .     S
C91    H271    1.110   .     S
C92    H273    1.110   .     S
C92    H275    1.111   .     S
C92    H274    1.110   .     S
C93    H277    1.109   .     S
C93    H276    1.107   .     S
C93    C94     1.530   .     S
C93    O553    1.415   .     S
C94    H280    1.112   .     S
C94    C95     1.528   .     S
C94    H279    1.111   .     S
C95    H283    1.111   .     S
C95    H281    1.111   .     S
C95    H282    1.110   .     S
C96    H284    1.108   .     S
C96    H285    1.104   .     S
C96    O554    1.429   .     S
C96    C97     1.550   .     S
C97    C98     1.526   .     S
C97    H286    1.110   .     S
C97    H287    1.111   .     S
C98    H290    1.110   .     S
C98    H291    1.111   .     S
C98    H288    1.110   .     S
C99    O556    1.428   .     S
C99    H292    1.110   .     S
C99    H293    1.109   .     S
C99    C100    1.552   .     S
C100   H295    1.109   .     S
C100   H294    1.105   .     S
C100   C102    1.525   .     S
C101   C200    1.418   .     A
C101   C169    1.457   .     S
C101   C1332   1.407   .     S
C102   H297    1.110   .     S
C102   H296    1.111   .     S
C102   H298    1.109   .     S
C103   H301    1.107   .     S
C103   H299    1.110   .     S
C103   C104    1.549   .     S
C103   O557    1.426   .     S
C104   C105    1.526   .     S
C104   H303    1.112   .     S
C104   H302    1.109   .     S
C105   H306    1.111   .     S
C105   H304    1.110   .     S
C105   H305    1.111   .     S
C106   C107    1.549   .     S
C106   O558    1.426   .     S
C106   H308    1.106   .     S
C106   H307    1.110   .     S
C107   H310    1.111   .     S
C107   C108    1.526   .     S
C107   H309    1.110   .     S
C108   H313    1.111   .     S
C108   H314    1.111   .     S
C108   H312    1.110   .     S
C109   O559    1.429   .     S
C109   H316    1.108   .     S
C109   C110    1.552   .     S
C109   H315    1.110   .     S
C110   C111    1.525   .     S
C110   H317    1.106   .     S
C110   H318    1.110   .     S
C111   H319    1.110   .     S
C111   H320    1.109   .     S
C111   H321    1.111   .     S
C112   O556    1.389   .     S
C113   C170    1.457   .     S
C113   C211    1.418   .     A
C113   C1343   1.408   .     S
C114   O560    1.428   .     S
C114   C115    1.551   .     S
C114   H324    1.105   .     S
C114   H323    1.108   .     S
C115   C116    1.525   .     S
C115   H326    1.111   .     S
C115   H325    1.110   .     S
C116   H328    1.110   .     S
C116   H327    1.110   .     S
C116   H329    1.111   .     S
C117   C118    1.557   .     S
C117   O561    1.430   .     S
C117   H331    1.107   .     S
C117   H330    1.109   .     S
C118   H334    1.108   .     S
C118   H332    1.102   .     S
C118   C119    1.524   .     S
C119   H336    1.109   .     S
C119   H335    1.110   .     S
C119   H337    1.111   .     S
C120   H339    1.107   .     S
C120   O562    1.430   .     S
C120   H338    1.110   .     S
C120   C121    1.557   .     S
C121   H340    1.102   .     S
C121   C122    1.524   .     S
C121   H341    1.108   .     S
C122   H342    1.110   .     S
C122   H346    1.111   .     S
C122   H343    1.109   .     S
C123   H348    1.108   .     S
C123   C125    1.549   .     S
C123   H347    1.111   .     S
C123   O563    1.426   .     S
C124   C175    1.445   .     S
C124   C222    1.408   .     A
C124   C1211   1.408   1_545 S
C125   H349    1.109   .     S
C125   H350    1.111   .     S
C125   C126    1.526   .     S
C126   H353    1.111   .     S
C126   H352    1.110   .     S
C126   H351    1.110   .     S
C127   H354    1.107   .     S
C127   O564    1.432   .     S
C127   H355    1.109   .     S
C127   C1304   1.551   .     S
C128   H358    1.111   .     S
C128   C129    1.526   .     S
C128   C1303   1.551   1_545 S
C128   H1533   1.111   1_545 S
C129   H359    1.110   .     S
C129   H360    1.111   .     S
C129   H1537   1.111   1_545 S
C130   H362    1.110   .     S
C130   C131    1.549   .     S
C130   H363    1.108   .     S
C130   O565    1.427   .     S
C131   H364    1.108   .     S
C131   H365    1.111   .     S
C131   C132    1.526   .     S
C132   H366    1.110   .     S
C132   H368    1.111   .     S
C132   H369    1.111   .     S
C133   O567    1.429   .     S
C133   H370    1.111   .     S
C133   C134    1.549   .     S
C133   H371    1.107   .     S
C134   H372    1.106   .     S
C134   C724    1.526   1_455 S
C134   H961    1.112   1_455 S
C135   C176    1.461   .     S
C135   C1178   1.408   1_545 S
C136   H375    1.111   .     S
C136   H374    1.110   .     S
C136   C722    1.526   .     S
C136   H964    1.111   .     S
C137   O568    1.426   .     S
C137   H377    1.111   .     S
C137   H379    1.108   .     S
C137   C138    1.548   .     S
C138   C139    1.526   .     S
C138   H380    1.109   .     S
C138   H381    1.111   .     S
C139   H383    1.111   .     S
C139   H384    1.111   .     S
C139   H382    1.110   .     S
C140   H386    1.109   .     S
C140   O569    1.433   .     S
C140   H385    1.106   .     S
C140   C1317   1.551   1_545 S
C141   H388    1.111   .     S
C141   C142    1.526   .     S
C141   C1316   1.551   .     S
C141   H1563   1.111   .     S
C142   H390    1.111   .     S
C142   H391    1.111   .     S
C142   H1568   1.111   .     S
C143   C144    1.551   .     S
C143   H394    1.109   .     S
C143   O570    1.426   .     S
C143   H393    1.109   .     S
C144   C145    1.526   .     S
C144   H395    1.107   .     S
C144   H396    1.110   .     S
C145   H399    1.111   .     S
C145   H398    1.110   .     S
C145   H397    1.110   .     S
C146   C173    1.450   .     S
C146   C601    1.407   1_455 S
C147   H401    1.108   .     S
C147   C148    1.552   .     S
C147   O571    1.431   .     S
C147   H402    1.109   .     S
C148   H403    1.110   .     S
C148   C737    1.526   .     S
C148   H992    1.111   .     S
C149   H406    1.111   .     S
C149   H405    1.110   .     S
C149   C736    1.526   1_455 S
C149   H995    1.111   1_455 S
C150   C174    1.466   .     S
C150   C612    1.406   .     S
C151   C230    1.411   .     A
C151   O537    1.385   .     S
C151   C745    1.393   .     S
C152   C231    1.423   .     A
C152   C743    1.424   .     S
C152   O1126   1.390   .     S
C153   C159    1.408   .     A
C153   C232    1.419   .     A
C153   O539    1.387   .     S
C154   C158    1.407   .     A
C154   O540    1.387   .     S
C155   O541    1.389   .     S
C155   C740    1.424   1_455 S
C156   O557    1.388   .     S
C156   C1182   1.409   1_545 S
C156   C1277   1.407   1_545 S
C157   O542    1.385   .     S
C157   C739    1.393   1_455 S
C158   O543    1.386   .     S
C159   O545    1.385   .     S
C160   O546    1.387   .     S
C160   C165    1.408   1_556 S
C161   O547    1.389   .     S
C161   C164    1.410   1_554 S
C162   O548    1.388   .     S
C162   C168    1.416   1_556 S
C163   O549    1.388   .     S
C163   C166    1.416   1_554 S
C164   O550    1.387   .     S
C164   C161    1.410   1_556 S
C165   O551    1.387   .     S
C165   C160    1.408   1_554 S
C166   O552    1.387   .     S
C166   C163    1.416   1_556 S
C167   O558    1.389   .     S
C167   C1289   1.408   1_545 S
C167   C1183   1.409   1_545 S
C168   O553    1.391   .     S
C168   C162    1.416   1_554 S
C169   O533    1.273   .     A
C169   O1748   1.283   .     S
C170   O490    1.272   .     A
C170   O1720   1.284   .     S
C171   O491    1.275   .     A
C171   O1143   1.282   .     S
C172   O492    1.275   .     A
C172   O1154   1.282   1_455 S
C173   O497    1.278   .     A
C173   O493    1.274   .     A
C174   O1082   1.280   .     S
C174   O1086   1.281   .     S
C175   O495    1.276   .     A
C175   O499    1.276   .     A
C176   O496    1.280   .     A
C176   O501    1.281   .     A
C177   O530    1.281   .     A
C177   O502    1.282   .     A
C178   O559    1.389   .     S
C178   C230    1.405   .     A
C179   O531    1.281   .     A
C179   O503    1.282   .     A
C180   O528    1.280   .     A
C180   O504    1.281   .     A
C181   O505    1.280   .     A
C181   O529    1.280   .     A
C182   O535    1.279   .     A
C182   O506    1.280   .     A
C183   O507    1.280   .     A
C183   O536    1.280   .     A
C184   O508    1.281   .     A
C184   O532    1.281   .     A
C185   O534    1.282   .     A
C185   O509    1.280   .     A
C186   O521    1.280   .     A
C186   O510    1.280   .     A
C187   O512    1.280   .     A
C187   O523    1.280   .     A
C188   O513    1.281   .     A
C188   O519    1.282   .     A
C189   O560    1.390   .     S
C189   C231    1.417   .     A
C189   C678    1.413   .     S
C190   O520    1.282   .     A
C190   O514    1.281   .     A
C191   O526    1.281   .     A
C191   O515    1.281   .     A
C192   O516    1.282   .     A
C192   O527    1.280   .     A
C193   O524    1.280   .     A
C193   O517    1.280   .     A
C194   O525    1.279   .     A
C194   O518    1.280   .     A
C195   C212    1.386   .     A
C195   H233    1.083   .     S
C196   C210    1.386   .     A
C196   H344    1.083   .     S
C197   C209    1.386   .     A
C197   H412    1.083   .     S
C198   H423    1.083   .     S
C198   C208    1.386   .     A
C199   C207    1.386   .     A
C199   H434    1.083   .     S
C200   C232    1.412   .     A
C200   O561    1.389   .     S
C201   C206    1.386   .     A
C201   H445    1.083   .     S
C202   H456    1.083   .     S
C202   C205    1.386   .     A
C203   H467    1.083   .     S
C203   C204    1.386   .     A
C204   H478    1.083   .     S
C205   H234    1.083   .     S
C206   H245    1.083   .     S
C207   H256    1.083   .     S
C208   H267    1.083   .     S
C209   H278    1.083   .     S
C210   H289    1.083   .     S
C211   O562    1.389   .     S
C212   H300    1.083   .     S
C213   C229    1.386   .     A
C213   H311    1.083   .     S
C214   H322    1.083   .     S
C214   C228    1.386   .     A
C215   H333    1.083   .     S
C215   C227    1.386   .     A
C216   H345    1.083   .     S
C216   C226    1.386   .     A
C217   H356    1.083   .     S
C217   C225    1.386   .     A
C218   H367    1.082   .     S
C218   C224    1.385   .     A
C219   H378    1.083   .     S
C219   C223    1.386   .     A
C220   C221    1.385   .     A
C220   H389    1.081   .     S
C221   H400    1.083   .     S
C222   O563    1.391   .     S
C223   H408    1.082   .     S
C224   H409    1.083   .     S
C225   H410    1.081   .     S
C226   H411    1.083   .     S
C227   H413    1.082   .     S
C228   H414    1.083   .     S
C229   H415    1.083   .     S
C231   C624    1.415   .     S
H239   C76     1.113   1_554 S
H247   C80     1.110   1_556 S
H250   C82     1.111   1_556 S
H257   C84     1.108   1_554 S
H258   C85     1.111   1_554 S
H262   C86     1.111   1_556 S
H270   C89     1.111   1_554 S
H357   C1304   1.111   .     S
H361   C1305   1.111   .     S
H373   C722    1.112   .     S
H376   C724    1.111   1_455 S
H387   C1317   1.111   1_545 S
H392   C1318   1.111   1_545 S
H404   C736    1.111   1_455 S
H407   C737    1.111   .     S
H426   C636    1.110   1_455 S
H430   C637    1.111   1_455 S
H453   C647    1.111   .     S
H464   C1240   1.109   .     S
H468   C1241   1.110   .     S
H469   C1241   1.111   .     S
H472   C1243   1.109   .     S
H475   C1245   1.110   .     S
H476   C1245   1.111   .     S
H481   C71     1.108   1_554 S
H482   C72     1.110   1_554 S
H483   C72     1.110   1_554 S
H486   C73     1.110   1_556 S
O489   Zn584   1.946   .     S
O489   Zn576   1.946   .     S
O489   Zn573   1.949   .     S
O489   Zn1756  1.945   1_545 S
O490   Zn575   1.945   .     S
O491   Zn578   1.946   .     S
O492   Zn577   1.946   .     S
O493   Zn587   1.945   .     S
O494   Zn586   1.945   .     S
O494   C762    1.280   1_455 S
O495   Zn581   1.944   .     S
O496   Zn573   1.944   .     S
O497   Zn583   1.945   .     S
O498   Zn582   1.945   .     S
O498   C762    1.281   1_455 S
O499   Zn585   1.946   .     S
O500   Zn1751  1.946   1_545 S
O500   Zn579   1.945   .     S
O500   Zn581   1.949   .     S
O500   Zn585   1.946   .     S
O501   Zn584   1.946   .     S
O502   Zn576   1.937   .     S
O503   Zn575   1.937   .     S
O504   Zn578   1.937   .     S
O505   Zn577   1.937   .     S
O506   Zn580   1.936   .     S
O507   Zn579   1.936   .     S
O508   Zn574   1.936   .     S
O509   Zn588   1.936   .     S
O510   Zn575   1.936   .     S
O511   Zn574   1.949   .     S
O511   Zn582   1.946   .     S
O511   Zn586   1.945   .     S
O511   Zn1166  1.946   1_455 S
O512   Zn576   1.936   .     S
O513   Zn588   1.935   .     S
O514   Zn574   1.935   .     S
O515   Zn579   1.938   .     S
O516   Zn580   1.938   .     S
O517   Zn577   1.935   .     S
O518   Zn578   1.935   .     S
O519   Zn1171  1.937   .     S
O520   Zn582   1.937   .     S
O521   Zn1761  1.937   .     S
O522   Zn583   1.946   .     S
O522   Zn587   1.945   .     S
O522   Zn577   1.946   .     S
O522   Zn1176  1.949   1_455 S
O523   Zn584   1.937   .     S
O524   Zn587   1.936   .     S
O525   Zn1174  1.936   .     S
O526   Zn581   1.936   .     S
O527   Zn1749  1.936   .     S
O528   Zn1170  1.936   .     S
O529   Zn583   1.936   .     S
O530   Zn573   1.935   .     S
O531   Zn1757  1.935   .     S
O532   Zn586   1.938   .     S
O533   Zn580   1.945   .     S
O534   Zn1175  1.938   .     S
O535   Zn1760  1.935   .     S
O536   Zn585   1.935   .     S
O538   C635    1.415   1_455 S
O538   C740    1.390   1_455 S
O543   C1239   1.416   .     S
O544   Zn579   1.945   .     S
O544   C1346   1.284   1_545 S
O545   C1242   1.415   .     S
O555   Zn574   1.944   .     S
O555   C759    1.282   1_455 S
O566   Zn588   1.944   .     S
O566   C760    1.282   .     S
O572   Zn576   1.945   .     S
O572   C1345   1.283   1_545 S
Zn573  O1703   1.936   1_545 S
Zn575  O1676   1.946   .     S
Zn578  O1099   1.946   .     S
Zn580  O1665   1.945   .     S
Zn581  O1707   1.935   1_545 S
Zn582  O1116   1.936   1_455 S
Zn583  O1107   1.937   1_455 S
Zn584  O1711   1.935   1_545 S
Zn585  O1697   1.937   1_545 S
Zn586  O1113   1.936   1_455 S
Zn587  O1122   1.938   1_455 S
Zn588  O1110   1.949   .     S
C589   C592    1.417   .     A
C589   O1142   1.390   .     S
C590   C602    1.411   .     A
C590   O1152   1.388   .     S
C590   C1899   1.408   .     S
C591   C799    1.411   .     A
C591   C742    1.418   .     A
C591   C626    1.413   .     A
C592   C743    1.421   .     A
C593   C624    1.419   .     A
C593   C700    1.405   .     A
C593   C745    1.411   .     A
C594   C746    1.414   .     A
C594   C625    1.414   .     A
C594   C1920   1.409   .     S
C595   C747    1.414   .     A
C595   C626    1.413   .     A
C595   C1931   1.409   .     S
C596   C748    1.416   .     A
C596   C623    1.409   .     A
C596   C1803   1.418   .     S
C597   C634    1.411   .     A
C597   C749    1.417   .     A
C597   C628    1.418   .     A
C598   C750    1.421   .     A
C598   C629    1.419   .     A
C598   C645    1.411   .     A
C599   C751    1.417   .     A
C599   C656    1.417   .     A
C599   C42     1.417   1_655 S
C600   C810    1.409   .     A
C600   C627    1.417   .     A
C600   C752    1.417   .     A
C601   O1153   1.391   .     S
C601   C603    1.410   .     A
C601   C146    1.407   1_655 S
C602   C753    1.416   .     A
C602   C1804   1.418   .     S
C603   C754    1.418   .     A
C603   C41     1.415   1_655 S
C604   C612    1.403   .     A
C604   C630    1.409   .     A
C604   C756    1.413   .     A
C605   C772    1.455   .     S
C605   C800    1.401   .     A
C605   C802    1.402   .     A
C606   C798    1.401   .     A
C606   C773    1.456   .     S
C606   C801    1.402   .     A
C607   C765    1.454   .     S
C607   C797    1.402   .     A
C607   C804    1.401   .     A
C608   C803    1.401   .     A
C608   C767    1.455   .     S
C608   C796    1.402   .     A
C609   C806    1.401   .     A
C609   C768    1.455   .     S
C609   C795    1.402   .     A
C610   C769    1.455   .     S
C610   C794    1.402   .     A
C610   C805    1.401   .     A
C611   C770    1.455   .     S
C611   C808    1.401   .     A
C611   C793    1.402   .     A
C612   O1155   1.385   .     S
C613   C792    1.402   .     A
C613   C771    1.454   .     S
C613   C807    1.401   .     A
C614   C791    1.401   .     A
C614   C811    1.401   .     A
C614   C781    1.454   .     S
C615   C790    1.402   .     A
C615   C809    1.401   .     A
C615   C782    1.454   .     S
C616   C789    1.402   .     A
C616   C774    1.455   .     S
C616   C813    1.401   .     A
C617   C787    1.402   .     A
C617   C812    1.401   .     A
C617   C775    1.455   .     S
C618   C786    1.401   .     A
C618   C776    1.454   .     S
C618   C815    1.402   .     A
C619   C778    1.455   .     S
C619   C814    1.402   .     A
C619   C785    1.402   .     A
C620   C784    1.402   .     A
C620   C817    1.401   .     A
C620   C779    1.455   .     S
C621   C783    1.402   .     A
C621   C816    1.401   .     A
C621   C780    1.455   .     S
C622   C818    1.420   .     A
C622   C4      1.414   1_655 S
C622   C36     1.409   1_655 S
C623   O1156   1.392   .     S
C623   C1888   1.408   .     S
C625   C820    1.414   .     A
C625   C626    1.408   .     A
C627   C1772   1.418   1_545 S
C627   C628    1.408   1_556 S
C628   C1778   1.418   1_545 S
C628   C627    1.408   1_554 S
C629   C630    1.403   1_556 S
C630   C629    1.403   1_554 S
C631   O1125   1.421   .     S
C631   C632    1.532   .     S
C631   H1004   1.110   .     S
C631   H1005   1.117   .     S
C632   C633    1.524   .     S
C632   H1007   1.107   .     S
C632   H1006   1.111   .     S
C633   H1009   1.109   .     S
C633   H1008   1.111   .     S
C633   H1010   1.111   .     S
C634   C723    1.410   .     A
C634   O1157   1.388   .     S
C635   C636    1.531   .     S
C635   H1012   1.102   .     S
C635   H1013   1.110   .     S
C635   O538    1.415   1_655 S
C636   H1015   1.110   .     S
C636   C637    1.526   .     S
C636   H426    1.110   1_655 S
C637   H1016   1.110   .     S
C637   H1017   1.110   .     S
C637   H430    1.111   1_655 S
C638   H1020   1.118   .     S
C638   O1127   1.423   .     S
C638   C639    1.530   .     S
C638   H1019   1.108   .     S
C639   C640    1.528   .     S
C639   H1021   1.111   .     S
C639   H1023   1.107   .     S
C640   H1024   1.111   .     S
C640   H1026   1.111   .     S
C640   H1025   1.106   .     S
C641   O1128   1.423   .     S
C641   C642    1.530   .     S
C641   H1027   1.108   .     S
C641   H1028   1.118   .     S
C642   H1030   1.107   .     S
C642   C643    1.529   .     S
C642   H1029   1.111   .     S
C643   H1032   1.106   .     S
C643   H1034   1.111   .     S
C643   H1031   1.111   .     S
C644   O1129   1.414   .     S
C644   C646    1.531   .     S
C644   H1035   1.101   .     S
C644   H1036   1.109   .     S
C645   O1158   1.390   .     S
C645   C734    1.410   .     A
C646   H1037   1.111   .     S
C646   C647    1.526   .     S
C646   H1038   1.109   .     S
C647   H1040   1.110   .     S
C647   H1039   1.110   .     S
C648   H1043   1.117   .     S
C648   H1042   1.110   .     S
C648   C649    1.531   .     S
C648   O1130   1.421   .     S
C649   H1045   1.111   .     S
C649   C650    1.525   .     S
C649   H1046   1.107   .     S
C650   H1048   1.109   .     S
C650   H1049   1.111   .     S
C650   H1047   1.111   .     S
C651   H1051   1.114   .     S
C651   C652    1.529   .     S
C651   H1050   1.107   .     S
C651   O2307   1.416   1_545 S
C652   H1053   1.111   .     S
C652   C653    1.527   .     S
C652   H2228   1.109   1_545 S
C653   H1054   1.111   .     S
C653   H2232   1.110   1_545 S
C653   H2233   1.111   1_545 S
C654   H1058   1.106   .     S
C654   C655    1.529   .     S
C654   H1059   1.114   .     S
C654   O2309   1.415   1_545 S
C655   C657    1.527   .     S
C655   H1061   1.111   .     S
C655   H2236   1.109   1_545 S
C656   C738    1.414   .     A
C656   O1159   1.387   .     S
C657   H1062   1.110   .     S
C657   H2239   1.110   1_545 S
C657   H2240   1.111   1_545 S
C658   H1065   1.109   .     S
C658   H1067   1.118   .     S
C658   C659    1.531   .     S
C658   O1134   1.420   .     S
C659   H1068   1.110   .     S
C659   C660    1.525   .     S
C659   H1069   1.108   1_556 S
C660   H1072   1.110   .     S
C660   H1070   1.110   1_556 S
C660   H1071   1.110   1_556 S
C661   C662    1.531   .     S
C661   O1135   1.418   .     S
C661   H1073   1.113   .     S
C661   H1074   1.110   1_554 S
C662   H1076   1.111   .     S
C662   H1075   1.110   .     S
C662   C663    1.527   .     S
C663   H824    1.111   .     S
C663   H825    1.111   .     S
C663   H823    1.111   .     S
C664   O1136   1.418   .     S
C664   H826    1.107   .     S
C664   C665    1.528   .     S
C664   H827    1.113   1_556 S
C665   H828    1.110   .     S
C665   C666    1.526   .     S
C665   H829    1.110   .     S
C666   H831    1.110   .     S
C666   H832    1.111   .     S
C666   H830    1.111   .     S
C667   C766    1.405   .     A
C667   C759    1.454   .     S
C667   C1      1.412   1_655 S
C668   H834    1.111   .     S
C668   O1137   1.417   .     S
C668   C669    1.529   .     S
C668   H835    1.110   1_554 S
C669   H836    1.111   .     S
C669   C670    1.527   .     S
C669   H837    1.112   .     S
C670   H840    1.110   .     S
C670   H839    1.111   .     S
C670   H838    1.111   1_554 S
C671   O1138   1.420   .     S
C671   H842    1.118   .     S
C671   C672    1.530   .     S
C671   H841    1.108   .     S
C672   C673    1.526   .     S
C672   H843    1.112   .     S
C672   H845    1.108   1_556 S
C673   H847    1.110   .     S
C673   H848    1.110   .     S
C673   H846    1.111   1_556 S
C674   O1139   1.417   .     S
C674   C675    1.530   .     S
C674   H849    1.112   .     S
C674   H850    1.111   1_554 S
C675   H851    1.111   .     S
C675   C676    1.526   .     S
C675   H852    1.111   .     S
C676   H856    1.111   .     S
C676   H853    1.111   .     S
C676   H854    1.111   .     S
C677   C679    1.528   .     S
C677   O1140   1.413   .     S
C677   H857    1.111   .     S
C677   H858    1.111   1_556 S
C678   C760    1.454   .     S
C678   C700    1.405   .     A
C679   C680    1.525   .     S
C679   H860    1.111   .     S
C679   H859    1.110   .     S
C680   H861    1.110   .     S
C680   H863    1.111   .     S
C680   H862    1.110   .     S
C681   H865    1.109   .     S
C681   H864    1.107   .     S
C681   C682    1.530   .     S
C681   O1141   1.415   .     S
C682   H868    1.112   .     S
C682   C683    1.528   .     S
C682   H867    1.111   .     S
C683   H871    1.111   .     S
C683   H869    1.111   .     S
C683   H870    1.110   .     S
C684   H872    1.108   .     S
C684   H873    1.104   .     S
C684   O1142   1.429   .     S
C684   C685    1.550   .     S
C685   C686    1.526   .     S
C685   H874    1.110   .     S
C685   H875    1.111   .     S
C686   H878    1.110   .     S
C686   H879    1.111   .     S
C686   H876    1.110   .     S
C687   O1144   1.428   .     S
C687   H880    1.110   .     S
C687   H881    1.109   .     S
C687   C688    1.552   .     S
C688   H883    1.109   .     S
C688   H882    1.105   .     S
C688   C690    1.525   .     S
C689   C788    1.418   .     A
C689   C757    1.457   .     S
C689   C1920   1.407   .     S
C690   H885    1.110   .     S
C690   H884    1.111   .     S
C690   H886    1.109   .     S
C691   H889    1.107   .     S
C691   H887    1.110   .     S
C691   C692    1.549   .     S
C691   O1145   1.426   .     S
C692   C693    1.526   .     S
C692   H891    1.112   .     S
C692   H890    1.109   .     S
C693   H894    1.111   .     S
C693   H892    1.110   .     S
C693   H893    1.111   .     S
C694   C695    1.549   .     S
C694   O1146   1.426   .     S
C694   H896    1.106   .     S
C694   H895    1.110   .     S
C695   H898    1.111   .     S
C695   C696    1.526   .     S
C695   H897    1.110   .     S
C696   H901    1.111   .     S
C696   H902    1.111   .     S
C696   H900    1.110   .     S
C697   O1147   1.429   .     S
C697   H904    1.108   .     S
C697   C698    1.552   .     S
C697   H903    1.110   .     S
C698   C699    1.525   .     S
C698   H905    1.106   .     S
C698   H906    1.110   .     S
C699   H907    1.110   .     S
C699   H908    1.109   .     S
C699   H909    1.111   .     S
C700   O1144   1.389   .     S
C701   C758    1.457   .     S
C701   C799    1.418   .     A
C701   C1931   1.408   .     S
C702   O1148   1.428   .     S
C702   C703    1.551   .     S
C702   H912    1.105   .     S
C702   H911    1.108   .     S
C703   C704    1.525   .     S
C703   H914    1.111   .     S
C703   H913    1.110   .     S
C704   H916    1.110   .     S
C704   H915    1.110   .     S
C704   H917    1.111   .     S
C705   C706    1.557   .     S
C705   O1149   1.430   .     S
C705   H919    1.107   .     S
C705   H918    1.109   .     S
C706   H922    1.108   .     S
C706   H920    1.102   .     S
C706   C707    1.524   .     S
C707   H924    1.109   .     S
C707   H923    1.110   .     S
C707   H925    1.111   .     S
C708   H927    1.107   .     S
C708   O1150   1.430   .     S
C708   H926    1.110   .     S
C708   C709    1.557   .     S
C709   H928    1.102   .     S
C709   C710    1.524   .     S
C709   H929    1.108   .     S
C710   H930    1.110   .     S
C710   H934    1.111   .     S
C710   H931    1.109   .     S
C711   H936    1.108   .     S
C711   C713    1.549   .     S
C711   H935    1.111   .     S
C711   O1151   1.426   .     S
C712   C763    1.445   .     S
C712   C810    1.408   .     A
C712   C1799   1.408   1_545 S
C713   H937    1.109   .     S
C713   H938    1.111   .     S
C713   C714    1.526   .     S
C714   H941    1.111   .     S
C714   H940    1.110   .     S
C714   H939    1.110   .     S
C715   H942    1.107   .     S
C715   O1152   1.432   .     S
C715   H943    1.109   .     S
C715   C1892   1.551   .     S
C716   H946    1.111   .     S
C716   C717    1.526   .     S
C716   C1891   1.551   1_545 S
C716   H2121   1.111   1_545 S
C717   H947    1.110   .     S
C717   H948    1.111   .     S
C717   H2125   1.111   1_545 S
C718   H950    1.110   .     S
C718   C719    1.549   .     S
C718   H951    1.108   .     S
C718   O1153   1.427   .     S
C719   H952    1.108   .     S
C719   H953    1.111   .     S
C719   C720    1.526   .     S
C720   H954    1.110   .     S
C720   H956    1.111   .     S
C720   H957    1.111   .     S
C721   O1155   1.429   .     S
C721   H958    1.111   .     S
C721   C722    1.549   .     S
C721   H959    1.107   .     S
C722   H960    1.106   .     S
C723   C764    1.461   .     S
C723   C1766   1.408   1_545 S
C724   H963    1.111   .     S
C724   H962    1.110   .     S
C724   C134    1.526   1_655 S
C724   H376    1.111   1_655 S
C725   O1156   1.426   .     S
C725   H965    1.111   .     S
C725   H967    1.108   .     S
C725   C726    1.548   .     S
C726   C727    1.526   .     S
C726   H968    1.109   .     S
C726   H969    1.111   .     S
C727   H971    1.111   .     S
C727   H972    1.111   .     S
C727   H970    1.110   .     S
C728   H974    1.109   .     S
C728   O1157   1.433   .     S
C728   H973    1.106   .     S
C728   C1905   1.551   1_545 S
C729   H976    1.111   .     S
C729   C730    1.526   .     S
C729   C1904   1.551   .     S
C729   H2151   1.111   .     S
C730   H978    1.111   .     S
C730   H979    1.111   .     S
C730   H2156   1.111   .     S
C731   C732    1.551   .     S
C731   H982    1.109   .     S
C731   O1158   1.426   .     S
C731   H981    1.109   .     S
C732   C733    1.526   .     S
C732   H983    1.107   .     S
C732   H984    1.110   .     S
C733   H987    1.111   .     S
C733   H986    1.110   .     S
C733   H985    1.110   .     S
C734   C761    1.450   .     S
C735   H989    1.108   .     S
C735   C736    1.552   .     S
C735   O1159   1.431   .     S
C735   H990    1.109   .     S
C736   H991    1.110   .     S
C736   C149    1.526   1_655 S
C736   H404    1.111   1_655 S
C737   H994    1.111   .     S
C737   H993    1.110   .     S
C738   C762    1.466   .     S
C738   C24     1.406   1_655 S
C739   C818    1.411   .     A
C739   O1125   1.385   .     S
C739   C157    1.393   1_655 S
C740   C819    1.423   .     A
C740   C155    1.424   1_655 S
C740   O538    1.390   1_655 S
C741   C747    1.408   .     A
C741   C820    1.419   .     A
C741   O1127   1.387   .     S
C742   C746    1.407   .     A
C742   O1128   1.387   .     S
C743   O1129   1.389   .     S
C744   O1145   1.388   .     S
C744   C1770   1.409   1_545 S
C744   C1865   1.407   1_545 S
C745   O1130   1.385   .     S
C746   O1131   1.386   .     S
C747   O1133   1.385   .     S
C748   O1134   1.387   .     S
C748   C753    1.408   1_556 S
C749   O1135   1.389   .     S
C749   C752    1.410   1_554 S
C750   O1136   1.388   .     S
C750   C756    1.416   1_556 S
C751   O1137   1.388   .     S
C751   C754    1.416   1_554 S
C752   O1138   1.387   .     S
C752   C749    1.410   1_556 S
C753   O1139   1.387   .     S
C753   C748    1.408   1_554 S
C754   O1140   1.387   .     S
C754   C751    1.416   1_556 S
C755   O1146   1.389   .     S
C755   C1877   1.408   1_545 S
C755   C1771   1.409   1_545 S
C756   O1141   1.391   .     S
C756   C750    1.416   1_554 S
C757   O1121   1.273   .     A
C757   O2336   1.283   .     S
C758   O1078   1.272   .     A
C758   O2308   1.284   .     S
C759   O1079   1.275   .     A
C759   O555    1.282   1_655 S
C760   O1080   1.275   .     A
C761   O1085   1.278   .     A
C761   O1081   1.274   .     A
C762   O494    1.280   1_655 S
C762   O498    1.281   1_655 S
C763   O1083   1.276   .     A
C763   O1087   1.276   .     A
C764   O1084   1.280   .     A
C764   O1089   1.281   .     A
C765   O1118   1.281   .     A
C765   O1090   1.282   .     A
C766   O1147   1.389   .     S
C766   C818    1.405   .     A
C767   O1119   1.281   .     A
C767   O1091   1.282   .     A
C768   O1116   1.280   .     A
C768   O1092   1.281   .     A
C769   O1093   1.280   .     A
C769   O1117   1.280   .     A
C770   O1123   1.279   .     A
C770   O1094   1.280   .     A
C771   O1095   1.280   .     A
C771   O1124   1.280   .     A
C772   O1096   1.281   .     A
C772   O1120   1.281   .     A
C773   O1122   1.282   .     A
C773   O1097   1.280   .     A
C774   O1109   1.280   .     A
C774   O1098   1.280   .     A
C775   O1100   1.280   .     A
C775   O1111   1.280   .     A
C776   O1101   1.281   .     A
C776   O1107   1.282   .     A
C777   O1148   1.390   .     S
C777   C819    1.417   .     A
C777   C90     1.413   1_655 S
C778   O1108   1.282   .     A
C778   O1102   1.281   .     A
C779   O1114   1.281   .     A
C779   O1103   1.281   .     A
C780   O1104   1.282   .     A
C780   O1115   1.280   .     A
C781   O1112   1.280   .     A
C781   O1105   1.280   .     A
C782   O1113   1.279   .     A
C782   O1106   1.280   .     A
C783   C800    1.386   .     A
C783   H821    1.083   .     S
C784   C798    1.386   .     A
C784   H932    1.083   .     S
C785   C797    1.386   .     A
C785   H1000   1.083   .     S
C786   H1011   1.083   .     S
C786   C796    1.386   .     A
C787   C795    1.386   .     A
C787   H1022   1.083   .     S
C788   C820    1.412   .     A
C788   O1149   1.389   .     S
C789   C794    1.386   .     A
C789   H1033   1.083   .     S
C790   H1044   1.083   .     S
C790   C793    1.386   .     A
C791   H1055   1.083   .     S
C791   C792    1.386   .     A
C792   H1066   1.083   .     S
C793   H822    1.083   .     S
C794   H833    1.083   .     S
C795   H844    1.083   .     S
C796   H855    1.083   .     S
C797   H866    1.083   .     S
C798   H877    1.083   .     S
C799   O1150   1.389   .     S
C800   H888    1.083   .     S
C801   C817    1.386   .     A
C801   H899    1.083   .     S
C802   H910    1.083   .     S
C802   C816    1.386   .     A
C803   H921    1.083   .     S
C803   C815    1.386   .     A
C804   H933    1.083   .     S
C804   C814    1.386   .     A
C805   H944    1.083   .     S
C805   C813    1.386   .     A
C806   H955    1.082   .     S
C806   C812    1.385   .     A
C807   H966    1.083   .     S
C807   C811    1.386   .     A
C808   C809    1.385   .     A
C808   H977    1.081   .     S
C809   H988    1.083   .     S
C810   O1151   1.391   .     S
C811   H996    1.082   .     S
C812   H997    1.083   .     S
C813   H998    1.081   .     S
C814   H999    1.083   .     S
C815   H1001   1.082   .     S
C816   H1002   1.083   .     S
C817   H1003   1.083   .     S
C819   C36     1.415   1_655 S
H827   C664    1.113   1_554 S
H835   C668    1.110   1_556 S
H838   C670    1.111   1_556 S
H845   C672    1.108   1_554 S
H846   C673    1.111   1_554 S
H850   C674    1.111   1_556 S
H858   C677    1.111   1_554 S
H945   C1892   1.111   .     S
H949   C1893   1.111   .     S
H961   C134    1.112   1_655 S
H975   C1905   1.111   1_545 S
H980   C1906   1.111   1_545 S
H995   C149    1.111   1_655 S
H1041  C59     1.111   1_655 S
H1052  C1828   1.109   .     S
H1056  C1829   1.110   .     S
H1057  C1829   1.111   .     S
H1060  C1831   1.109   .     S
H1063  C1833   1.110   .     S
H1064  C1833   1.111   .     S
H1069  C659    1.108   1_554 S
H1070  C660    1.110   1_554 S
H1071  C660    1.110   1_554 S
H1074  C661    1.110   1_556 S
O1077  Zn1172  1.946   .     S
O1077  Zn1164  1.946   .     S
O1077  Zn1161  1.949   .     S
O1077  Zn2344  1.945   1_545 S
O1078  Zn1163  1.945   .     S
O1079  Zn1166  1.946   .     S
O1080  Zn1165  1.946   .     S
O1081  Zn1175  1.945   .     S
O1082  Zn1174  1.945   .     S
O1083  Zn1169  1.944   .     S
O1084  Zn1161  1.944   .     S
O1085  Zn1171  1.945   .     S
O1086  Zn1170  1.945   .     S
O1087  Zn1173  1.946   .     S
O1088  Zn2339  1.946   1_545 S
O1088  Zn1167  1.945   .     S
O1088  Zn1169  1.949   .     S
O1088  Zn1173  1.946   .     S
O1089  Zn1172  1.946   .     S
O1090  Zn1164  1.937   .     S
O1091  Zn1163  1.937   .     S
O1092  Zn1166  1.937   .     S
O1093  Zn1165  1.937   .     S
O1094  Zn1168  1.936   .     S
O1095  Zn1167  1.936   .     S
O1096  Zn1162  1.936   .     S
O1097  Zn1176  1.936   .     S
O1098  Zn1163  1.936   .     S
O1099  Zn1162  1.949   .     S
O1099  Zn1170  1.946   .     S
O1099  Zn1174  1.945   .     S
O1100  Zn1164  1.936   .     S
O1101  Zn1176  1.935   .     S
O1102  Zn1162  1.935   .     S
O1103  Zn1167  1.938   .     S
O1104  Zn1168  1.938   .     S
O1105  Zn1165  1.935   .     S
O1106  Zn1166  1.935   .     S
O1107  Zn583   1.937   1_655 S
O1108  Zn1170  1.937   .     S
O1109  Zn2349  1.937   .     S
O1110  Zn1171  1.946   .     S
O1110  Zn1175  1.945   .     S
O1110  Zn1165  1.946   .     S
O1111  Zn1172  1.937   .     S
O1112  Zn1175  1.936   .     S
O1113  Zn586   1.936   1_655 S
O1114  Zn1169  1.936   .     S
O1115  Zn2337  1.936   .     S
O1116  Zn582   1.936   1_655 S
O1117  Zn1171  1.936   .     S
O1118  Zn1161  1.935   .     S
O1119  Zn2345  1.935   .     S
O1120  Zn1174  1.938   .     S
O1121  Zn1168  1.945   .     S
O1122  Zn587   1.938   1_655 S
O1123  Zn2348  1.935   .     S
O1124  Zn1173  1.935   .     S
O1131  C1827   1.416   .     S
O1132  Zn1167  1.945   .     S
O1132  C1934   1.284   1_545 S
O1133  C1830   1.415   .     S
O1143  Zn1162  1.944   .     S
O1154  Zn1176  1.944   .     S
O1154  C172    1.282   1_655 S
O1160  Zn1164  1.945   .     S
O1160  C1933   1.283   1_545 S
Zn1161 O2291   1.936   1_545 S
Zn1163 O2264   1.946   .     S
Zn1166 O511    1.946   1_655 S
Zn1168 O2253   1.945   .     S
Zn1169 O2295   1.935   1_545 S
Zn1172 O2299   1.935   1_545 S
Zn1173 O2285   1.937   1_545 S
Zn1176 O522    1.949   1_655 S
C1177  C1180   1.417   .     A
C1177  O1730   1.390   .     S
C1177  C1843   1.412   1_455 S
C1178  C1190   1.411   .     A
C1178  O1740   1.388   .     S
C1178  C135    1.408   1_565 S
C1179  C1387   1.411   .     A
C1179  C1330   1.418   .     A
C1179  C1214   1.413   .     A
C1180  C1331   1.421   .     A
C1180  C1798   1.414   1_455 S
C1181  C1212   1.419   .     A
C1181  C1288   1.405   .     A
C1181  C1333   1.411   .     A
C1182  C1334   1.414   .     A
C1182  C1213   1.414   .     A
C1182  C156    1.409   1_565 S
C1183  C1335   1.414   .     A
C1183  C1214   1.413   .     A
C1183  C167    1.409   1_565 S
C1184  C1336   1.416   .     A
C1184  C1211   1.409   .     A
C1184  C39     1.418   1_565 S
C1185  C1222   1.411   .     A
C1185  C1337   1.417   .     A
C1185  C1216   1.418   .     A
C1186  C1338   1.421   .     A
C1186  C1217   1.419   .     A
C1186  C1233   1.411   .     A
C1187  C1339   1.417   .     A
C1187  C1244   1.417   .     A
C1187  C1806   1.417   .     S
C1188  C1398   1.409   .     A
C1188  C1215   1.417   .     A
C1188  C1340   1.417   .     A
C1189  O1741   1.391   .     S
C1189  C1191   1.410   .     A
C1189  C1910   1.407   .     S
C1190  C1341   1.416   .     A
C1190  C40     1.418   1_565 S
C1191  C1342   1.418   .     A
C1191  C1805   1.415   .     S
C1192  C1200   1.403   .     A
C1192  C1218   1.409   .     A
C1192  C1344   1.413   .     A
C1193  C1360   1.455   .     S
C1193  C1388   1.401   .     A
C1193  C1390   1.402   .     A
C1194  C1386   1.401   .     A
C1194  C1361   1.456   .     S
C1194  C1389   1.402   .     A
C1195  C1353   1.454   .     S
C1195  C1385   1.402   .     A
C1195  C1392   1.401   .     A
C1196  C1391   1.401   .     A
C1196  C1355   1.455   .     S
C1196  C1384   1.402   .     A
C1197  C1394   1.401   .     A
C1197  C1356   1.455   .     S
C1197  C1383   1.402   .     A
C1198  C1357   1.455   .     S
C1198  C1382   1.402   .     A
C1198  C1393   1.401   .     A
C1199  C1358   1.455   .     S
C1199  C1396   1.401   .     A
C1199  C1381   1.402   .     A
C1200  O1743   1.385   .     S
C1200  C1914   1.406   1_455 S
C1201  C1380   1.402   .     A
C1201  C1359   1.454   .     S
C1201  C1395   1.401   .     A
C1202  C1379   1.401   .     A
C1202  C1399   1.401   .     A
C1202  C1369   1.454   .     S
C1203  C1378   1.402   .     A
C1203  C1397   1.401   .     A
C1203  C1370   1.454   .     S
C1204  C1377   1.402   .     A
C1204  C1362   1.455   .     S
C1204  C1401   1.401   .     A
C1205  C1375   1.402   .     A
C1205  C1400   1.401   .     A
C1205  C1363   1.455   .     S
C1206  C1374   1.401   .     A
C1206  C1364   1.454   .     S
C1206  C1403   1.402   .     A
C1207  C1366   1.455   .     S
C1207  C1402   1.402   .     A
C1207  C1373   1.402   .     A
C1208  C1372   1.402   .     A
C1208  C1405   1.401   .     A
C1208  C1367   1.455   .     S
C1209  C1371   1.402   .     A
C1209  C1404   1.401   .     A
C1209  C1368   1.455   .     S
C1210  C1406   1.420   .     A
C1210  C1768   1.414   .     S
C1210  C1800   1.409   .     S
C1211  O1744   1.392   .     S
C1211  C124    1.408   1_565 S
C1212  C1798   1.409   1_455 S
C1212  C1995   1.415   1_455 S
C1213  C1408   1.414   .     A
C1213  C1214   1.408   .     A
C1215  C1216   1.408   1_556 S
C1216  C1215   1.408   1_554 S
C1217  C1779   1.415   1_455 S
C1217  C1218   1.403   1_556 S
C1218  C1775   1.417   1_455 S
C1218  C1217   1.403   1_554 S
C1219  O1713   1.421   .     S
C1219  C1220   1.532   .     S
C1219  H1592   1.110   .     S
C1219  H1593   1.117   .     S
C1220  C1221   1.524   .     S
C1220  H1595   1.107   .     S
C1220  H1594   1.111   .     S
C1221  H1597   1.109   .     S
C1221  H1596   1.111   .     S
C1221  H1598   1.111   .     S
C1222  C1311   1.410   .     A
C1222  O1745   1.388   .     S
C1223  C1224   1.531   .     S
C1223  H1600   1.102   .     S
C1223  H1601   1.110   .     S
C1223  O2302   1.415   .     S
C1224  H1603   1.110   .     S
C1224  C1225   1.526   .     S
C1224  H2190   1.110   .     S
C1225  H1604   1.110   .     S
C1225  H1605   1.110   .     S
C1225  H2194   1.111   .     S
C1226  H1608   1.118   .     S
C1226  O1715   1.423   .     S
C1226  C1227   1.530   .     S
C1226  H1607   1.108   .     S
C1227  C1228   1.528   .     S
C1227  H1609   1.111   .     S
C1227  H1611   1.107   .     S
C1228  H1612   1.111   .     S
C1228  H1614   1.111   .     S
C1228  H1613   1.106   .     S
C1229  O1716   1.423   .     S
C1229  C1230   1.530   .     S
C1229  H1615   1.108   .     S
C1229  H1616   1.118   .     S
C1230  H1618   1.107   .     S
C1230  C1231   1.529   .     S
C1230  H1617   1.111   .     S
C1231  H1620   1.106   .     S
C1231  H1622   1.111   .     S
C1231  H1619   1.111   .     S
C1232  O1717   1.414   .     S
C1232  C1234   1.531   .     S
C1232  H1623   1.101   .     S
C1232  H1624   1.109   .     S
C1233  O1746   1.390   .     S
C1233  C1322   1.410   .     A
C1234  H1625   1.111   .     S
C1234  C1235   1.526   .     S
C1234  H1626   1.109   .     S
C1235  H1628   1.110   .     S
C1235  H1627   1.110   .     S
C1235  H2217   1.111   1_455 S
C1236  H1631   1.117   .     S
C1236  H1630   1.110   .     S
C1236  C1237   1.531   .     S
C1236  O1718   1.421   .     S
C1237  H1633   1.111   .     S
C1237  C1238   1.525   .     S
C1237  H1634   1.107   .     S
C1238  H1636   1.109   .     S
C1238  H1637   1.111   .     S
C1238  H1635   1.111   .     S
C1239  H1639   1.114   .     S
C1239  C1240   1.529   .     S
C1239  H1638   1.107   .     S
C1240  H1641   1.111   .     S
C1240  C1241   1.527   .     S
C1241  H1642   1.111   .     S
C1242  H1646   1.106   .     S
C1242  C1243   1.529   .     S
C1242  H1647   1.114   .     S
C1243  C1245   1.527   .     S
C1243  H1649   1.111   .     S
C1244  C1326   1.414   .     A
C1244  O1747   1.387   .     S
C1245  H1650   1.110   .     S
C1246  H1653   1.109   .     S
C1246  H1655   1.118   .     S
C1246  C1247   1.531   .     S
C1246  O1722   1.420   .     S
C1247  H1656   1.110   .     S
C1247  C1248   1.525   .     S
C1247  H1657   1.108   1_556 S
C1248  H1660   1.110   .     S
C1248  H1658   1.110   1_556 S
C1248  H1659   1.110   1_556 S
C1249  C1250   1.531   .     S
C1249  O1723   1.418   .     S
C1249  H1661   1.113   .     S
C1249  H1662   1.110   1_554 S
C1250  H1664   1.111   .     S
C1250  H1663   1.110   .     S
C1250  C1251   1.527   .     S
C1251  H1412   1.111   .     S
C1251  H1413   1.111   .     S
C1251  H1411   1.111   .     S
C1252  O1724   1.418   .     S
C1252  H1414   1.107   .     S
C1252  C1253   1.528   .     S
C1252  H1415   1.113   1_556 S
C1253  H1416   1.110   .     S
C1253  C1254   1.526   .     S
C1253  H1417   1.110   .     S
C1254  H1419   1.110   .     S
C1254  H1420   1.111   .     S
C1254  H1418   1.111   .     S
C1255  C1354   1.405   .     A
C1255  C1347   1.454   .     S
C1255  C1765   1.412   .     S
C1256  H1422   1.111   .     S
C1256  O1725   1.417   .     S
C1256  C1257   1.529   .     S
C1256  H1423   1.110   1_554 S
C1257  H1424   1.111   .     S
C1257  C1258   1.527   .     S
C1257  H1425   1.112   .     S
C1258  H1428   1.110   .     S
C1258  H1427   1.111   .     S
C1258  H1426   1.111   1_554 S
C1259  O1726   1.420   .     S
C1259  H1430   1.118   .     S
C1259  C1260   1.530   .     S
C1259  H1429   1.108   .     S
C1260  C1261   1.526   .     S
C1260  H1431   1.112   .     S
C1260  H1433   1.108   1_556 S
C1261  H1435   1.110   .     S
C1261  H1436   1.110   .     S
C1261  H1434   1.111   1_556 S
C1262  O1727   1.417   .     S
C1262  C1263   1.530   .     S
C1262  H1437   1.112   .     S
C1262  H1438   1.111   1_554 S
C1263  H1439   1.111   .     S
C1263  C1264   1.526   .     S
C1263  H1440   1.111   .     S
C1264  H1444   1.111   .     S
C1264  H1441   1.111   .     S
C1264  H1442   1.111   .     S
C1265  C1267   1.528   .     S
C1265  O1728   1.413   .     S
C1265  H1445   1.111   .     S
C1265  H1446   1.111   1_556 S
C1266  C1348   1.454   .     S
C1266  C1288   1.405   .     A
C1266  C1953   1.413   1_455 S
C1267  C1268   1.525   .     S
C1267  H1448   1.111   .     S
C1267  H1447   1.110   .     S
C1268  H1449   1.110   .     S
C1268  H1451   1.111   .     S
C1268  H1450   1.110   .     S
C1269  H1453   1.109   .     S
C1269  H1452   1.107   .     S
C1269  C1270   1.530   .     S
C1269  O1729   1.415   .     S
C1270  H1456   1.112   .     S
C1270  C1271   1.528   .     S
C1270  H1455   1.111   .     S
C1271  H1459   1.111   .     S
C1271  H1457   1.111   .     S
C1271  H1458   1.110   .     S
C1272  H1460   1.108   .     S
C1272  H1461   1.104   .     S
C1272  O1730   1.429   .     S
C1272  C1273   1.550   .     S
C1273  C1274   1.526   .     S
C1273  H1462   1.110   .     S
C1273  H1463   1.111   .     S
C1274  H1466   1.110   .     S
C1274  H1467   1.111   .     S
C1274  H1464   1.110   .     S
C1275  O1732   1.428   .     S
C1275  H1468   1.110   .     S
C1275  H1469   1.109   .     S
C1275  C1276   1.552   .     S
C1276  H1471   1.109   .     S
C1276  H1470   1.105   .     S
C1276  C1278   1.525   .     S
C1277  C1376   1.418   .     A
C1277  C1345   1.457   .     S
C1277  C156    1.407   1_565 S
C1278  H1473   1.110   .     S
C1278  H1472   1.111   .     S
C1278  H1474   1.109   .     S
C1279  H1477   1.107   .     S
C1279  H1475   1.110   .     S
C1279  C1280   1.549   .     S
C1279  O1733   1.426   .     S
C1280  C1281   1.526   .     S
C1280  H1479   1.112   .     S
C1280  H1478   1.109   .     S
C1281  H1482   1.111   .     S
C1281  H1480   1.110   .     S
C1281  H1481   1.111   .     S
C1282  C1283   1.549   .     S
C1282  O1734   1.426   .     S
C1282  H1484   1.106   .     S
C1282  H1483   1.110   .     S
C1283  H1486   1.111   .     S
C1283  C1284   1.526   .     S
C1283  H1485   1.110   .     S
C1284  H1489   1.111   .     S
C1284  H1490   1.111   .     S
C1284  H1488   1.110   .     S
C1285  O1735   1.429   .     S
C1285  H1492   1.108   .     S
C1285  C1286   1.552   .     S
C1285  H1491   1.110   .     S
C1286  C1287   1.525   .     S
C1286  H1493   1.106   .     S
C1286  H1494   1.110   .     S
C1287  H1495   1.110   .     S
C1287  H1496   1.109   .     S
C1287  H1497   1.111   .     S
C1288  O1732   1.389   .     S
C1289  C1346   1.457   .     S
C1289  C1387   1.418   .     A
C1289  C167    1.408   1_565 S
C1290  O1736   1.428   .     S
C1290  C1291   1.551   .     S
C1290  H1500   1.105   .     S
C1290  H1499   1.108   .     S
C1291  C1292   1.525   .     S
C1291  H1502   1.111   .     S
C1291  H1501   1.110   .     S
C1292  H1504   1.110   .     S
C1292  H1503   1.110   .     S
C1292  H1505   1.111   .     S
C1293  C1294   1.557   .     S
C1293  O1737   1.430   .     S
C1293  H1507   1.107   .     S
C1293  H1506   1.109   .     S
C1294  H1510   1.108   .     S
C1294  H1508   1.102   .     S
C1294  C1295   1.524   .     S
C1295  H1512   1.109   .     S
C1295  H1511   1.110   .     S
C1295  H1513   1.111   .     S
C1296  H1515   1.107   .     S
C1296  O1738   1.430   .     S
C1296  H1514   1.110   .     S
C1296  C1297   1.557   .     S
C1297  H1516   1.102   .     S
C1297  C1298   1.524   .     S
C1297  H1517   1.108   .     S
C1298  H1518   1.110   .     S
C1298  H1522   1.111   .     S
C1298  H1519   1.109   .     S
C1299  H1524   1.108   .     S
C1299  C1301   1.549   .     S
C1299  H1523   1.111   .     S
C1299  O1739   1.426   .     S
C1300  C1351   1.445   .     S
C1300  C1398   1.408   .     A
C1301  H1525   1.109   .     S
C1301  H1526   1.111   .     S
C1301  C1302   1.526   .     S
C1302  H1529   1.111   .     S
C1302  H1528   1.110   .     S
C1302  H1527   1.110   .     S
C1303  H1530   1.107   .     S
C1303  O1740   1.432   .     S
C1303  H1531   1.109   .     S
C1303  C128    1.551   1_565 S
C1304  H1534   1.111   .     S
C1304  C1305   1.526   .     S
C1305  H1535   1.110   .     S
C1305  H1536   1.111   .     S
C1306  H1538   1.110   .     S
C1306  C1307   1.549   .     S
C1306  H1539   1.108   .     S
C1306  O1741   1.427   .     S
C1307  H1540   1.108   .     S
C1307  H1541   1.111   .     S
C1307  C1308   1.526   .     S
C1308  H1542   1.110   .     S
C1308  H1544   1.111   .     S
C1308  H1545   1.111   .     S
C1309  O1743   1.429   .     S
C1309  H1546   1.111   .     S
C1309  C1310   1.549   .     S
C1309  H1547   1.107   .     S
C1310  H1548   1.106   .     S
C1310  C1900   1.526   1_455 S
C1310  H2137   1.112   1_455 S
C1311  C1352   1.461   .     S
C1312  H1551   1.111   .     S
C1312  H1550   1.110   .     S
C1312  C1898   1.526   .     S
C1312  H2140   1.111   .     S
C1313  O1744   1.426   .     S
C1313  H1553   1.111   .     S
C1313  H1555   1.108   .     S
C1313  C1314   1.548   .     S
C1314  C1315   1.526   .     S
C1314  H1556   1.109   .     S
C1314  H1557   1.111   .     S
C1315  H1559   1.111   .     S
C1315  H1560   1.111   .     S
C1315  H1558   1.110   .     S
C1316  H1562   1.109   .     S
C1316  O1745   1.433   .     S
C1316  H1561   1.106   .     S
C1317  H1564   1.111   .     S
C1317  C1318   1.526   .     S
C1317  C140    1.551   1_565 S
C1317  H387    1.111   1_565 S
C1318  H1566   1.111   .     S
C1318  H1567   1.111   .     S
C1318  H392    1.111   1_565 S
C1319  C1320   1.551   .     S
C1319  H1570   1.109   .     S
C1319  O1746   1.426   .     S
C1319  H1569   1.109   .     S
C1320  C1321   1.526   .     S
C1320  H1571   1.107   .     S
C1320  H1572   1.110   .     S
C1321  H1575   1.111   .     S
C1321  H1574   1.110   .     S
C1321  H1573   1.110   .     S
C1322  C1349   1.450   .     S
C1322  C1777   1.407   1_455 S
C1323  H1577   1.108   .     S
C1323  C1324   1.552   .     S
C1323  O1747   1.431   .     S
C1323  H1578   1.109   .     S
C1324  H1579   1.110   .     S
C1324  C1913   1.526   .     S
C1324  H2168   1.111   .     S
C1325  H1582   1.111   .     S
C1325  H1581   1.110   .     S
C1325  C1912   1.526   1_455 S
C1325  H2171   1.111   1_455 S
C1326  C1350   1.466   .     S
C1326  C1788   1.406   .     S
C1327  C1406   1.411   .     A
C1327  O1713   1.385   .     S
C1327  C1921   1.393   .     S
C1328  C1407   1.423   .     A
C1328  C1919   1.424   .     S
C1328  O2302   1.390   .     S
C1329  C1335   1.408   .     A
C1329  C1408   1.419   .     A
C1329  O1715   1.387   .     S
C1330  C1334   1.407   .     A
C1330  O1716   1.387   .     S
C1331  O1717   1.389   .     S
C1331  C1916   1.424   1_455 S
C1332  O1733   1.388   .     S
C1333  O1718   1.385   .     S
C1333  C1915   1.393   1_455 S
C1334  O1719   1.386   .     S
C1335  O1721   1.385   .     S
C1336  O1722   1.387   .     S
C1336  C1341   1.408   1_556 S
C1337  O1723   1.389   .     S
C1337  C1340   1.410   1_554 S
C1338  O1724   1.388   .     S
C1338  C1344   1.416   1_556 S
C1339  O1725   1.388   .     S
C1339  C1342   1.416   1_554 S
C1340  O1726   1.387   .     S
C1340  C1337   1.410   1_556 S
C1341  O1727   1.387   .     S
C1341  C1336   1.408   1_554 S
C1342  O1728   1.387   .     S
C1342  C1339   1.416   1_556 S
C1343  O1734   1.389   .     S
C1344  O1729   1.391   .     S
C1344  C1338   1.416   1_554 S
C1345  O1709   1.273   .     A
C1345  O572    1.283   1_565 S
C1346  O1666   1.272   .     A
C1346  O544    1.284   1_565 S
C1347  O1667   1.275   .     A
C1347  O2319   1.282   .     S
C1348  O1668   1.275   .     A
C1348  O2330   1.282   1_455 S
C1349  O1673   1.278   .     A
C1349  O1669   1.274   .     A
C1350  O2258   1.280   .     S
C1350  O2262   1.281   .     S
C1351  O1671   1.276   .     A
C1351  O1675   1.276   .     A
C1352  O1672   1.280   .     A
C1352  O1677   1.281   .     A
C1353  O1706   1.281   .     A
C1353  O1678   1.282   .     A
C1354  O1735   1.389   .     S
C1354  C1406   1.405   .     A
C1355  O1707   1.281   .     A
C1355  O1679   1.282   .     A
C1356  O1704   1.280   .     A
C1356  O1680   1.281   .     A
C1357  O1681   1.280   .     A
C1357  O1705   1.280   .     A
C1358  O1711   1.279   .     A
C1358  O1682   1.280   .     A
C1359  O1683   1.280   .     A
C1359  O1712   1.280   .     A
C1360  O1684   1.281   .     A
C1360  O1708   1.281   .     A
C1361  O1710   1.282   .     A
C1361  O1685   1.280   .     A
C1362  O1697   1.280   .     A
C1362  O1686   1.280   .     A
C1363  O1688   1.280   .     A
C1363  O1699   1.280   .     A
C1364  O1689   1.281   .     A
C1364  O1695   1.282   .     A
C1365  O1736   1.390   .     S
C1365  C1407   1.417   .     A
C1365  C1854   1.413   .     S
C1366  O1696   1.282   .     A
C1366  O1690   1.281   .     A
C1367  O1702   1.281   .     A
C1367  O1691   1.281   .     A
C1368  O1692   1.282   .     A
C1368  O1703   1.280   .     A
C1369  O1700   1.280   .     A
C1369  O1693   1.280   .     A
C1370  O1701   1.279   .     A
C1370  O1694   1.280   .     A
C1371  C1388   1.386   .     A
C1371  H1409   1.083   .     S
C1372  C1386   1.386   .     A
C1372  H1520   1.083   .     S
C1373  C1385   1.386   .     A
C1373  H1588   1.083   .     S
C1374  H1599   1.083   .     S
C1374  C1384   1.386   .     A
C1375  C1383   1.386   .     A
C1375  H1610   1.083   .     S
C1376  C1408   1.412   .     A
C1376  O1737   1.389   .     S
C1377  C1382   1.386   .     A
C1377  H1621   1.083   .     S
C1378  H1632   1.083   .     S
C1378  C1381   1.386   .     A
C1379  H1643   1.083   .     S
C1379  C1380   1.386   .     A
C1380  H1654   1.083   .     S
C1381  H1410   1.083   .     S
C1382  H1421   1.083   .     S
C1383  H1432   1.083   .     S
C1384  H1443   1.083   .     S
C1385  H1454   1.083   .     S
C1386  H1465   1.083   .     S
C1387  O1738   1.389   .     S
C1388  H1476   1.083   .     S
C1389  C1405   1.386   .     A
C1389  H1487   1.083   .     S
C1390  H1498   1.083   .     S
C1390  C1404   1.386   .     A
C1391  H1509   1.083   .     S
C1391  C1403   1.386   .     A
C1392  H1521   1.083   .     S
C1392  C1402   1.386   .     A
C1393  H1532   1.083   .     S
C1393  C1401   1.386   .     A
C1394  H1543   1.082   .     S
C1394  C1400   1.385   .     A
C1395  H1554   1.083   .     S
C1395  C1399   1.386   .     A
C1396  C1397   1.385   .     A
C1396  H1565   1.081   .     S
C1397  H1576   1.083   .     S
C1398  O1739   1.391   .     S
C1399  H1584   1.082   .     S
C1400  H1585   1.083   .     S
C1401  H1586   1.081   .     S
C1402  H1587   1.083   .     S
C1403  H1589   1.082   .     S
C1404  H1590   1.083   .     S
C1405  H1591   1.083   .     S
C1407  C1800   1.415   .     S
H1415  C1252   1.113   1_554 S
H1423  C1256   1.110   1_556 S
H1426  C1258   1.111   1_556 S
H1433  C1260   1.108   1_554 S
H1434  C1261   1.111   1_554 S
H1438  C1262   1.111   1_556 S
H1446  C1265   1.111   1_554 S
H1533  C128    1.111   1_565 S
H1537  C129    1.111   1_565 S
H1549  C1898   1.112   .     S
H1552  C1900   1.111   1_455 S
H1580  C1912   1.111   1_455 S
H1583  C1913   1.111   .     S
H1602  C1812   1.110   1_455 S
H1606  C1813   1.111   1_455 S
H1629  C1823   1.111   .     S
H1640  C64     1.109   1_565 S
H1644  C65     1.110   1_565 S
H1645  C65     1.111   1_565 S
H1648  C67     1.109   1_565 S
H1651  C69     1.110   1_565 S
H1652  C69     1.111   1_565 S
H1657  C1247   1.108   1_554 S
H1658  C1248   1.110   1_554 S
H1659  C1248   1.110   1_554 S
H1662  C1249   1.110   1_556 S
O1665  Zn1760  1.946   .     S
O1665  Zn1752  1.946   .     S
O1665  Zn1749  1.949   .     S
O1666  Zn1751  1.945   .     S
O1667  Zn1754  1.946   .     S
O1668  Zn1753  1.946   .     S
O1669  Zn1763  1.945   .     S
O1670  Zn1762  1.945   .     S
O1670  C1938   1.280   1_455 S
O1671  Zn1757  1.944   .     S
O1672  Zn1749  1.944   .     S
O1673  Zn1759  1.945   .     S
O1674  Zn1758  1.945   .     S
O1674  C1938   1.281   1_455 S
O1675  Zn1761  1.946   .     S
O1676  Zn1755  1.945   .     S
O1676  Zn1757  1.949   .     S
O1676  Zn1761  1.946   .     S
O1677  Zn1760  1.946   .     S
O1678  Zn1752  1.937   .     S
O1679  Zn1751  1.937   .     S
O1680  Zn1754  1.937   .     S
O1681  Zn1753  1.937   .     S
O1682  Zn1756  1.936   .     S
O1683  Zn1755  1.936   .     S
O1684  Zn1750  1.936   .     S
O1685  Zn1764  1.936   .     S
O1686  Zn1751  1.936   .     S
O1687  Zn1750  1.949   .     S
O1687  Zn1758  1.946   .     S
O1687  Zn1762  1.945   .     S
O1687  Zn2342  1.946   1_455 S
O1688  Zn1752  1.936   .     S
O1689  Zn1764  1.935   .     S
O1690  Zn1750  1.935   .     S
O1691  Zn1755  1.938   .     S
O1692  Zn1756  1.938   .     S
O1693  Zn1753  1.935   .     S
O1694  Zn1754  1.935   .     S
O1695  Zn2347  1.937   .     S
O1696  Zn1758  1.937   .     S
O1697  Zn585   1.937   1_565 S
O1698  Zn1759  1.946   .     S
O1698  Zn1763  1.945   .     S
O1698  Zn1753  1.946   .     S
O1698  Zn2352  1.949   1_455 S
O1699  Zn1760  1.937   .     S
O1700  Zn1763  1.936   .     S
O1701  Zn2350  1.936   .     S
O1702  Zn1757  1.936   .     S
O1703  Zn573   1.936   1_565 S
O1704  Zn2346  1.936   .     S
O1705  Zn1759  1.936   .     S
O1706  Zn1749  1.935   .     S
O1707  Zn581   1.935   1_565 S
O1708  Zn1762  1.938   .     S
O1709  Zn1756  1.945   .     S
O1710  Zn2351  1.938   .     S
O1711  Zn584   1.935   1_565 S
O1712  Zn1761  1.935   .     S
O1714  C1811   1.415   1_455 S
O1714  C1916   1.390   1_455 S
O1719  C63     1.416   1_565 S
O1720  Zn1755  1.945   .     S
O1721  C66     1.415   1_565 S
O1731  Zn1750  1.944   .     S
O1731  C1935   1.282   1_455 S
O1742  Zn1764  1.944   .     S
O1742  C1936   1.282   .     S
O1748  Zn1752  1.945   .     S
Zn1751 O500    1.946   1_565 S
Zn1754 O2275   1.946   .     S
Zn1756 O489    1.945   1_565 S
Zn1758 O2292   1.936   1_455 S
Zn1759 O2283   1.937   1_455 S
Zn1762 O2289   1.936   1_455 S
Zn1763 O2298   1.938   1_455 S
Zn1764 O2286   1.949   .     S
C1765  C1768   1.417   .     A
C1765  O2318   1.390   .     S
C1766  C1778   1.411   .     A
C1766  O2328   1.388   .     S
C1766  C723    1.408   1_565 S
C1767  C1975   1.411   .     A
C1767  C1918   1.418   .     A
C1767  C1802   1.413   .     A
C1768  C1919   1.421   .     A
C1769  C1800   1.419   .     A
C1769  C1876   1.405   .     A
C1769  C1921   1.411   .     A
C1770  C1922   1.414   .     A
C1770  C1801   1.414   .     A
C1770  C744    1.409   1_565 S
C1771  C1923   1.414   .     A
C1771  C1802   1.413   .     A
C1771  C755    1.409   1_565 S
C1772  C1924   1.416   .     A
C1772  C1799   1.409   .     A
C1772  C627    1.418   1_565 S
C1773  C1810   1.411   .     A
C1773  C1925   1.417   .     A
C1773  C1804   1.418   .     A
C1774  C1926   1.421   .     A
C1774  C1805   1.419   .     A
C1774  C1821   1.411   .     A
C1775  C1927   1.417   .     A
C1775  C1832   1.417   .     A
C1775  C1218   1.417   1_655 S
C1776  C1986   1.409   .     A
C1776  C1803   1.417   .     A
C1776  C1928   1.417   .     A
C1777  O2329   1.391   .     S
C1777  C1779   1.410   .     A
C1777  C1322   1.407   1_655 S
C1778  C1929   1.416   .     A
C1778  C628    1.418   1_565 S
C1779  C1930   1.418   .     A
C1779  C1217   1.415   1_655 S
C1780  C1788   1.403   .     A
C1780  C1806   1.409   .     A
C1780  C1932   1.413   .     A
C1781  C1948   1.455   .     S
C1781  C1976   1.401   .     A
C1781  C1978   1.402   .     A
C1782  C1974   1.401   .     A
C1782  C1949   1.456   .     S
C1782  C1977   1.402   .     A
C1783  C1941   1.454   .     S
C1783  C1973   1.402   .     A
C1783  C1980   1.401   .     A
C1784  C1979   1.401   .     A
C1784  C1943   1.455   .     S
C1784  C1972   1.402   .     A
C1785  C1982   1.401   .     A
C1785  C1944   1.455   .     S
C1785  C1971   1.402   .     A
C1786  C1945   1.455   .     S
C1786  C1970   1.402   .     A
C1786  C1981   1.401   .     A
C1787  C1946   1.455   .     S
C1787  C1984   1.401   .     A
C1787  C1969   1.402   .     A
C1788  O2331   1.385   .     S
C1789  C1968   1.402   .     A
C1789  C1947   1.454   .     S
C1789  C1983   1.401   .     A
C1790  C1967   1.401   .     A
C1790  C1987   1.401   .     A
C1790  C1957   1.454   .     S
C1791  C1966   1.402   .     A
C1791  C1985   1.401   .     A
C1791  C1958   1.454   .     S
C1792  C1965   1.402   .     A
C1792  C1950   1.455   .     S
C1792  C1989   1.401   .     A
C1793  C1963   1.402   .     A
C1793  C1988   1.401   .     A
C1793  C1951   1.455   .     S
C1794  C1962   1.401   .     A
C1794  C1952   1.454   .     S
C1794  C1991   1.402   .     A
C1795  C1954   1.455   .     S
C1795  C1990   1.402   .     A
C1795  C1961   1.402   .     A
C1796  C1960   1.402   .     A
C1796  C1993   1.401   .     A
C1796  C1955   1.455   .     S
C1797  C1959   1.402   .     A
C1797  C1992   1.401   .     A
C1797  C1956   1.455   .     S
C1798  C1994   1.420   .     A
C1798  C1180   1.414   1_655 S
C1798  C1212   1.409   1_655 S
C1799  O2332   1.392   .     S
C1799  C712    1.408   1_565 S
C1801  C1996   1.414   .     A
C1801  C1802   1.408   .     A
C1803  C1804   1.408   1_556 S
C1804  C1803   1.408   1_554 S
C1805  C1806   1.403   1_556 S
C1806  C1805   1.403   1_554 S
C1807  O2301   1.421   .     S
C1807  C1808   1.532   .     S
C1807  H2180   1.110   .     S
C1807  H2181   1.117   .     S
C1808  C1809   1.524   .     S
C1808  H2183   1.107   .     S
C1808  H2182   1.111   .     S
C1809  H2185   1.109   .     S
C1809  H2184   1.111   .     S
C1809  H2186   1.111   .     S
C1810  C1899   1.410   .     A
C1810  O2333   1.388   .     S
C1811  C1812   1.531   .     S
C1811  H2188   1.102   .     S
C1811  H2189   1.110   .     S
C1811  O1714   1.415   1_655 S
C1812  H2191   1.110   .     S
C1812  C1813   1.526   .     S
C1812  H1602   1.110   1_655 S
C1813  H2192   1.110   .     S
C1813  H2193   1.110   .     S
C1813  H1606   1.111   1_655 S
C1814  H2196   1.118   .     S
C1814  O2303   1.423   .     S
C1814  C1815   1.530   .     S
C1814  H2195   1.108   .     S
C1815  C1816   1.528   .     S
C1815  H2197   1.111   .     S
C1815  H2199   1.107   .     S
C1816  H2200   1.111   .     S
C1816  H2202   1.111   .     S
C1816  H2201   1.106   .     S
C1817  O2304   1.423   .     S
C1817  C1818   1.530   .     S
C1817  H2203   1.108   .     S
C1817  H2204   1.118   .     S
C1818  H2206   1.107   .     S
C1818  C1819   1.529   .     S
C1818  H2205   1.111   .     S
C1819  H2208   1.106   .     S
C1819  H2210   1.111   .     S
C1819  H2207   1.111   .     S
C1820  O2305   1.414   .     S
C1820  C1822   1.531   .     S
C1820  H2211   1.101   .     S
C1820  H2212   1.109   .     S
C1821  O2334   1.390   .     S
C1821  C1910   1.410   .     A
C1822  H2213   1.111   .     S
C1822  C1823   1.526   .     S
C1822  H2214   1.109   .     S
C1823  H2216   1.110   .     S
C1823  H2215   1.110   .     S
C1824  H2219   1.117   .     S
C1824  H2218   1.110   .     S
C1824  C1825   1.531   .     S
C1824  O2306   1.421   .     S
C1825  H2221   1.111   .     S
C1825  C1826   1.525   .     S
C1825  H2222   1.107   .     S
C1826  H2224   1.109   .     S
C1826  H2225   1.111   .     S
C1826  H2223   1.111   .     S
C1827  H2227   1.114   .     S
C1827  C1828   1.529   .     S
C1827  H2226   1.107   .     S
C1828  H2229   1.111   .     S
C1828  C1829   1.527   .     S
C1829  H2230   1.111   .     S
C1830  H2234   1.106   .     S
C1830  C1831   1.529   .     S
C1830  H2235   1.114   .     S
C1831  C1833   1.527   .     S
C1831  H2237   1.111   .     S
C1832  C1914   1.414   .     A
C1832  O2335   1.387   .     S
C1833  H2238   1.110   .     S
C1834  H2241   1.109   .     S
C1834  H2243   1.118   .     S
C1834  C1835   1.531   .     S
C1834  O2310   1.420   .     S
C1835  H2244   1.110   .     S
C1835  C1836   1.525   .     S
C1835  H2245   1.108   1_556 S
C1836  H2248   1.110   .     S
C1836  H2246   1.110   1_556 S
C1836  H2247   1.110   1_556 S
C1837  C1838   1.531   .     S
C1837  O2311   1.418   .     S
C1837  H2249   1.113   .     S
C1837  H2250   1.110   1_554 S
C1838  H2252   1.111   .     S
C1838  H2251   1.110   .     S
C1838  C1839   1.527   .     S
C1839  H2000   1.111   .     S
C1839  H2001   1.111   .     S
C1839  H1999   1.111   .     S
C1840  O2312   1.418   .     S
C1840  H2002   1.107   .     S
C1840  C1841   1.528   .     S
C1840  H2003   1.113   1_556 S
C1841  H2004   1.110   .     S
C1841  C1842   1.526   .     S
C1841  H2005   1.110   .     S
C1842  H2007   1.110   .     S
C1842  H2008   1.111   .     S
C1842  H2006   1.111   .     S
C1843  C1942   1.405   .     A
C1843  C1935   1.454   .     S
C1843  C1177   1.412   1_655 S
C1844  H2010   1.111   .     S
C1844  O2313   1.417   .     S
C1844  C1845   1.529   .     S
C1844  H2011   1.110   1_554 S
C1845  H2012   1.111   .     S
C1845  C1846   1.527   .     S
C1845  H2013   1.112   .     S
C1846  H2016   1.110   .     S
C1846  H2015   1.111   .     S
C1846  H2014   1.111   1_554 S
C1847  O2314   1.420   .     S
C1847  H2018   1.118   .     S
C1847  C1848   1.530   .     S
C1847  H2017   1.108   .     S
C1848  C1849   1.526   .     S
C1848  H2019   1.112   .     S
C1848  H2021   1.108   1_556 S
C1849  H2023   1.110   .     S
C1849  H2024   1.110   .     S
C1849  H2022   1.111   1_556 S
C1850  O2315   1.417   .     S
C1850  C1851   1.530   .     S
C1850  H2025   1.112   .     S
C1850  H2026   1.111   1_554 S
C1851  H2027   1.111   .     S
C1851  C1852   1.526   .     S
C1851  H2028   1.111   .     S
C1852  H2032   1.111   .     S
C1852  H2029   1.111   .     S
C1852  H2030   1.111   .     S
C1853  C1855   1.528   .     S
C1853  O2316   1.413   .     S
C1853  H2033   1.111   .     S
C1853  H2034   1.111   1_556 S
C1854  C1936   1.454   .     S
C1854  C1876   1.405   .     A
C1855  C1856   1.525   .     S
C1855  H2036   1.111   .     S
C1855  H2035   1.110   .     S
C1856  H2037   1.110   .     S
C1856  H2039   1.111   .     S
C1856  H2038   1.110   .     S
C1857  H2041   1.109   .     S
C1857  H2040   1.107   .     S
C1857  C1858   1.530   .     S
C1857  O2317   1.415   .     S
C1858  H2044   1.112   .     S
C1858  C1859   1.528   .     S
C1858  H2043   1.111   .     S
C1859  H2047   1.111   .     S
C1859  H2045   1.111   .     S
C1859  H2046   1.110   .     S
C1860  H2048   1.108   .     S
C1860  H2049   1.104   .     S
C1860  O2318   1.429   .     S
C1860  C1861   1.550   .     S
C1861  C1862   1.526   .     S
C1861  H2050   1.110   .     S
C1861  H2051   1.111   .     S
C1862  H2054   1.110   .     S
C1862  H2055   1.111   .     S
C1862  H2052   1.110   .     S
C1863  O2320   1.428   .     S
C1863  H2056   1.110   .     S
C1863  H2057   1.109   .     S
C1863  C1864   1.552   .     S
C1864  H2059   1.109   .     S
C1864  H2058   1.105   .     S
C1864  C1866   1.525   .     S
C1865  C1964   1.418   .     A
C1865  C1933   1.457   .     S
C1865  C744    1.407   1_565 S
C1866  H2061   1.110   .     S
C1866  H2060   1.111   .     S
C1866  H2062   1.109   .     S
C1867  H2065   1.107   .     S
C1867  H2063   1.110   .     S
C1867  C1868   1.549   .     S
C1867  O2321   1.426   .     S
C1868  C1869   1.526   .     S
C1868  H2067   1.112   .     S
C1868  H2066   1.109   .     S
C1869  H2070   1.111   .     S
C1869  H2068   1.110   .     S
C1869  H2069   1.111   .     S
C1870  C1871   1.549   .     S
C1870  O2322   1.426   .     S
C1870  H2072   1.106   .     S
C1870  H2071   1.110   .     S
C1871  H2074   1.111   .     S
C1871  C1872   1.526   .     S
C1871  H2073   1.110   .     S
C1872  H2077   1.111   .     S
C1872  H2078   1.111   .     S
C1872  H2076   1.110   .     S
C1873  O2323   1.429   .     S
C1873  H2080   1.108   .     S
C1873  C1874   1.552   .     S
C1873  H2079   1.110   .     S
C1874  C1875   1.525   .     S
C1874  H2081   1.106   .     S
C1874  H2082   1.110   .     S
C1875  H2083   1.110   .     S
C1875  H2084   1.109   .     S
C1875  H2085   1.111   .     S
C1876  O2320   1.389   .     S
C1877  C1934   1.457   .     S
C1877  C1975   1.418   .     A
C1877  C755    1.408   1_565 S
C1878  O2324   1.428   .     S
C1878  C1879   1.551   .     S
C1878  H2088   1.105   .     S
C1878  H2087   1.108   .     S
C1879  C1880   1.525   .     S
C1879  H2090   1.111   .     S
C1879  H2089   1.110   .     S
C1880  H2092   1.110   .     S
C1880  H2091   1.110   .     S
C1880  H2093   1.111   .     S
C1881  C1882   1.557   .     S
C1881  O2325   1.430   .     S
C1881  H2095   1.107   .     S
C1881  H2094   1.109   .     S
C1882  H2098   1.108   .     S
C1882  H2096   1.102   .     S
C1882  C1883   1.524   .     S
C1883  H2100   1.109   .     S
C1883  H2099   1.110   .     S
C1883  H2101   1.111   .     S
C1884  H2103   1.107   .     S
C1884  O2326   1.430   .     S
C1884  H2102   1.110   .     S
C1884  C1885   1.557   .     S
C1885  H2104   1.102   .     S
C1885  C1886   1.524   .     S
C1885  H2105   1.108   .     S
C1886  H2106   1.110   .     S
C1886  H2110   1.111   .     S
C1886  H2107   1.109   .     S
C1887  H2112   1.108   .     S
C1887  C1889   1.549   .     S
C1887  H2111   1.111   .     S
C1887  O2327   1.426   .     S
C1888  C1939   1.445   .     S
C1888  C1986   1.408   .     A
C1889  H2113   1.109   .     S
C1889  H2114   1.111   .     S
C1889  C1890   1.526   .     S
C1890  H2117   1.111   .     S
C1890  H2116   1.110   .     S
C1890  H2115   1.110   .     S
C1891  H2118   1.107   .     S
C1891  O2328   1.432   .     S
C1891  H2119   1.109   .     S
C1891  C716    1.551   1_565 S
C1892  H2122   1.111   .     S
C1892  C1893   1.526   .     S
C1893  H2123   1.110   .     S
C1893  H2124   1.111   .     S
C1894  H2126   1.110   .     S
C1894  C1895   1.549   .     S
C1894  H2127   1.108   .     S
C1894  O2329   1.427   .     S
C1895  H2128   1.108   .     S
C1895  H2129   1.111   .     S
C1895  C1896   1.526   .     S
C1896  H2130   1.110   .     S
C1896  H2132   1.111   .     S
C1896  H2133   1.111   .     S
C1897  O2331   1.429   .     S
C1897  H2134   1.111   .     S
C1897  C1898   1.549   .     S
C1897  H2135   1.107   .     S
C1898  H2136   1.106   .     S
C1899  C1940   1.461   .     S
C1900  H2139   1.111   .     S
C1900  H2138   1.110   .     S
C1900  C1310   1.526   1_655 S
C1900  H1552   1.111   1_655 S
C1901  O2332   1.426   .     S
C1901  H2141   1.111   .     S
C1901  H2143   1.108   .     S
C1901  C1902   1.548   .     S
C1902  C1903   1.526   .     S
C1902  H2144   1.109   .     S
C1902  H2145   1.111   .     S
C1903  H2147   1.111   .     S
C1903  H2148   1.111   .     S
C1903  H2146   1.110   .     S
C1904  H2150   1.109   .     S
C1904  O2333   1.433   .     S
C1904  H2149   1.106   .     S
C1905  H2152   1.111   .     S
C1905  C1906   1.526   .     S
C1905  C728    1.551   1_565 S
C1905  H975    1.111   1_565 S
C1906  H2154   1.111   .     S
C1906  H2155   1.111   .     S
C1906  H980    1.111   1_565 S
C1907  C1908   1.551   .     S
C1907  H2158   1.109   .     S
C1907  O2334   1.426   .     S
C1907  H2157   1.109   .     S
C1908  C1909   1.526   .     S
C1908  H2159   1.107   .     S
C1908  H2160   1.110   .     S
C1909  H2163   1.111   .     S
C1909  H2162   1.110   .     S
C1909  H2161   1.110   .     S
C1910  C1937   1.450   .     S
C1911  H2165   1.108   .     S
C1911  C1912   1.552   .     S
C1911  O2335   1.431   .     S
C1911  H2166   1.109   .     S
C1912  H2167   1.110   .     S
C1912  C1325   1.526   1_655 S
C1912  H1580   1.111   1_655 S
C1913  H2170   1.111   .     S
C1913  H2169   1.110   .     S
C1914  C1938   1.466   .     S
C1914  C1200   1.406   1_655 S
C1915  C1994   1.411   .     A
C1915  O2301   1.385   .     S
C1915  C1333   1.393   1_655 S
C1916  C1995   1.423   .     A
C1916  C1331   1.424   1_655 S
C1916  O1714   1.390   1_655 S
C1917  C1923   1.408   .     A
C1917  C1996   1.419   .     A
C1917  O2303   1.387   .     S
C1918  C1922   1.407   .     A
C1918  O2304   1.387   .     S
C1919  O2305   1.389   .     S
C1920  O2321   1.388   .     S
C1921  O2306   1.385   .     S
C1922  O2307   1.386   .     S
C1923  O2309   1.385   .     S
C1924  O2310   1.387   .     S
C1924  C1929   1.408   1_556 S
C1925  O2311   1.389   .     S
C1925  C1928   1.410   1_554 S
C1926  O2312   1.388   .     S
C1926  C1932   1.416   1_556 S
C1927  O2313   1.388   .     S
C1927  C1930   1.416   1_554 S
C1928  O2314   1.387   .     S
C1928  C1925   1.410   1_556 S
C1929  O2315   1.387   .     S
C1929  C1924   1.408   1_554 S
C1930  O2316   1.387   .     S
C1930  C1927   1.416   1_556 S
C1931  O2322   1.389   .     S
C1932  O2317   1.391   .     S
C1932  C1926   1.416   1_554 S
C1933  O2297   1.273   .     A
C1933  O1160   1.283   1_565 S
C1934  O2254   1.272   .     A
C1934  O1132   1.284   1_565 S
C1935  O2255   1.275   .     A
C1935  O1731   1.282   1_655 S
C1936  O2256   1.275   .     A
C1937  O2261   1.278   .     A
C1937  O2257   1.274   .     A
C1938  O1670   1.280   1_655 S
C1938  O1674   1.281   1_655 S
C1939  O2259   1.276   .     A
C1939  O2263   1.276   .     A
C1940  O2260   1.280   .     A
C1940  O2265   1.281   .     A
C1941  O2294   1.281   .     A
C1941  O2266   1.282   .     A
C1942  O2323   1.389   .     S
C1942  C1994   1.405   .     A
C1943  O2295   1.281   .     A
C1943  O2267   1.282   .     A
C1944  O2292   1.280   .     A
C1944  O2268   1.281   .     A
C1945  O2269   1.280   .     A
C1945  O2293   1.280   .     A
C1946  O2299   1.279   .     A
C1946  O2270   1.280   .     A
C1947  O2271   1.280   .     A
C1947  O2300   1.280   .     A
C1948  O2272   1.281   .     A
C1948  O2296   1.281   .     A
C1949  O2298   1.282   .     A
C1949  O2273   1.280   .     A
C1950  O2285   1.280   .     A
C1950  O2274   1.280   .     A
C1951  O2276   1.280   .     A
C1951  O2287   1.280   .     A
C1952  O2277   1.281   .     A
C1952  O2283   1.282   .     A
C1953  O2324   1.390   .     S
C1953  C1995   1.417   .     A
C1953  C1266   1.413   1_655 S
C1954  O2284   1.282   .     A
C1954  O2278   1.281   .     A
C1955  O2290   1.281   .     A
C1955  O2279   1.281   .     A
C1956  O2280   1.282   .     A
C1956  O2291   1.280   .     A
C1957  O2288   1.280   .     A
C1957  O2281   1.280   .     A
C1958  O2289   1.279   .     A
C1958  O2282   1.280   .     A
C1959  C1976   1.386   .     A
C1959  H1997   1.083   .     S
C1960  C1974   1.386   .     A
C1960  H2108   1.083   .     S
C1961  C1973   1.386   .     A
C1961  H2176   1.083   .     S
C1962  H2187   1.083   .     S
C1962  C1972   1.386   .     A
C1963  C1971   1.386   .     A
C1963  H2198   1.083   .     S
C1964  C1996   1.412   .     A
C1964  O2325   1.389   .     S
C1965  C1970   1.386   .     A
C1965  H2209   1.083   .     S
C1966  H2220   1.083   .     S
C1966  C1969   1.386   .     A
C1967  H2231   1.083   .     S
C1967  C1968   1.386   .     A
C1968  H2242   1.083   .     S
C1969  H1998   1.083   .     S
C1970  H2009   1.083   .     S
C1971  H2020   1.083   .     S
C1972  H2031   1.083   .     S
C1973  H2042   1.083   .     S
C1974  H2053   1.083   .     S
C1975  O2326   1.389   .     S
C1976  H2064   1.083   .     S
C1977  C1993   1.386   .     A
C1977  H2075   1.083   .     S
C1978  H2086   1.083   .     S
C1978  C1992   1.386   .     A
C1979  H2097   1.083   .     S
C1979  C1991   1.386   .     A
C1980  H2109   1.083   .     S
C1980  C1990   1.386   .     A
C1981  H2120   1.083   .     S
C1981  C1989   1.386   .     A
C1982  H2131   1.082   .     S
C1982  C1988   1.385   .     A
C1983  H2142   1.083   .     S
C1983  C1987   1.386   .     A
C1984  C1985   1.385   .     A
C1984  H2153   1.081   .     S
C1985  H2164   1.083   .     S
C1986  O2327   1.391   .     S
C1987  H2172   1.082   .     S
C1988  H2173   1.083   .     S
C1989  H2174   1.081   .     S
C1990  H2175   1.083   .     S
C1991  H2177   1.082   .     S
C1992  H2178   1.083   .     S
C1993  H2179   1.083   .     S
C1995  C1212   1.415   1_655 S
H2003  C1840   1.113   1_554 S
H2011  C1844   1.110   1_556 S
H2014  C1846   1.111   1_556 S
H2021  C1848   1.108   1_554 S
H2022  C1849   1.111   1_554 S
H2026  C1850   1.111   1_556 S
H2034  C1853   1.111   1_554 S
H2121  C716    1.111   1_565 S
H2125  C717    1.111   1_565 S
H2137  C1310   1.112   1_655 S
H2171  C1325   1.111   1_655 S
H2217  C1235   1.111   1_655 S
H2228  C652    1.109   1_565 S
H2232  C653    1.110   1_565 S
H2233  C653    1.111   1_565 S
H2236  C655    1.109   1_565 S
H2239  C657    1.110   1_565 S
H2240  C657    1.111   1_565 S
H2245  C1835   1.108   1_554 S
H2246  C1836   1.110   1_554 S
H2247  C1836   1.110   1_554 S
H2250  C1837   1.110   1_556 S
O2253  Zn2348  1.946   .     S
O2253  Zn2340  1.946   .     S
O2253  Zn2337  1.949   .     S
O2254  Zn2339  1.945   .     S
O2255  Zn2342  1.946   .     S
O2256  Zn2341  1.946   .     S
O2257  Zn2351  1.945   .     S
O2258  Zn2350  1.945   .     S
O2259  Zn2345  1.944   .     S
O2260  Zn2337  1.944   .     S
O2261  Zn2347  1.945   .     S
O2262  Zn2346  1.945   .     S
O2263  Zn2349  1.946   .     S
O2264  Zn2343  1.945   .     S
O2264  Zn2345  1.949   .     S
O2264  Zn2349  1.946   .     S
O2265  Zn2348  1.946   .     S
O2266  Zn2340  1.937   .     S
O2267  Zn2339  1.937   .     S
O2268  Zn2342  1.937   .     S
O2269  Zn2341  1.937   .     S
O2270  Zn2344  1.936   .     S
O2271  Zn2343  1.936   .     S
O2272  Zn2338  1.936   .     S
O2273  Zn2352  1.936   .     S
O2274  Zn2339  1.936   .     S
O2275  Zn2338  1.949   .     S
O2275  Zn2346  1.946   .     S
O2275  Zn2350  1.945   .     S
O2276  Zn2340  1.936   .     S
O2277  Zn2352  1.935   .     S
O2278  Zn2338  1.935   .     S
O2279  Zn2343  1.938   .     S
O2280  Zn2344  1.938   .     S
O2281  Zn2341  1.935   .     S
O2282  Zn2342  1.935   .     S
O2283  Zn1759  1.937   1_655 S
O2284  Zn2346  1.937   .     S
O2285  Zn1173  1.937   1_565 S
O2286  Zn2347  1.946   .     S
O2286  Zn2351  1.945   .     S
O2286  Zn2341  1.946   .     S
O2287  Zn2348  1.937   .     S
O2288  Zn2351  1.936   .     S
O2289  Zn1762  1.936   1_655 S
O2290  Zn2345  1.936   .     S
O2291  Zn1161  1.936   1_565 S
O2292  Zn1758  1.936   1_655 S
O2293  Zn2347  1.936   .     S
O2294  Zn2337  1.935   .     S
O2295  Zn1169  1.935   1_565 S
O2296  Zn2350  1.938   .     S
O2297  Zn2344  1.945   .     S
O2298  Zn1763  1.938   1_655 S
O2299  Zn1172  1.935   1_565 S
O2300  Zn2349  1.935   .     S
O2307  C651    1.416   1_565 S
O2308  Zn2343  1.945   .     S
O2309  C654    1.415   1_565 S
O2319  Zn2338  1.944   .     S
O2330  Zn2352  1.944   .     S
O2330  C1348   1.282   1_655 S
O2336  Zn2340  1.945   .     S
Zn2339 O1088   1.946   1_565 S
Zn2342 O1687   1.946   1_655 S
Zn2344 O1077   1.945   1_565 S
Zn2352 O1698   1.949   1_655 S
