data_str_m2_o10_o17_pcu_sym.1
_audit_creation_date              2020-01-03
_audit_creation_method            'Materials Studio'
_symmetry_space_group_name_H-M    'P1'
_symmetry_Int_Tables_number       1
_symmetry_cell_setting            triclinic
loop_
_symmetry_equiv_pos_as_xyz
  x,y,z
_cell_length_a                    30.0786
_cell_length_b                    26.0017
_cell_length_c                    22.5210
_cell_angle_alpha                 102.9058
_cell_angle_beta                  95.4359
_cell_angle_gamma                 93.4807
loop_
_atom_site_label
_atom_site_type_symbol
_atom_site_fract_x
_atom_site_fract_y
_atom_site_fract_z
_atom_site_U_iso_or_equiv
_atom_site_adp_type
_atom_site_occupancy
C1     C     0.24767   0.06660   0.15114   0.00000  Uiso   1.00
C2     C     0.08785   0.14743   0.11195   0.00000  Uiso   1.00
C3     C     0.38396   0.16632   0.16644   0.00000  Uiso   1.00
C4     C     0.11591   0.16554   0.16706   0.00000  Uiso   1.00
C5     C     0.40227   0.14856   0.11129   0.00000  Uiso   1.00
C6     C     0.09758   0.18302   0.22228   0.00000  Uiso   1.00
C7     C     0.44848   0.14753   0.11119   0.00000  Uiso   1.00
C8     C     0.05131   0.18307   0.22263   0.00000  Uiso   1.00
C9     C     0.47661   0.16526   0.16687   0.00000  Uiso   1.00
C10    C     0.02317   0.16501   0.16704   0.00000  Uiso   1.00
C11    C     0.45823   0.18337   0.22235   0.00000  Uiso   1.00
C12    C     0.25110   0.26671   0.18227   0.00000  Uiso   1.00
C13    C     0.04154   0.14688   0.11156   0.00000  Uiso   1.00
C14    C     0.46702   0.12909   0.05643   0.00000  Uiso   1.00
C15    C     0.03274   0.20115   0.27749   0.00000  Uiso   1.00
C16    C     0.17358   0.09959   0.32197   0.00000  Uiso   1.00
C17    C     0.14733   0.05830   0.26915   0.00000  Uiso   1.00
C18    C     0.09835   0.04988   0.27965   0.00000  Uiso   1.00
C19    C     0.30202   0.25942   0.02769   0.00000  Uiso   1.00
C20    C     0.34236   0.27892   0.33296   0.00000  Uiso   1.00
C21    C     0.34821   0.00603   0.01387   0.00000  Uiso   1.00
C22    C     0.01332   0.12869   0.05665   0.00000  Uiso   1.00
C23    C     0.48640   0.20134   0.27734   0.00000  Uiso   1.00
C24    C     0.24481   0.01051   0.14274   0.00000  Uiso   1.00
C25    C     0.25188   0.32280   0.19101   0.00000  Uiso   1.00
C26    C     0.16438   0.16625   0.16680   0.00000  Uiso   1.00
C27    C     0.33558   0.16671   0.16653   0.00000  Uiso   1.00
C28    C     0.41195   0.18330   0.22180   0.00000  Uiso   1.00
Cu29   Cu    0.25500   0.17246   0.22813   0.00000  Uiso   1.00
Cu30   Cu    0.24499   0.16087   0.10521   0.00000  Uiso   1.00
H31    H     0.39781   0.19681   0.26450   0.00000  Uiso   1.00
H32    H     0.25889   0.01358   0.23749   0.00000  Uiso   1.00
H33    H     0.15600   0.13664   0.32910   0.00000  Uiso   1.00
H34    H     0.17515   0.08316   0.03011   0.00000  Uiso   1.00
H35    H     0.14883   0.07137   0.22559   0.00000  Uiso   1.00
H36    H     0.16289   0.02007   0.26440   0.00000  Uiso   1.00
H37    H     0.09574   0.03819   0.32380   0.00000  Uiso   1.00
H38    H     0.08092   0.01799   0.24190   0.00000  Uiso   1.00
H39    H     0.08163   0.08682   0.28003   0.00000  Uiso   1.00
H40    H     0.30717   0.27829   0.07738   0.00000  Uiso   1.00
H41    H     0.27052   0.27338   0.00900   0.00000  Uiso   1.00
H42    H     0.10195   0.13353   0.06937   0.00000  Uiso   1.00
H43    H     0.37324   0.26402   0.01850   0.00000  Uiso   1.00
H44    H     0.33790   0.26384   0.28257   0.00000  Uiso   1.00
H45    H     0.31776   0.02201   0.32885   0.00000  Uiso   1.00
H46    H     0.37729   0.01903   0.32563   0.00000  Uiso   1.00
H47    H     0.35447   0.02247   0.06417   0.00000  Uiso   1.00
H48    H     0.38059   0.13501   0.06858   0.00000  Uiso   1.00
H49    H     0.11928   0.19721   0.26486   0.00000  Uiso   1.00
H50    H     0.44575   0.11522   0.01345   0.00000  Uiso   1.00
H51    H     0.05402   0.21509   0.32045   0.00000  Uiso   1.00
H52    H     0.02700   0.11448   0.01385   0.00000  Uiso   1.00
H53    H     0.47258   0.21558   0.32015   0.00000  Uiso   1.00
H54    H     0.23689   0.31978   0.09645   0.00000  Uiso   1.00
N55    N     0.23744   0.15214   0.01284   0.00000  Uiso   1.00
N56    N     0.26255   0.18119   0.32049   0.00000  Uiso   1.00
O57    O     0.25325   0.09538   0.20659   0.00000  Uiso   1.00
O58    O     0.30055   0.20410   0.02204   0.00000  Uiso   1.00
O59    O     0.24674   0.23796   0.12674   0.00000  Uiso   1.00
O60    O     0.24480   0.08559   0.10279   0.00000  Uiso   1.00
O61    O     0.25520   0.24774   0.23055   0.00000  Uiso   1.00
O62    O     0.18935   0.17155   0.21857   0.00000  Uiso   1.00
O63    O     0.31064   0.16179   0.11476   0.00000  Uiso   1.00
O64    O     0.18090   0.16176   0.11477   0.00000  Uiso   1.00
O65    O     0.31910   0.17157   0.21857   0.00000  Uiso   1.00
O66    O     0.21682   0.10897   0.30623   0.00000  Uiso   1.00
C67    C     0.74767   0.06660   0.15114   0.00000  Uiso   1.00
C68    C     0.58785   0.14743   0.11195   0.00000  Uiso   1.00
C69    C     0.88396   0.16632   0.16644   0.00000  Uiso   1.00
C70    C     0.61591   0.16554   0.16706   0.00000  Uiso   1.00
C71    C     0.90227   0.14856   0.11129   0.00000  Uiso   1.00
C72    C     0.59758   0.18302   0.22228   0.00000  Uiso   1.00
C73    C     0.94848   0.14753   0.11119   0.00000  Uiso   1.00
C74    C     0.55131   0.18307   0.22263   0.00000  Uiso   1.00
C75    C     0.97661   0.16526   0.16687   0.00000  Uiso   1.00
C76    C     0.52317   0.16501   0.16704   0.00000  Uiso   1.00
C77    C     0.95823   0.18337   0.22235   0.00000  Uiso   1.00
C78    C     0.75110   0.26671   0.18227   0.00000  Uiso   1.00
C79    C     0.54154   0.14688   0.11156   0.00000  Uiso   1.00
C80    C     0.96702   0.12909   0.05643   0.00000  Uiso   1.00
C81    C     0.53274   0.20115   0.27749   0.00000  Uiso   1.00
C82    C     0.67358   0.09959   0.32197   0.00000  Uiso   1.00
C83    C     0.64733   0.05830   0.26915   0.00000  Uiso   1.00
C84    C     0.59835   0.04988   0.27965   0.00000  Uiso   1.00
C85    C     0.80202   0.25942   0.02769   0.00000  Uiso   1.00
C86    C     0.84236   0.27892   0.33296   0.00000  Uiso   1.00
C87    C     0.84821   0.00603   0.01387   0.00000  Uiso   1.00
C88    C     0.51332   0.12869   0.05665   0.00000  Uiso   1.00
C89    C     0.98640   0.20134   0.27734   0.00000  Uiso   1.00
C90    C     0.74481   0.01051   0.14274   0.00000  Uiso   1.00
C91    C     0.75188   0.32280   0.19101   0.00000  Uiso   1.00
C92    C     0.66438   0.16625   0.16680   0.00000  Uiso   1.00
C93    C     0.83558   0.16671   0.16653   0.00000  Uiso   1.00
C94    C     0.91195   0.18330   0.22180   0.00000  Uiso   1.00
Cu95   Cu    0.75500   0.17246   0.22813   0.00000  Uiso   1.00
Cu96   Cu    0.74499   0.16087   0.10521   0.00000  Uiso   1.00
H97    H     0.89781   0.19681   0.26450   0.00000  Uiso   1.00
H98    H     0.75889   0.01358   0.23749   0.00000  Uiso   1.00
H99    H     0.65600   0.13664   0.32910   0.00000  Uiso   1.00
H100   H     0.67515   0.08316   0.03011   0.00000  Uiso   1.00
H101   H     0.64883   0.07137   0.22559   0.00000  Uiso   1.00
H102   H     0.66289   0.02007   0.26440   0.00000  Uiso   1.00
H103   H     0.59574   0.03819   0.32380   0.00000  Uiso   1.00
H104   H     0.58092   0.01799   0.24190   0.00000  Uiso   1.00
H105   H     0.58163   0.08682   0.28003   0.00000  Uiso   1.00
H106   H     0.80717   0.27829   0.07738   0.00000  Uiso   1.00
H107   H     0.77052   0.27338   0.00900   0.00000  Uiso   1.00
H108   H     0.60195   0.13353   0.06937   0.00000  Uiso   1.00
H109   H     0.87324   0.26402   0.01850   0.00000  Uiso   1.00
H110   H     0.83790   0.26384   0.28257   0.00000  Uiso   1.00
H111   H     0.81776   0.02201   0.32885   0.00000  Uiso   1.00
H112   H     0.87729   0.01903   0.32563   0.00000  Uiso   1.00
H113   H     0.85447   0.02247   0.06417   0.00000  Uiso   1.00
H114   H     0.88059   0.13501   0.06858   0.00000  Uiso   1.00
H115   H     0.61928   0.19721   0.26486   0.00000  Uiso   1.00
H116   H     0.94575   0.11522   0.01345   0.00000  Uiso   1.00
H117   H     0.55402   0.21509   0.32045   0.00000  Uiso   1.00
H118   H     0.52700   0.11448   0.01385   0.00000  Uiso   1.00
H119   H     0.97258   0.21558   0.32015   0.00000  Uiso   1.00
H120   H     0.73689   0.31978   0.09645   0.00000  Uiso   1.00
N121   N     0.73744   0.15214   0.01284   0.00000  Uiso   1.00
N122   N     0.76255   0.18119   0.32049   0.00000  Uiso   1.00
O123   O     0.75325   0.09538   0.20659   0.00000  Uiso   1.00
O124   O     0.80055   0.20410   0.02204   0.00000  Uiso   1.00
O125   O     0.74674   0.23796   0.12674   0.00000  Uiso   1.00
O126   O     0.74480   0.08559   0.10279   0.00000  Uiso   1.00
O127   O     0.75520   0.24774   0.23055   0.00000  Uiso   1.00
O128   O     0.68935   0.17155   0.21857   0.00000  Uiso   1.00
O129   O     0.81064   0.16179   0.11476   0.00000  Uiso   1.00
O130   O     0.68090   0.16176   0.11477   0.00000  Uiso   1.00
O131   O     0.81910   0.17157   0.21857   0.00000  Uiso   1.00
O132   O     0.71682   0.10897   0.30623   0.00000  Uiso   1.00
C133   C     0.24767   0.39993   0.15114   0.00000  Uiso   1.00
C134   C     0.08785   0.48077   0.11195   0.00000  Uiso   1.00
C135   C     0.38396   0.49965   0.16644   0.00000  Uiso   1.00
C136   C     0.11591   0.49888   0.16706   0.00000  Uiso   1.00
C137   C     0.40227   0.48190   0.11129   0.00000  Uiso   1.00
C138   C     0.09758   0.51636   0.22228   0.00000  Uiso   1.00
C139   C     0.44848   0.48087   0.11119   0.00000  Uiso   1.00
C140   C     0.05131   0.51640   0.22263   0.00000  Uiso   1.00
C141   C     0.47661   0.49859   0.16687   0.00000  Uiso   1.00
C142   C     0.02317   0.49834   0.16704   0.00000  Uiso   1.00
C143   C     0.45823   0.51670   0.22235   0.00000  Uiso   1.00
C144   C     0.25110   0.60005   0.18227   0.00000  Uiso   1.00
C145   C     0.04154   0.48022   0.11156   0.00000  Uiso   1.00
C146   C     0.46702   0.46242   0.05643   0.00000  Uiso   1.00
C147   C     0.03274   0.53449   0.27749   0.00000  Uiso   1.00
C148   C     0.17358   0.43293   0.32197   0.00000  Uiso   1.00
C149   C     0.14733   0.39163   0.26915   0.00000  Uiso   1.00
C150   C     0.09835   0.38321   0.27965   0.00000  Uiso   1.00
C151   C     0.30202   0.59276   0.02769   0.00000  Uiso   1.00
C152   C     0.34236   0.61225   0.33296   0.00000  Uiso   1.00
C153   C     0.34821   0.33937   0.01387   0.00000  Uiso   1.00
C154   C     0.01332   0.46203   0.05665   0.00000  Uiso   1.00
C155   C     0.48640   0.53468   0.27734   0.00000  Uiso   1.00
C156   C     0.24481   0.34384   0.14274   0.00000  Uiso   1.00
C157   C     0.25188   0.65614   0.19101   0.00000  Uiso   1.00
C158   C     0.16438   0.49959   0.16680   0.00000  Uiso   1.00
C159   C     0.33558   0.50005   0.16653   0.00000  Uiso   1.00
C160   C     0.41195   0.51663   0.22180   0.00000  Uiso   1.00
Cu161  Cu    0.25500   0.50579   0.22813   0.00000  Uiso   1.00
Cu162  Cu    0.24499   0.49421   0.10521   0.00000  Uiso   1.00
H163   H     0.39781   0.53015   0.26450   0.00000  Uiso   1.00
H164   H     0.25889   0.34692   0.23749   0.00000  Uiso   1.00
H165   H     0.15600   0.46997   0.32910   0.00000  Uiso   1.00
H166   H     0.17515   0.41649   0.03011   0.00000  Uiso   1.00
H167   H     0.14883   0.40470   0.22559   0.00000  Uiso   1.00
H168   H     0.16289   0.35341   0.26440   0.00000  Uiso   1.00
H169   H     0.09574   0.37152   0.32380   0.00000  Uiso   1.00
H170   H     0.08092   0.35133   0.24190   0.00000  Uiso   1.00
H171   H     0.08163   0.42016   0.28003   0.00000  Uiso   1.00
H172   H     0.30717   0.61162   0.07738   0.00000  Uiso   1.00
H173   H     0.27052   0.60671   0.00900   0.00000  Uiso   1.00
H174   H     0.10195   0.46687   0.06937   0.00000  Uiso   1.00
H175   H     0.37324   0.59735   0.01850   0.00000  Uiso   1.00
H176   H     0.33790   0.59717   0.28257   0.00000  Uiso   1.00
H177   H     0.31776   0.35534   0.32885   0.00000  Uiso   1.00
H178   H     0.37729   0.35236   0.32563   0.00000  Uiso   1.00
H179   H     0.35447   0.35581   0.06417   0.00000  Uiso   1.00
H180   H     0.38059   0.46834   0.06858   0.00000  Uiso   1.00
H181   H     0.11928   0.53054   0.26486   0.00000  Uiso   1.00
H182   H     0.44575   0.44855   0.01345   0.00000  Uiso   1.00
H183   H     0.05402   0.54843   0.32045   0.00000  Uiso   1.00
H184   H     0.02700   0.44781   0.01385   0.00000  Uiso   1.00
H185   H     0.47258   0.54891   0.32015   0.00000  Uiso   1.00
H186   H     0.23689   0.65312   0.09645   0.00000  Uiso   1.00
N187   N     0.23744   0.48547   0.01284   0.00000  Uiso   1.00
N188   N     0.26255   0.51453   0.32049   0.00000  Uiso   1.00
O189   O     0.25325   0.42871   0.20659   0.00000  Uiso   1.00
O190   O     0.30055   0.53744   0.02204   0.00000  Uiso   1.00
O191   O     0.24674   0.57129   0.12674   0.00000  Uiso   1.00
O192   O     0.24480   0.41892   0.10279   0.00000  Uiso   1.00
O193   O     0.25520   0.58108   0.23055   0.00000  Uiso   1.00
O194   O     0.18935   0.50488   0.21857   0.00000  Uiso   1.00
O195   O     0.31064   0.49512   0.11476   0.00000  Uiso   1.00
O196   O     0.18090   0.49510   0.11477   0.00000  Uiso   1.00
O197   O     0.31910   0.50490   0.21857   0.00000  Uiso   1.00
O198   O     0.21682   0.44230   0.30623   0.00000  Uiso   1.00
C199   C     0.74767   0.39993   0.15114   0.00000  Uiso   1.00
C200   C     0.58785   0.48077   0.11195   0.00000  Uiso   1.00
C201   C     0.88396   0.49965   0.16644   0.00000  Uiso   1.00
C202   C     0.61591   0.49888   0.16706   0.00000  Uiso   1.00
C203   C     0.90227   0.48190   0.11129   0.00000  Uiso   1.00
C204   C     0.59758   0.51636   0.22228   0.00000  Uiso   1.00
C205   C     0.94848   0.48087   0.11119   0.00000  Uiso   1.00
C206   C     0.55131   0.51640   0.22263   0.00000  Uiso   1.00
C207   C     0.97661   0.49859   0.16687   0.00000  Uiso   1.00
C208   C     0.52317   0.49834   0.16704   0.00000  Uiso   1.00
C209   C     0.95823   0.51670   0.22235   0.00000  Uiso   1.00
C210   C     0.75110   0.60005   0.18227   0.00000  Uiso   1.00
C211   C     0.54154   0.48022   0.11156   0.00000  Uiso   1.00
C212   C     0.96702   0.46242   0.05643   0.00000  Uiso   1.00
C213   C     0.53274   0.53449   0.27749   0.00000  Uiso   1.00
C214   C     0.67358   0.43293   0.32197   0.00000  Uiso   1.00
C215   C     0.64733   0.39163   0.26915   0.00000  Uiso   1.00
C216   C     0.59835   0.38321   0.27965   0.00000  Uiso   1.00
C217   C     0.80202   0.59276   0.02769   0.00000  Uiso   1.00
C218   C     0.84236   0.61225   0.33296   0.00000  Uiso   1.00
C219   C     0.84821   0.33937   0.01387   0.00000  Uiso   1.00
C220   C     0.51332   0.46203   0.05665   0.00000  Uiso   1.00
C221   C     0.98640   0.53468   0.27734   0.00000  Uiso   1.00
C222   C     0.74481   0.34384   0.14274   0.00000  Uiso   1.00
C223   C     0.75188   0.65614   0.19101   0.00000  Uiso   1.00
C224   C     0.66438   0.49959   0.16680   0.00000  Uiso   1.00
C225   C     0.83558   0.50005   0.16653   0.00000  Uiso   1.00
C226   C     0.91195   0.51663   0.22180   0.00000  Uiso   1.00
Cu227  Cu    0.75500   0.50579   0.22813   0.00000  Uiso   1.00
Cu228  Cu    0.74499   0.49421   0.10521   0.00000  Uiso   1.00
H229   H     0.89781   0.53015   0.26450   0.00000  Uiso   1.00
H230   H     0.75889   0.34692   0.23749   0.00000  Uiso   1.00
H231   H     0.65600   0.46997   0.32910   0.00000  Uiso   1.00
H232   H     0.67515   0.41649   0.03011   0.00000  Uiso   1.00
H233   H     0.64883   0.40470   0.22559   0.00000  Uiso   1.00
H234   H     0.66289   0.35341   0.26440   0.00000  Uiso   1.00
H235   H     0.59574   0.37152   0.32380   0.00000  Uiso   1.00
H236   H     0.58092   0.35133   0.24190   0.00000  Uiso   1.00
H237   H     0.58163   0.42016   0.28003   0.00000  Uiso   1.00
H238   H     0.80717   0.61162   0.07738   0.00000  Uiso   1.00
H239   H     0.77052   0.60671   0.00900   0.00000  Uiso   1.00
H240   H     0.60195   0.46687   0.06937   0.00000  Uiso   1.00
H241   H     0.87324   0.59735   0.01850   0.00000  Uiso   1.00
H242   H     0.83790   0.59717   0.28257   0.00000  Uiso   1.00
H243   H     0.81776   0.35534   0.32885   0.00000  Uiso   1.00
H244   H     0.87729   0.35236   0.32563   0.00000  Uiso   1.00
H245   H     0.85447   0.35581   0.06417   0.00000  Uiso   1.00
H246   H     0.88059   0.46834   0.06858   0.00000  Uiso   1.00
H247   H     0.61928   0.53054   0.26486   0.00000  Uiso   1.00
H248   H     0.94575   0.44855   0.01345   0.00000  Uiso   1.00
H249   H     0.55402   0.54843   0.32045   0.00000  Uiso   1.00
H250   H     0.52700   0.44781   0.01385   0.00000  Uiso   1.00
H251   H     0.97258   0.54891   0.32015   0.00000  Uiso   1.00
H252   H     0.73689   0.65312   0.09645   0.00000  Uiso   1.00
N253   N     0.73744   0.48547   0.01284   0.00000  Uiso   1.00
N254   N     0.76255   0.51453   0.32049   0.00000  Uiso   1.00
O255   O     0.75325   0.42871   0.20659   0.00000  Uiso   1.00
O256   O     0.80055   0.53744   0.02204   0.00000  Uiso   1.00
O257   O     0.74674   0.57129   0.12674   0.00000  Uiso   1.00
O258   O     0.74480   0.41892   0.10279   0.00000  Uiso   1.00
O259   O     0.75520   0.58108   0.23055   0.00000  Uiso   1.00
O260   O     0.68935   0.50488   0.21857   0.00000  Uiso   1.00
O261   O     0.81064   0.49512   0.11476   0.00000  Uiso   1.00
O262   O     0.68090   0.49510   0.11477   0.00000  Uiso   1.00
O263   O     0.81910   0.50490   0.21857   0.00000  Uiso   1.00
O264   O     0.71682   0.44230   0.30623   0.00000  Uiso   1.00
C265   C     0.24767   0.73327   0.15114   0.00000  Uiso   1.00
C266   C     0.08785   0.81410   0.11195   0.00000  Uiso   1.00
C267   C     0.38396   0.83299   0.16644   0.00000  Uiso   1.00
C268   C     0.11591   0.83221   0.16706   0.00000  Uiso   1.00
C269   C     0.40227   0.81523   0.11129   0.00000  Uiso   1.00
C270   C     0.09758   0.84969   0.22228   0.00000  Uiso   1.00
C271   C     0.44848   0.81420   0.11119   0.00000  Uiso   1.00
C272   C     0.05131   0.84973   0.22263   0.00000  Uiso   1.00
C273   C     0.47661   0.83193   0.16687   0.00000  Uiso   1.00
C274   C     0.02317   0.83168   0.16704   0.00000  Uiso   1.00
C275   C     0.45823   0.85004   0.22235   0.00000  Uiso   1.00
C276   C     0.25110   0.93338   0.18227   0.00000  Uiso   1.00
C277   C     0.04154   0.81355   0.11156   0.00000  Uiso   1.00
C278   C     0.46702   0.79576   0.05643   0.00000  Uiso   1.00
C279   C     0.03274   0.86782   0.27749   0.00000  Uiso   1.00
C280   C     0.17358   0.76626   0.32197   0.00000  Uiso   1.00
C281   C     0.14733   0.72496   0.26915   0.00000  Uiso   1.00
C282   C     0.09835   0.71655   0.27965   0.00000  Uiso   1.00
C283   C     0.30202   0.92609   0.02769   0.00000  Uiso   1.00
C284   C     0.34236   0.94558   0.33296   0.00000  Uiso   1.00
C285   C     0.34821   0.67270   0.01387   0.00000  Uiso   1.00
C286   C     0.01332   0.79536   0.05665   0.00000  Uiso   1.00
C287   C     0.48640   0.86801   0.27734   0.00000  Uiso   1.00
C288   C     0.24481   0.67718   0.14274   0.00000  Uiso   1.00
C289   C     0.25188   0.98947   0.19101   0.00000  Uiso   1.00
C290   C     0.16438   0.83292   0.16680   0.00000  Uiso   1.00
C291   C     0.33558   0.83338   0.16653   0.00000  Uiso   1.00
C292   C     0.41195   0.84997   0.22180   0.00000  Uiso   1.00
Cu293  Cu    0.25500   0.83913   0.22813   0.00000  Uiso   1.00
Cu294  Cu    0.24499   0.82754   0.10521   0.00000  Uiso   1.00
H295   H     0.39781   0.86348   0.26450   0.00000  Uiso   1.00
H296   H     0.25889   0.68025   0.23749   0.00000  Uiso   1.00
H297   H     0.15600   0.80330   0.32910   0.00000  Uiso   1.00
H298   H     0.17515   0.74982   0.03011   0.00000  Uiso   1.00
H299   H     0.14883   0.73803   0.22559   0.00000  Uiso   1.00
H300   H     0.16289   0.68674   0.26440   0.00000  Uiso   1.00
H301   H     0.09574   0.70486   0.32380   0.00000  Uiso   1.00
H302   H     0.08092   0.68466   0.24190   0.00000  Uiso   1.00
H303   H     0.08163   0.75349   0.28003   0.00000  Uiso   1.00
H304   H     0.30717   0.94495   0.07738   0.00000  Uiso   1.00
H305   H     0.27052   0.94005   0.00900   0.00000  Uiso   1.00
H306   H     0.10195   0.80020   0.06937   0.00000  Uiso   1.00
H307   H     0.37324   0.93068   0.01850   0.00000  Uiso   1.00
H308   H     0.33790   0.93051   0.28257   0.00000  Uiso   1.00
H309   H     0.31776   0.68867   0.32885   0.00000  Uiso   1.00
H310   H     0.37729   0.68569   0.32563   0.00000  Uiso   1.00
H311   H     0.35447   0.68914   0.06417   0.00000  Uiso   1.00
H312   H     0.38059   0.80167   0.06858   0.00000  Uiso   1.00
H313   H     0.11928   0.86387   0.26486   0.00000  Uiso   1.00
H314   H     0.44575   0.78188   0.01345   0.00000  Uiso   1.00
H315   H     0.05402   0.88176   0.32045   0.00000  Uiso   1.00
H316   H     0.02700   0.78115   0.01385   0.00000  Uiso   1.00
H317   H     0.47258   0.88224   0.32015   0.00000  Uiso   1.00
H318   H     0.23689   0.98645   0.09645   0.00000  Uiso   1.00
N319   N     0.23744   0.81881   0.01284   0.00000  Uiso   1.00
N320   N     0.26255   0.84786   0.32049   0.00000  Uiso   1.00
O321   O     0.25325   0.76204   0.20659   0.00000  Uiso   1.00
O322   O     0.30055   0.87077   0.02204   0.00000  Uiso   1.00
O323   O     0.24674   0.90462   0.12674   0.00000  Uiso   1.00
O324   O     0.24480   0.75226   0.10279   0.00000  Uiso   1.00
O325   O     0.25520   0.91441   0.23055   0.00000  Uiso   1.00
O326   O     0.18935   0.83821   0.21857   0.00000  Uiso   1.00
O327   O     0.31064   0.82845   0.11476   0.00000  Uiso   1.00
O328   O     0.18090   0.82843   0.11477   0.00000  Uiso   1.00
O329   O     0.31910   0.83824   0.21857   0.00000  Uiso   1.00
O330   O     0.21682   0.77564   0.30623   0.00000  Uiso   1.00
C331   C     0.74767   0.73327   0.15114   0.00000  Uiso   1.00
C332   C     0.58785   0.81410   0.11195   0.00000  Uiso   1.00
C333   C     0.88396   0.83299   0.16644   0.00000  Uiso   1.00
C334   C     0.61591   0.83221   0.16706   0.00000  Uiso   1.00
C335   C     0.90227   0.81523   0.11129   0.00000  Uiso   1.00
C336   C     0.59758   0.84969   0.22228   0.00000  Uiso   1.00
C337   C     0.94848   0.81420   0.11119   0.00000  Uiso   1.00
C338   C     0.55131   0.84973   0.22263   0.00000  Uiso   1.00
C339   C     0.97661   0.83193   0.16687   0.00000  Uiso   1.00
C340   C     0.52317   0.83168   0.16704   0.00000  Uiso   1.00
C341   C     0.95823   0.85004   0.22235   0.00000  Uiso   1.00
C342   C     0.75110   0.93338   0.18227   0.00000  Uiso   1.00
C343   C     0.54154   0.81355   0.11156   0.00000  Uiso   1.00
C344   C     0.96702   0.79576   0.05643   0.00000  Uiso   1.00
C345   C     0.53274   0.86782   0.27749   0.00000  Uiso   1.00
C346   C     0.67358   0.76626   0.32197   0.00000  Uiso   1.00
C347   C     0.64733   0.72496   0.26915   0.00000  Uiso   1.00
C348   C     0.59835   0.71655   0.27965   0.00000  Uiso   1.00
C349   C     0.80202   0.92609   0.02769   0.00000  Uiso   1.00
C350   C     0.84236   0.94558   0.33296   0.00000  Uiso   1.00
C351   C     0.84821   0.67270   0.01387   0.00000  Uiso   1.00
C352   C     0.51332   0.79536   0.05665   0.00000  Uiso   1.00
C353   C     0.98640   0.86801   0.27734   0.00000  Uiso   1.00
C354   C     0.74481   0.67718   0.14274   0.00000  Uiso   1.00
C355   C     0.75188   0.98947   0.19101   0.00000  Uiso   1.00
C356   C     0.66438   0.83292   0.16680   0.00000  Uiso   1.00
C357   C     0.83558   0.83338   0.16653   0.00000  Uiso   1.00
C358   C     0.91195   0.84997   0.22180   0.00000  Uiso   1.00
Cu359  Cu    0.75500   0.83913   0.22813   0.00000  Uiso   1.00
Cu360  Cu    0.74499   0.82754   0.10521   0.00000  Uiso   1.00
H361   H     0.89781   0.86348   0.26450   0.00000  Uiso   1.00
H362   H     0.75889   0.68025   0.23749   0.00000  Uiso   1.00
H363   H     0.65600   0.80330   0.32910   0.00000  Uiso   1.00
H364   H     0.67515   0.74982   0.03011   0.00000  Uiso   1.00
H365   H     0.64883   0.73803   0.22559   0.00000  Uiso   1.00
H366   H     0.66289   0.68674   0.26440   0.00000  Uiso   1.00
H367   H     0.59574   0.70486   0.32380   0.00000  Uiso   1.00
H368   H     0.58092   0.68466   0.24190   0.00000  Uiso   1.00
H369   H     0.58163   0.75349   0.28003   0.00000  Uiso   1.00
H370   H     0.80717   0.94495   0.07738   0.00000  Uiso   1.00
H371   H     0.77052   0.94005   0.00900   0.00000  Uiso   1.00
H372   H     0.60195   0.80020   0.06937   0.00000  Uiso   1.00
H373   H     0.87324   0.93068   0.01850   0.00000  Uiso   1.00
H374   H     0.83790   0.93051   0.28257   0.00000  Uiso   1.00
H375   H     0.81776   0.68867   0.32885   0.00000  Uiso   1.00
H376   H     0.87729   0.68569   0.32563   0.00000  Uiso   1.00
H377   H     0.85447   0.68914   0.06417   0.00000  Uiso   1.00
H378   H     0.88059   0.80167   0.06858   0.00000  Uiso   1.00
H379   H     0.61928   0.86387   0.26486   0.00000  Uiso   1.00
H380   H     0.94575   0.78188   0.01345   0.00000  Uiso   1.00
H381   H     0.55402   0.88176   0.32045   0.00000  Uiso   1.00
H382   H     0.52700   0.78115   0.01385   0.00000  Uiso   1.00
H383   H     0.97258   0.88224   0.32015   0.00000  Uiso   1.00
H384   H     0.73689   0.98645   0.09645   0.00000  Uiso   1.00
N385   N     0.73744   0.81881   0.01284   0.00000  Uiso   1.00
N386   N     0.76255   0.84786   0.32049   0.00000  Uiso   1.00
O387   O     0.75325   0.76204   0.20659   0.00000  Uiso   1.00
O388   O     0.80055   0.87077   0.02204   0.00000  Uiso   1.00
O389   O     0.74674   0.90462   0.12674   0.00000  Uiso   1.00
O390   O     0.74480   0.75226   0.10279   0.00000  Uiso   1.00
O391   O     0.75520   0.91441   0.23055   0.00000  Uiso   1.00
O392   O     0.68935   0.83821   0.21857   0.00000  Uiso   1.00
O393   O     0.81064   0.82845   0.11476   0.00000  Uiso   1.00
O394   O     0.68090   0.82843   0.11477   0.00000  Uiso   1.00
O395   O     0.81910   0.83824   0.21857   0.00000  Uiso   1.00
O396   O     0.71682   0.77564   0.30623   0.00000  Uiso   1.00
C397   C     0.24767   0.06660   0.48447   0.00000  Uiso   1.00
C398   C     0.08785   0.14743   0.44529   0.00000  Uiso   1.00
C399   C     0.38396   0.16632   0.49978   0.00000  Uiso   1.00
C400   C     0.11591   0.16554   0.50039   0.00000  Uiso   1.00
C401   C     0.40227   0.14856   0.44463   0.00000  Uiso   1.00
C402   C     0.09758   0.18302   0.55561   0.00000  Uiso   1.00
C403   C     0.44848   0.14753   0.44453   0.00000  Uiso   1.00
C404   C     0.05131   0.18307   0.55597   0.00000  Uiso   1.00
C405   C     0.47661   0.16526   0.50020   0.00000  Uiso   1.00
C406   C     0.02317   0.16501   0.50037   0.00000  Uiso   1.00
C407   C     0.45823   0.18337   0.55568   0.00000  Uiso   1.00
C408   C     0.25110   0.26671   0.51560   0.00000  Uiso   1.00
C409   C     0.04154   0.14688   0.44489   0.00000  Uiso   1.00
C410   C     0.46702   0.12909   0.38976   0.00000  Uiso   1.00
C411   C     0.03274   0.20115   0.61083   0.00000  Uiso   1.00
C412   C     0.17358   0.09959   0.65530   0.00000  Uiso   1.00
C413   C     0.14733   0.05830   0.60248   0.00000  Uiso   1.00
C414   C     0.09835   0.04988   0.61298   0.00000  Uiso   1.00
C415   C     0.30202   0.25942   0.36102   0.00000  Uiso   1.00
C416   C     0.34236   0.27892   0.66629   0.00000  Uiso   1.00
C417   C     0.34821   0.00603   0.34721   0.00000  Uiso   1.00
C418   C     0.01332   0.12869   0.38999   0.00000  Uiso   1.00
C419   C     0.48640   0.20134   0.61067   0.00000  Uiso   1.00
C420   C     0.24481   0.01051   0.47607   0.00000  Uiso   1.00
C421   C     0.25188   0.32280   0.52435   0.00000  Uiso   1.00
C422   C     0.16438   0.16625   0.50013   0.00000  Uiso   1.00
C423   C     0.33558   0.16671   0.49986   0.00000  Uiso   1.00
C424   C     0.41195   0.18330   0.55514   0.00000  Uiso   1.00
Cu425  Cu    0.25500   0.17246   0.56146   0.00000  Uiso   1.00
Cu426  Cu    0.24499   0.16087   0.43854   0.00000  Uiso   1.00
H427   H     0.39781   0.19681   0.59783   0.00000  Uiso   1.00
H428   H     0.25889   0.01358   0.57082   0.00000  Uiso   1.00
H429   H     0.15600   0.13664   0.66244   0.00000  Uiso   1.00
H430   H     0.17515   0.08316   0.36344   0.00000  Uiso   1.00
H431   H     0.14883   0.07137   0.55892   0.00000  Uiso   1.00
H432   H     0.16289   0.02007   0.59773   0.00000  Uiso   1.00
H433   H     0.09574   0.03819   0.65713   0.00000  Uiso   1.00
H434   H     0.08092   0.01799   0.57523   0.00000  Uiso   1.00
H435   H     0.08163   0.08682   0.61336   0.00000  Uiso   1.00
H436   H     0.30717   0.27829   0.41071   0.00000  Uiso   1.00
H437   H     0.27052   0.27338   0.34233   0.00000  Uiso   1.00
H438   H     0.10195   0.13353   0.40270   0.00000  Uiso   1.00
H439   H     0.37324   0.26402   0.35184   0.00000  Uiso   1.00
H440   H     0.33790   0.26384   0.61591   0.00000  Uiso   1.00
H441   H     0.31776   0.02201   0.66218   0.00000  Uiso   1.00
H442   H     0.37729   0.01903   0.65896   0.00000  Uiso   1.00
H443   H     0.35447   0.02247   0.39750   0.00000  Uiso   1.00
H444   H     0.38059   0.13501   0.40191   0.00000  Uiso   1.00
H445   H     0.11928   0.19721   0.59819   0.00000  Uiso   1.00
H446   H     0.44575   0.11522   0.34679   0.00000  Uiso   1.00
H447   H     0.05402   0.21509   0.65378   0.00000  Uiso   1.00
H448   H     0.02700   0.11448   0.34718   0.00000  Uiso   1.00
H449   H     0.47258   0.21558   0.65349   0.00000  Uiso   1.00
H450   H     0.23689   0.31978   0.42978   0.00000  Uiso   1.00
N451   N     0.23744   0.15214   0.34617   0.00000  Uiso   1.00
N452   N     0.26255   0.18119   0.65383   0.00000  Uiso   1.00
O453   O     0.25325   0.09538   0.53992   0.00000  Uiso   1.00
O454   O     0.30055   0.20410   0.35538   0.00000  Uiso   1.00
O455   O     0.24674   0.23796   0.46008   0.00000  Uiso   1.00
O456   O     0.24480   0.08559   0.43612   0.00000  Uiso   1.00
O457   O     0.25520   0.24774   0.56388   0.00000  Uiso   1.00
O458   O     0.18935   0.17155   0.55191   0.00000  Uiso   1.00
O459   O     0.31064   0.16179   0.44809   0.00000  Uiso   1.00
O460   O     0.18090   0.16176   0.44810   0.00000  Uiso   1.00
O461   O     0.31910   0.17157   0.55190   0.00000  Uiso   1.00
O462   O     0.21682   0.10897   0.63956   0.00000  Uiso   1.00
C463   C     0.74767   0.06660   0.48447   0.00000  Uiso   1.00
C464   C     0.58785   0.14743   0.44529   0.00000  Uiso   1.00
C465   C     0.88396   0.16632   0.49978   0.00000  Uiso   1.00
C466   C     0.61591   0.16554   0.50039   0.00000  Uiso   1.00
C467   C     0.90227   0.14856   0.44463   0.00000  Uiso   1.00
C468   C     0.59758   0.18302   0.55561   0.00000  Uiso   1.00
C469   C     0.94848   0.14753   0.44453   0.00000  Uiso   1.00
C470   C     0.55131   0.18307   0.55597   0.00000  Uiso   1.00
C471   C     0.97661   0.16526   0.50020   0.00000  Uiso   1.00
C472   C     0.52317   0.16501   0.50037   0.00000  Uiso   1.00
C473   C     0.95823   0.18337   0.55568   0.00000  Uiso   1.00
C474   C     0.75110   0.26671   0.51560   0.00000  Uiso   1.00
C475   C     0.54154   0.14688   0.44489   0.00000  Uiso   1.00
C476   C     0.96702   0.12909   0.38976   0.00000  Uiso   1.00
C477   C     0.53274   0.20115   0.61083   0.00000  Uiso   1.00
C478   C     0.67358   0.09959   0.65530   0.00000  Uiso   1.00
C479   C     0.64733   0.05830   0.60248   0.00000  Uiso   1.00
C480   C     0.59835   0.04988   0.61298   0.00000  Uiso   1.00
C481   C     0.80202   0.25942   0.36102   0.00000  Uiso   1.00
C482   C     0.84236   0.27892   0.66629   0.00000  Uiso   1.00
C483   C     0.84821   0.00603   0.34721   0.00000  Uiso   1.00
C484   C     0.51332   0.12869   0.38999   0.00000  Uiso   1.00
C485   C     0.98640   0.20134   0.61067   0.00000  Uiso   1.00
C486   C     0.74481   0.01051   0.47607   0.00000  Uiso   1.00
C487   C     0.75188   0.32280   0.52435   0.00000  Uiso   1.00
C488   C     0.66438   0.16625   0.50013   0.00000  Uiso   1.00
C489   C     0.83558   0.16671   0.49986   0.00000  Uiso   1.00
C490   C     0.91195   0.18330   0.55514   0.00000  Uiso   1.00
Cu491  Cu    0.75500   0.17246   0.56146   0.00000  Uiso   1.00
Cu492  Cu    0.74499   0.16087   0.43854   0.00000  Uiso   1.00
H493   H     0.89781   0.19681   0.59783   0.00000  Uiso   1.00
H494   H     0.75889   0.01358   0.57082   0.00000  Uiso   1.00
H495   H     0.65600   0.13664   0.66244   0.00000  Uiso   1.00
H496   H     0.67515   0.08316   0.36344   0.00000  Uiso   1.00
H497   H     0.64883   0.07137   0.55892   0.00000  Uiso   1.00
H498   H     0.66289   0.02007   0.59773   0.00000  Uiso   1.00
H499   H     0.59574   0.03819   0.65713   0.00000  Uiso   1.00
H500   H     0.58092   0.01799   0.57523   0.00000  Uiso   1.00
H501   H     0.58163   0.08682   0.61336   0.00000  Uiso   1.00
H502   H     0.80717   0.27829   0.41071   0.00000  Uiso   1.00
H503   H     0.77052   0.27338   0.34233   0.00000  Uiso   1.00
H504   H     0.60195   0.13353   0.40270   0.00000  Uiso   1.00
H505   H     0.87324   0.26402   0.35184   0.00000  Uiso   1.00
H506   H     0.83790   0.26384   0.61591   0.00000  Uiso   1.00
H507   H     0.81776   0.02201   0.66218   0.00000  Uiso   1.00
H508   H     0.87729   0.01903   0.65896   0.00000  Uiso   1.00
H509   H     0.85447   0.02247   0.39750   0.00000  Uiso   1.00
H510   H     0.88059   0.13501   0.40191   0.00000  Uiso   1.00
H511   H     0.61928   0.19721   0.59819   0.00000  Uiso   1.00
H512   H     0.94575   0.11522   0.34679   0.00000  Uiso   1.00
H513   H     0.55402   0.21509   0.65378   0.00000  Uiso   1.00
H514   H     0.52700   0.11448   0.34718   0.00000  Uiso   1.00
H515   H     0.97258   0.21558   0.65349   0.00000  Uiso   1.00
H516   H     0.73689   0.31978   0.42978   0.00000  Uiso   1.00
N517   N     0.73744   0.15214   0.34617   0.00000  Uiso   1.00
N518   N     0.76255   0.18119   0.65383   0.00000  Uiso   1.00
O519   O     0.75325   0.09538   0.53992   0.00000  Uiso   1.00
O520   O     0.80055   0.20410   0.35538   0.00000  Uiso   1.00
O521   O     0.74674   0.23796   0.46008   0.00000  Uiso   1.00
O522   O     0.74480   0.08559   0.43612   0.00000  Uiso   1.00
O523   O     0.75520   0.24774   0.56388   0.00000  Uiso   1.00
O524   O     0.68935   0.17155   0.55191   0.00000  Uiso   1.00
O525   O     0.81064   0.16179   0.44809   0.00000  Uiso   1.00
O526   O     0.68090   0.16176   0.44810   0.00000  Uiso   1.00
O527   O     0.81910   0.17157   0.55190   0.00000  Uiso   1.00
O528   O     0.71682   0.10897   0.63956   0.00000  Uiso   1.00
C529   C     0.24767   0.39993   0.48447   0.00000  Uiso   1.00
C530   C     0.08785   0.48077   0.44529   0.00000  Uiso   1.00
C531   C     0.38396   0.49965   0.49978   0.00000  Uiso   1.00
C532   C     0.11591   0.49888   0.50039   0.00000  Uiso   1.00
C533   C     0.40227   0.48190   0.44463   0.00000  Uiso   1.00
C534   C     0.09758   0.51636   0.55561   0.00000  Uiso   1.00
C535   C     0.44848   0.48087   0.44453   0.00000  Uiso   1.00
C536   C     0.05131   0.51640   0.55597   0.00000  Uiso   1.00
C537   C     0.47661   0.49859   0.50020   0.00000  Uiso   1.00
C538   C     0.02317   0.49834   0.50037   0.00000  Uiso   1.00
C539   C     0.45823   0.51670   0.55568   0.00000  Uiso   1.00
C540   C     0.25110   0.60005   0.51560   0.00000  Uiso   1.00
C541   C     0.04154   0.48022   0.44489   0.00000  Uiso   1.00
C542   C     0.46702   0.46242   0.38976   0.00000  Uiso   1.00
C543   C     0.03274   0.53449   0.61083   0.00000  Uiso   1.00
C544   C     0.17358   0.43293   0.65530   0.00000  Uiso   1.00
C545   C     0.14733   0.39163   0.60248   0.00000  Uiso   1.00
C546   C     0.09835   0.38321   0.61298   0.00000  Uiso   1.00
C547   C     0.30202   0.59276   0.36102   0.00000  Uiso   1.00
C548   C     0.34236   0.61225   0.66629   0.00000  Uiso   1.00
C549   C     0.34821   0.33937   0.34721   0.00000  Uiso   1.00
C550   C     0.01332   0.46203   0.38999   0.00000  Uiso   1.00
C551   C     0.48640   0.53468   0.61067   0.00000  Uiso   1.00
C552   C     0.24481   0.34384   0.47607   0.00000  Uiso   1.00
C553   C     0.25188   0.65614   0.52435   0.00000  Uiso   1.00
C554   C     0.16438   0.49959   0.50013   0.00000  Uiso   1.00
C555   C     0.33558   0.50005   0.49986   0.00000  Uiso   1.00
C556   C     0.41195   0.51663   0.55514   0.00000  Uiso   1.00
Cu557  Cu    0.25500   0.50579   0.56146   0.00000  Uiso   1.00
Cu558  Cu    0.24499   0.49421   0.43854   0.00000  Uiso   1.00
H559   H     0.39781   0.53015   0.59783   0.00000  Uiso   1.00
H560   H     0.25889   0.34692   0.57082   0.00000  Uiso   1.00
H561   H     0.15600   0.46997   0.66244   0.00000  Uiso   1.00
H562   H     0.17515   0.41649   0.36344   0.00000  Uiso   1.00
H563   H     0.14883   0.40470   0.55892   0.00000  Uiso   1.00
H564   H     0.16289   0.35341   0.59773   0.00000  Uiso   1.00
H565   H     0.09574   0.37152   0.65713   0.00000  Uiso   1.00
H566   H     0.08092   0.35133   0.57523   0.00000  Uiso   1.00
H567   H     0.08163   0.42016   0.61336   0.00000  Uiso   1.00
H568   H     0.30717   0.61162   0.41071   0.00000  Uiso   1.00
H569   H     0.27052   0.60671   0.34233   0.00000  Uiso   1.00
H570   H     0.10195   0.46687   0.40270   0.00000  Uiso   1.00
H571   H     0.37324   0.59735   0.35184   0.00000  Uiso   1.00
H572   H     0.33790   0.59717   0.61591   0.00000  Uiso   1.00
H573   H     0.31776   0.35534   0.66218   0.00000  Uiso   1.00
H574   H     0.37729   0.35236   0.65896   0.00000  Uiso   1.00
H575   H     0.35447   0.35581   0.39750   0.00000  Uiso   1.00
H576   H     0.38059   0.46834   0.40191   0.00000  Uiso   1.00
H577   H     0.11928   0.53054   0.59819   0.00000  Uiso   1.00
H578   H     0.44575   0.44855   0.34679   0.00000  Uiso   1.00
H579   H     0.05402   0.54843   0.65378   0.00000  Uiso   1.00
H580   H     0.02700   0.44781   0.34718   0.00000  Uiso   1.00
H581   H     0.47258   0.54891   0.65349   0.00000  Uiso   1.00
H582   H     0.23689   0.65312   0.42978   0.00000  Uiso   1.00
N583   N     0.23744   0.48547   0.34617   0.00000  Uiso   1.00
N584   N     0.26255   0.51453   0.65383   0.00000  Uiso   1.00
O585   O     0.25325   0.42871   0.53992   0.00000  Uiso   1.00
O586   O     0.30055   0.53744   0.35538   0.00000  Uiso   1.00
O587   O     0.24674   0.57129   0.46008   0.00000  Uiso   1.00
O588   O     0.24480   0.41892   0.43612   0.00000  Uiso   1.00
O589   O     0.25520   0.58108   0.56388   0.00000  Uiso   1.00
O590   O     0.18935   0.50488   0.55191   0.00000  Uiso   1.00
O591   O     0.31064   0.49512   0.44809   0.00000  Uiso   1.00
O592   O     0.18090   0.49510   0.44810   0.00000  Uiso   1.00
O593   O     0.31910   0.50490   0.55190   0.00000  Uiso   1.00
O594   O     0.21682   0.44230   0.63956   0.00000  Uiso   1.00
C595   C     0.74767   0.39993   0.48447   0.00000  Uiso   1.00
C596   C     0.58785   0.48077   0.44529   0.00000  Uiso   1.00
C597   C     0.88396   0.49965   0.49978   0.00000  Uiso   1.00
C598   C     0.61591   0.49888   0.50039   0.00000  Uiso   1.00
C599   C     0.90227   0.48190   0.44463   0.00000  Uiso   1.00
C600   C     0.59758   0.51636   0.55561   0.00000  Uiso   1.00
C601   C     0.94848   0.48087   0.44453   0.00000  Uiso   1.00
C602   C     0.55131   0.51640   0.55597   0.00000  Uiso   1.00
C603   C     0.97661   0.49859   0.50020   0.00000  Uiso   1.00
C604   C     0.52317   0.49834   0.50037   0.00000  Uiso   1.00
C605   C     0.95823   0.51670   0.55568   0.00000  Uiso   1.00
C606   C     0.75110   0.60005   0.51560   0.00000  Uiso   1.00
C607   C     0.54154   0.48022   0.44489   0.00000  Uiso   1.00
C608   C     0.96702   0.46242   0.38976   0.00000  Uiso   1.00
C609   C     0.53274   0.53449   0.61083   0.00000  Uiso   1.00
C610   C     0.67358   0.43293   0.65530   0.00000  Uiso   1.00
C611   C     0.64733   0.39163   0.60248   0.00000  Uiso   1.00
C612   C     0.59835   0.38321   0.61298   0.00000  Uiso   1.00
C613   C     0.80202   0.59276   0.36102   0.00000  Uiso   1.00
C614   C     0.84236   0.61225   0.66629   0.00000  Uiso   1.00
C615   C     0.84821   0.33937   0.34721   0.00000  Uiso   1.00
C616   C     0.51332   0.46203   0.38999   0.00000  Uiso   1.00
C617   C     0.98640   0.53468   0.61067   0.00000  Uiso   1.00
C618   C     0.74481   0.34384   0.47607   0.00000  Uiso   1.00
C619   C     0.75188   0.65614   0.52435   0.00000  Uiso   1.00
C620   C     0.66438   0.49959   0.50013   0.00000  Uiso   1.00
C621   C     0.83558   0.50005   0.49986   0.00000  Uiso   1.00
C622   C     0.91195   0.51663   0.55514   0.00000  Uiso   1.00
Cu623  Cu    0.75500   0.50579   0.56146   0.00000  Uiso   1.00
Cu624  Cu    0.74499   0.49421   0.43854   0.00000  Uiso   1.00
H625   H     0.89781   0.53015   0.59783   0.00000  Uiso   1.00
H626   H     0.75889   0.34692   0.57082   0.00000  Uiso   1.00
H627   H     0.65600   0.46997   0.66244   0.00000  Uiso   1.00
H628   H     0.67515   0.41649   0.36344   0.00000  Uiso   1.00
H629   H     0.64883   0.40470   0.55892   0.00000  Uiso   1.00
H630   H     0.66289   0.35341   0.59773   0.00000  Uiso   1.00
H631   H     0.59574   0.37152   0.65713   0.00000  Uiso   1.00
H632   H     0.58092   0.35133   0.57523   0.00000  Uiso   1.00
H633   H     0.58163   0.42016   0.61336   0.00000  Uiso   1.00
H634   H     0.80717   0.61162   0.41071   0.00000  Uiso   1.00
H635   H     0.77052   0.60671   0.34233   0.00000  Uiso   1.00
H636   H     0.60195   0.46687   0.40270   0.00000  Uiso   1.00
H637   H     0.87324   0.59735   0.35184   0.00000  Uiso   1.00
H638   H     0.83790   0.59717   0.61591   0.00000  Uiso   1.00
H639   H     0.81776   0.35534   0.66218   0.00000  Uiso   1.00
H640   H     0.87729   0.35236   0.65896   0.00000  Uiso   1.00
H641   H     0.85447   0.35581   0.39750   0.00000  Uiso   1.00
H642   H     0.88059   0.46834   0.40191   0.00000  Uiso   1.00
H643   H     0.61928   0.53054   0.59819   0.00000  Uiso   1.00
H644   H     0.94575   0.44855   0.34679   0.00000  Uiso   1.00
H645   H     0.55402   0.54843   0.65378   0.00000  Uiso   1.00
H646   H     0.52700   0.44781   0.34718   0.00000  Uiso   1.00
H647   H     0.97258   0.54891   0.65349   0.00000  Uiso   1.00
H648   H     0.73689   0.65312   0.42978   0.00000  Uiso   1.00
N649   N     0.73744   0.48547   0.34617   0.00000  Uiso   1.00
N650   N     0.76255   0.51453   0.65383   0.00000  Uiso   1.00
O651   O     0.75325   0.42871   0.53992   0.00000  Uiso   1.00
O652   O     0.80055   0.53744   0.35538   0.00000  Uiso   1.00
O653   O     0.74674   0.57129   0.46008   0.00000  Uiso   1.00
O654   O     0.74480   0.41892   0.43612   0.00000  Uiso   1.00
O655   O     0.75520   0.58108   0.56388   0.00000  Uiso   1.00
O656   O     0.68935   0.50488   0.55191   0.00000  Uiso   1.00
O657   O     0.81064   0.49512   0.44809   0.00000  Uiso   1.00
O658   O     0.68090   0.49510   0.44810   0.00000  Uiso   1.00
O659   O     0.81910   0.50490   0.55190   0.00000  Uiso   1.00
O660   O     0.71682   0.44230   0.63956   0.00000  Uiso   1.00
C661   C     0.24767   0.73327   0.48447   0.00000  Uiso   1.00
C662   C     0.08785   0.81410   0.44529   0.00000  Uiso   1.00
C663   C     0.38396   0.83299   0.49978   0.00000  Uiso   1.00
C664   C     0.11591   0.83221   0.50039   0.00000  Uiso   1.00
C665   C     0.40227   0.81523   0.44463   0.00000  Uiso   1.00
C666   C     0.09758   0.84969   0.55561   0.00000  Uiso   1.00
C667   C     0.44848   0.81420   0.44453   0.00000  Uiso   1.00
C668   C     0.05131   0.84973   0.55597   0.00000  Uiso   1.00
C669   C     0.47661   0.83193   0.50020   0.00000  Uiso   1.00
C670   C     0.02317   0.83168   0.50037   0.00000  Uiso   1.00
C671   C     0.45823   0.85004   0.55568   0.00000  Uiso   1.00
C672   C     0.25110   0.93338   0.51560   0.00000  Uiso   1.00
C673   C     0.04154   0.81355   0.44489   0.00000  Uiso   1.00
C674   C     0.46702   0.79576   0.38976   0.00000  Uiso   1.00
C675   C     0.03274   0.86782   0.61083   0.00000  Uiso   1.00
C676   C     0.17358   0.76626   0.65530   0.00000  Uiso   1.00
C677   C     0.14733   0.72496   0.60248   0.00000  Uiso   1.00
C678   C     0.09835   0.71655   0.61298   0.00000  Uiso   1.00
C679   C     0.30202   0.92609   0.36102   0.00000  Uiso   1.00
C680   C     0.34236   0.94558   0.66629   0.00000  Uiso   1.00
C681   C     0.34821   0.67270   0.34721   0.00000  Uiso   1.00
C682   C     0.01332   0.79536   0.38999   0.00000  Uiso   1.00
C683   C     0.48640   0.86801   0.61067   0.00000  Uiso   1.00
C684   C     0.24481   0.67718   0.47607   0.00000  Uiso   1.00
C685   C     0.25188   0.98947   0.52435   0.00000  Uiso   1.00
C686   C     0.16438   0.83292   0.50013   0.00000  Uiso   1.00
C687   C     0.33558   0.83338   0.49986   0.00000  Uiso   1.00
C688   C     0.41195   0.84997   0.55514   0.00000  Uiso   1.00
Cu689  Cu    0.25500   0.83913   0.56146   0.00000  Uiso   1.00
Cu690  Cu    0.24499   0.82754   0.43854   0.00000  Uiso   1.00
H691   H     0.39781   0.86348   0.59783   0.00000  Uiso   1.00
H692   H     0.25889   0.68025   0.57082   0.00000  Uiso   1.00
H693   H     0.15600   0.80330   0.66244   0.00000  Uiso   1.00
H694   H     0.17515   0.74982   0.36344   0.00000  Uiso   1.00
H695   H     0.14883   0.73803   0.55892   0.00000  Uiso   1.00
H696   H     0.16289   0.68674   0.59773   0.00000  Uiso   1.00
H697   H     0.09574   0.70486   0.65713   0.00000  Uiso   1.00
H698   H     0.08092   0.68466   0.57523   0.00000  Uiso   1.00
H699   H     0.08163   0.75349   0.61336   0.00000  Uiso   1.00
H700   H     0.30717   0.94495   0.41071   0.00000  Uiso   1.00
H701   H     0.27052   0.94005   0.34233   0.00000  Uiso   1.00
H702   H     0.10195   0.80020   0.40270   0.00000  Uiso   1.00
H703   H     0.37324   0.93068   0.35184   0.00000  Uiso   1.00
H704   H     0.33790   0.93051   0.61591   0.00000  Uiso   1.00
H705   H     0.31776   0.68867   0.66218   0.00000  Uiso   1.00
H706   H     0.37729   0.68569   0.65896   0.00000  Uiso   1.00
H707   H     0.35447   0.68914   0.39750   0.00000  Uiso   1.00
H708   H     0.38059   0.80167   0.40191   0.00000  Uiso   1.00
H709   H     0.11928   0.86387   0.59819   0.00000  Uiso   1.00
H710   H     0.44575   0.78188   0.34679   0.00000  Uiso   1.00
H711   H     0.05402   0.88176   0.65378   0.00000  Uiso   1.00
H712   H     0.02700   0.78115   0.34718   0.00000  Uiso   1.00
H713   H     0.47258   0.88224   0.65349   0.00000  Uiso   1.00
H714   H     0.23689   0.98645   0.42978   0.00000  Uiso   1.00
N715   N     0.23744   0.81881   0.34617   0.00000  Uiso   1.00
N716   N     0.26255   0.84786   0.65383   0.00000  Uiso   1.00
O717   O     0.25325   0.76204   0.53992   0.00000  Uiso   1.00
O718   O     0.30055   0.87077   0.35538   0.00000  Uiso   1.00
O719   O     0.24674   0.90462   0.46008   0.00000  Uiso   1.00
O720   O     0.24480   0.75226   0.43612   0.00000  Uiso   1.00
O721   O     0.25520   0.91441   0.56388   0.00000  Uiso   1.00
O722   O     0.18935   0.83821   0.55191   0.00000  Uiso   1.00
O723   O     0.31064   0.82845   0.44809   0.00000  Uiso   1.00
O724   O     0.18090   0.82843   0.44810   0.00000  Uiso   1.00
O725   O     0.31910   0.83824   0.55190   0.00000  Uiso   1.00
O726   O     0.21682   0.77564   0.63956   0.00000  Uiso   1.00
C727   C     0.74767   0.73327   0.48447   0.00000  Uiso   1.00
C728   C     0.58785   0.81410   0.44529   0.00000  Uiso   1.00
C729   C     0.88396   0.83299   0.49978   0.00000  Uiso   1.00
C730   C     0.61591   0.83221   0.50039   0.00000  Uiso   1.00
C731   C     0.90227   0.81523   0.44463   0.00000  Uiso   1.00
C732   C     0.59758   0.84969   0.55561   0.00000  Uiso   1.00
C733   C     0.94848   0.81420   0.44453   0.00000  Uiso   1.00
C734   C     0.55131   0.84973   0.55597   0.00000  Uiso   1.00
C735   C     0.97661   0.83193   0.50020   0.00000  Uiso   1.00
C736   C     0.52317   0.83168   0.50037   0.00000  Uiso   1.00
C737   C     0.95823   0.85004   0.55568   0.00000  Uiso   1.00
C738   C     0.75110   0.93338   0.51560   0.00000  Uiso   1.00
C739   C     0.54154   0.81355   0.44489   0.00000  Uiso   1.00
C740   C     0.96702   0.79576   0.38976   0.00000  Uiso   1.00
C741   C     0.53274   0.86782   0.61083   0.00000  Uiso   1.00
C742   C     0.67358   0.76626   0.65530   0.00000  Uiso   1.00
C743   C     0.64733   0.72496   0.60248   0.00000  Uiso   1.00
C744   C     0.59835   0.71655   0.61298   0.00000  Uiso   1.00
C745   C     0.80202   0.92609   0.36102   0.00000  Uiso   1.00
C746   C     0.84236   0.94558   0.66629   0.00000  Uiso   1.00
C747   C     0.84821   0.67270   0.34721   0.00000  Uiso   1.00
C748   C     0.51332   0.79536   0.38999   0.00000  Uiso   1.00
C749   C     0.98640   0.86801   0.61067   0.00000  Uiso   1.00
C750   C     0.74481   0.67718   0.47607   0.00000  Uiso   1.00
C751   C     0.75188   0.98947   0.52435   0.00000  Uiso   1.00
C752   C     0.66438   0.83292   0.50013   0.00000  Uiso   1.00
C753   C     0.83558   0.83338   0.49986   0.00000  Uiso   1.00
C754   C     0.91195   0.84997   0.55514   0.00000  Uiso   1.00
Cu755  Cu    0.75500   0.83913   0.56146   0.00000  Uiso   1.00
Cu756  Cu    0.74499   0.82754   0.43854   0.00000  Uiso   1.00
H757   H     0.89781   0.86348   0.59783   0.00000  Uiso   1.00
H758   H     0.75889   0.68025   0.57082   0.00000  Uiso   1.00
H759   H     0.65600   0.80330   0.66244   0.00000  Uiso   1.00
H760   H     0.67515   0.74982   0.36344   0.00000  Uiso   1.00
H761   H     0.64883   0.73803   0.55892   0.00000  Uiso   1.00
H762   H     0.66289   0.68674   0.59773   0.00000  Uiso   1.00
H763   H     0.59574   0.70486   0.65713   0.00000  Uiso   1.00
H764   H     0.58092   0.68466   0.57523   0.00000  Uiso   1.00
H765   H     0.58163   0.75349   0.61336   0.00000  Uiso   1.00
H766   H     0.80717   0.94495   0.41071   0.00000  Uiso   1.00
H767   H     0.77052   0.94005   0.34233   0.00000  Uiso   1.00
H768   H     0.60195   0.80020   0.40270   0.00000  Uiso   1.00
H769   H     0.87324   0.93068   0.35184   0.00000  Uiso   1.00
H770   H     0.83790   0.93051   0.61591   0.00000  Uiso   1.00
H771   H     0.81776   0.68867   0.66218   0.00000  Uiso   1.00
H772   H     0.87729   0.68569   0.65896   0.00000  Uiso   1.00
H773   H     0.85447   0.68914   0.39750   0.00000  Uiso   1.00
H774   H     0.88059   0.80167   0.40191   0.00000  Uiso   1.00
H775   H     0.61928   0.86387   0.59819   0.00000  Uiso   1.00
H776   H     0.94575   0.78188   0.34679   0.00000  Uiso   1.00
H777   H     0.55402   0.88176   0.65378   0.00000  Uiso   1.00
H778   H     0.52700   0.78115   0.34718   0.00000  Uiso   1.00
H779   H     0.97258   0.88224   0.65349   0.00000  Uiso   1.00
H780   H     0.73689   0.98645   0.42978   0.00000  Uiso   1.00
N781   N     0.73744   0.81881   0.34617   0.00000  Uiso   1.00
N782   N     0.76255   0.84786   0.65383   0.00000  Uiso   1.00
O783   O     0.75325   0.76204   0.53992   0.00000  Uiso   1.00
O784   O     0.80055   0.87077   0.35538   0.00000  Uiso   1.00
O785   O     0.74674   0.90462   0.46008   0.00000  Uiso   1.00
O786   O     0.74480   0.75226   0.43612   0.00000  Uiso   1.00
O787   O     0.75520   0.91441   0.56388   0.00000  Uiso   1.00
O788   O     0.68935   0.83821   0.55191   0.00000  Uiso   1.00
O789   O     0.81064   0.82845   0.44809   0.00000  Uiso   1.00
O790   O     0.68090   0.82843   0.44810   0.00000  Uiso   1.00
O791   O     0.81910   0.83824   0.55190   0.00000  Uiso   1.00
O792   O     0.71682   0.77564   0.63956   0.00000  Uiso   1.00
C793   C     0.24767   0.06660   0.81781   0.00000  Uiso   1.00
C794   C     0.08785   0.14743   0.77862   0.00000  Uiso   1.00
C795   C     0.38396   0.16632   0.83311   0.00000  Uiso   1.00
C796   C     0.11591   0.16554   0.83372   0.00000  Uiso   1.00
C797   C     0.40227   0.14856   0.77796   0.00000  Uiso   1.00
C798   C     0.09758   0.18302   0.88895   0.00000  Uiso   1.00
C799   C     0.44848   0.14753   0.77786   0.00000  Uiso   1.00
C800   C     0.05131   0.18307   0.88930   0.00000  Uiso   1.00
C801   C     0.47661   0.16526   0.83354   0.00000  Uiso   1.00
C802   C     0.02317   0.16501   0.83371   0.00000  Uiso   1.00
C803   C     0.45823   0.18337   0.88901   0.00000  Uiso   1.00
C804   C     0.25110   0.26671   0.84894   0.00000  Uiso   1.00
C805   C     0.04154   0.14688   0.77822   0.00000  Uiso   1.00
C806   C     0.46702   0.12909   0.72310   0.00000  Uiso   1.00
C807   C     0.03274   0.20115   0.94416   0.00000  Uiso   1.00
C808   C     0.17358   0.09959   0.98864   0.00000  Uiso   1.00
C809   C     0.14733   0.05830   0.93582   0.00000  Uiso   1.00
C810   C     0.09835   0.04988   0.94631   0.00000  Uiso   1.00
C811   C     0.30202   0.25942   0.69436   0.00000  Uiso   1.00
C812   C     0.34236   0.27892   0.99963   0.00000  Uiso   1.00
C813   C     0.34821   0.00603   0.68054   0.00000  Uiso   1.00
C814   C     0.01332   0.12869   0.72332   0.00000  Uiso   1.00
C815   C     0.48640   0.20134   0.94400   0.00000  Uiso   1.00
C816   C     0.24481   0.01051   0.80940   0.00000  Uiso   1.00
C817   C     0.25188   0.32280   0.85768   0.00000  Uiso   1.00
C818   C     0.16438   0.16625   0.83347   0.00000  Uiso   1.00
C819   C     0.33558   0.16671   0.83319   0.00000  Uiso   1.00
C820   C     0.41195   0.18330   0.88847   0.00000  Uiso   1.00
Cu821  Cu    0.25500   0.17246   0.89479   0.00000  Uiso   1.00
Cu822  Cu    0.24499   0.16087   0.77187   0.00000  Uiso   1.00
H823   H     0.39781   0.19681   0.93116   0.00000  Uiso   1.00
H824   H     0.25889   0.01358   0.90416   0.00000  Uiso   1.00
H825   H     0.15600   0.13664   0.99577   0.00000  Uiso   1.00
H826   H     0.17515   0.08316   0.69677   0.00000  Uiso   1.00
H827   H     0.14883   0.07137   0.89225   0.00000  Uiso   1.00
H828   H     0.16289   0.02007   0.93107   0.00000  Uiso   1.00
H829   H     0.09574   0.03819   0.99046   0.00000  Uiso   1.00
H830   H     0.08092   0.01799   0.90856   0.00000  Uiso   1.00
H831   H     0.08163   0.08682   0.94670   0.00000  Uiso   1.00
H832   H     0.30717   0.27829   0.74404   0.00000  Uiso   1.00
H833   H     0.27052   0.27338   0.67566   0.00000  Uiso   1.00
H834   H     0.10195   0.13353   0.73603   0.00000  Uiso   1.00
H835   H     0.37324   0.26402   0.68517   0.00000  Uiso   1.00
H836   H     0.33790   0.26384   0.94924   0.00000  Uiso   1.00
H837   H     0.31776   0.02201   0.99552   0.00000  Uiso   1.00
H838   H     0.37729   0.01903   0.99229   0.00000  Uiso   1.00
H839   H     0.35447   0.02247   0.73083   0.00000  Uiso   1.00
H840   H     0.38059   0.13501   0.73525   0.00000  Uiso   1.00
H841   H     0.11928   0.19721   0.93153   0.00000  Uiso   1.00
H842   H     0.44575   0.11522   0.68012   0.00000  Uiso   1.00
H843   H     0.05402   0.21509   0.98712   0.00000  Uiso   1.00
H844   H     0.02700   0.11448   0.68052   0.00000  Uiso   1.00
H845   H     0.47258   0.21558   0.98682   0.00000  Uiso   1.00
H846   H     0.23689   0.31978   0.76311   0.00000  Uiso   1.00
N847   N     0.23744   0.15214   0.67951   0.00000  Uiso   1.00
N848   N     0.26255   0.18119   0.98716   0.00000  Uiso   1.00
O849   O     0.25325   0.09538   0.87326   0.00000  Uiso   1.00
O850   O     0.30055   0.20410   0.68871   0.00000  Uiso   1.00
O851   O     0.24674   0.23796   0.79341   0.00000  Uiso   1.00
O852   O     0.24480   0.08559   0.76945   0.00000  Uiso   1.00
O853   O     0.25520   0.24774   0.89721   0.00000  Uiso   1.00
O854   O     0.18935   0.17155   0.88524   0.00000  Uiso   1.00
O855   O     0.31064   0.16179   0.78143   0.00000  Uiso   1.00
O856   O     0.18090   0.16176   0.78143   0.00000  Uiso   1.00
O857   O     0.31910   0.17157   0.88523   0.00000  Uiso   1.00
O858   O     0.21682   0.10897   0.97289   0.00000  Uiso   1.00
C859   C     0.74767   0.06660   0.81781   0.00000  Uiso   1.00
C860   C     0.58785   0.14743   0.77862   0.00000  Uiso   1.00
C861   C     0.88396   0.16632   0.83311   0.00000  Uiso   1.00
C862   C     0.61591   0.16554   0.83372   0.00000  Uiso   1.00
C863   C     0.90227   0.14856   0.77796   0.00000  Uiso   1.00
C864   C     0.59758   0.18302   0.88895   0.00000  Uiso   1.00
C865   C     0.94848   0.14753   0.77786   0.00000  Uiso   1.00
C866   C     0.55131   0.18307   0.88930   0.00000  Uiso   1.00
C867   C     0.97661   0.16526   0.83354   0.00000  Uiso   1.00
C868   C     0.52317   0.16501   0.83371   0.00000  Uiso   1.00
C869   C     0.95823   0.18337   0.88901   0.00000  Uiso   1.00
C870   C     0.75110   0.26671   0.84894   0.00000  Uiso   1.00
C871   C     0.54154   0.14688   0.77822   0.00000  Uiso   1.00
C872   C     0.96702   0.12909   0.72310   0.00000  Uiso   1.00
C873   C     0.53274   0.20115   0.94416   0.00000  Uiso   1.00
C874   C     0.67358   0.09959   0.98864   0.00000  Uiso   1.00
C875   C     0.64733   0.05830   0.93582   0.00000  Uiso   1.00
C876   C     0.59835   0.04988   0.94631   0.00000  Uiso   1.00
C877   C     0.80202   0.25942   0.69436   0.00000  Uiso   1.00
C878   C     0.84236   0.27892   0.99963   0.00000  Uiso   1.00
C879   C     0.84821   0.00603   0.68054   0.00000  Uiso   1.00
C880   C     0.51332   0.12869   0.72332   0.00000  Uiso   1.00
C881   C     0.98640   0.20134   0.94400   0.00000  Uiso   1.00
C882   C     0.74481   0.01051   0.80940   0.00000  Uiso   1.00
C883   C     0.75188   0.32280   0.85768   0.00000  Uiso   1.00
C884   C     0.66438   0.16625   0.83347   0.00000  Uiso   1.00
C885   C     0.83558   0.16671   0.83319   0.00000  Uiso   1.00
C886   C     0.91195   0.18330   0.88847   0.00000  Uiso   1.00
Cu887  Cu    0.75500   0.17246   0.89479   0.00000  Uiso   1.00
Cu888  Cu    0.74499   0.16087   0.77187   0.00000  Uiso   1.00
H889   H     0.89781   0.19681   0.93116   0.00000  Uiso   1.00
H890   H     0.75889   0.01358   0.90416   0.00000  Uiso   1.00
H891   H     0.65600   0.13664   0.99577   0.00000  Uiso   1.00
H892   H     0.67515   0.08316   0.69677   0.00000  Uiso   1.00
H893   H     0.64883   0.07137   0.89225   0.00000  Uiso   1.00
H894   H     0.66289   0.02007   0.93107   0.00000  Uiso   1.00
H895   H     0.59574   0.03819   0.99046   0.00000  Uiso   1.00
H896   H     0.58092   0.01799   0.90856   0.00000  Uiso   1.00
H897   H     0.58163   0.08682   0.94670   0.00000  Uiso   1.00
H898   H     0.80717   0.27829   0.74404   0.00000  Uiso   1.00
H899   H     0.77052   0.27338   0.67566   0.00000  Uiso   1.00
H900   H     0.60195   0.13353   0.73603   0.00000  Uiso   1.00
H901   H     0.87324   0.26402   0.68517   0.00000  Uiso   1.00
H902   H     0.83790   0.26384   0.94924   0.00000  Uiso   1.00
H903   H     0.81776   0.02201   0.99552   0.00000  Uiso   1.00
H904   H     0.87729   0.01903   0.99229   0.00000  Uiso   1.00
H905   H     0.85447   0.02247   0.73083   0.00000  Uiso   1.00
H906   H     0.88059   0.13501   0.73525   0.00000  Uiso   1.00
H907   H     0.61928   0.19721   0.93153   0.00000  Uiso   1.00
H908   H     0.94575   0.11522   0.68012   0.00000  Uiso   1.00
H909   H     0.55402   0.21509   0.98712   0.00000  Uiso   1.00
H910   H     0.52700   0.11448   0.68052   0.00000  Uiso   1.00
H911   H     0.97258   0.21558   0.98682   0.00000  Uiso   1.00
H912   H     0.73689   0.31978   0.76311   0.00000  Uiso   1.00
N913   N     0.73744   0.15214   0.67951   0.00000  Uiso   1.00
N914   N     0.76255   0.18119   0.98716   0.00000  Uiso   1.00
O915   O     0.75325   0.09538   0.87326   0.00000  Uiso   1.00
O916   O     0.80055   0.20410   0.68871   0.00000  Uiso   1.00
O917   O     0.74674   0.23796   0.79341   0.00000  Uiso   1.00
O918   O     0.74480   0.08559   0.76945   0.00000  Uiso   1.00
O919   O     0.75520   0.24774   0.89721   0.00000  Uiso   1.00
O920   O     0.68935   0.17155   0.88524   0.00000  Uiso   1.00
O921   O     0.81064   0.16179   0.78143   0.00000  Uiso   1.00
O922   O     0.68090   0.16176   0.78143   0.00000  Uiso   1.00
O923   O     0.81910   0.17157   0.88523   0.00000  Uiso   1.00
O924   O     0.71682   0.10897   0.97289   0.00000  Uiso   1.00
C925   C     0.24767   0.39993   0.81781   0.00000  Uiso   1.00
C926   C     0.08785   0.48077   0.77862   0.00000  Uiso   1.00
C927   C     0.38396   0.49965   0.83311   0.00000  Uiso   1.00
C928   C     0.11591   0.49888   0.83372   0.00000  Uiso   1.00
C929   C     0.40227   0.48190   0.77796   0.00000  Uiso   1.00
C930   C     0.09758   0.51636   0.88895   0.00000  Uiso   1.00
C931   C     0.44848   0.48087   0.77786   0.00000  Uiso   1.00
C932   C     0.05131   0.51640   0.88930   0.00000  Uiso   1.00
C933   C     0.47661   0.49859   0.83354   0.00000  Uiso   1.00
C934   C     0.02317   0.49834   0.83371   0.00000  Uiso   1.00
C935   C     0.45823   0.51670   0.88901   0.00000  Uiso   1.00
C936   C     0.25110   0.60005   0.84894   0.00000  Uiso   1.00
C937   C     0.04154   0.48022   0.77822   0.00000  Uiso   1.00
C938   C     0.46702   0.46242   0.72310   0.00000  Uiso   1.00
C939   C     0.03274   0.53449   0.94416   0.00000  Uiso   1.00
C940   C     0.17358   0.43293   0.98864   0.00000  Uiso   1.00
C941   C     0.14733   0.39163   0.93582   0.00000  Uiso   1.00
C942   C     0.09835   0.38321   0.94631   0.00000  Uiso   1.00
C943   C     0.30202   0.59276   0.69436   0.00000  Uiso   1.00
C944   C     0.34236   0.61225   0.99963   0.00000  Uiso   1.00
C945   C     0.34821   0.33937   0.68054   0.00000  Uiso   1.00
C946   C     0.01332   0.46203   0.72332   0.00000  Uiso   1.00
C947   C     0.48640   0.53468   0.94400   0.00000  Uiso   1.00
C948   C     0.24481   0.34384   0.80940   0.00000  Uiso   1.00
C949   C     0.25188   0.65614   0.85768   0.00000  Uiso   1.00
C950   C     0.16438   0.49959   0.83347   0.00000  Uiso   1.00
C951   C     0.33558   0.50005   0.83319   0.00000  Uiso   1.00
C952   C     0.41195   0.51663   0.88847   0.00000  Uiso   1.00
Cu953  Cu    0.25500   0.50579   0.89479   0.00000  Uiso   1.00
Cu954  Cu    0.24499   0.49421   0.77187   0.00000  Uiso   1.00
H955   H     0.39781   0.53015   0.93116   0.00000  Uiso   1.00
H956   H     0.25889   0.34692   0.90416   0.00000  Uiso   1.00
H957   H     0.15600   0.46997   0.99577   0.00000  Uiso   1.00
H958   H     0.17515   0.41649   0.69677   0.00000  Uiso   1.00
H959   H     0.14883   0.40470   0.89225   0.00000  Uiso   1.00
H960   H     0.16289   0.35341   0.93107   0.00000  Uiso   1.00
H961   H     0.09574   0.37152   0.99046   0.00000  Uiso   1.00
H962   H     0.08092   0.35133   0.90856   0.00000  Uiso   1.00
H963   H     0.08163   0.42016   0.94670   0.00000  Uiso   1.00
H964   H     0.30717   0.61162   0.74404   0.00000  Uiso   1.00
H965   H     0.27052   0.60671   0.67566   0.00000  Uiso   1.00
H966   H     0.10195   0.46687   0.73603   0.00000  Uiso   1.00
H967   H     0.37324   0.59735   0.68517   0.00000  Uiso   1.00
H968   H     0.33790   0.59717   0.94924   0.00000  Uiso   1.00
H969   H     0.31776   0.35534   0.99552   0.00000  Uiso   1.00
H970   H     0.37729   0.35236   0.99229   0.00000  Uiso   1.00
H971   H     0.35447   0.35581   0.73083   0.00000  Uiso   1.00
H972   H     0.38059   0.46834   0.73525   0.00000  Uiso   1.00
H973   H     0.11928   0.53054   0.93153   0.00000  Uiso   1.00
H974   H     0.44575   0.44855   0.68012   0.00000  Uiso   1.00
H975   H     0.05402   0.54843   0.98712   0.00000  Uiso   1.00
H976   H     0.02700   0.44781   0.68052   0.00000  Uiso   1.00
H977   H     0.47258   0.54891   0.98682   0.00000  Uiso   1.00
H978   H     0.23689   0.65312   0.76311   0.00000  Uiso   1.00
N979   N     0.23744   0.48547   0.67951   0.00000  Uiso   1.00
N980   N     0.26255   0.51453   0.98716   0.00000  Uiso   1.00
O981   O     0.25325   0.42871   0.87326   0.00000  Uiso   1.00
O982   O     0.30055   0.53744   0.68871   0.00000  Uiso   1.00
O983   O     0.24674   0.57129   0.79341   0.00000  Uiso   1.00
O984   O     0.24480   0.41892   0.76945   0.00000  Uiso   1.00
O985   O     0.25520   0.58108   0.89721   0.00000  Uiso   1.00
O986   O     0.18935   0.50488   0.88524   0.00000  Uiso   1.00
O987   O     0.31064   0.49512   0.78143   0.00000  Uiso   1.00
O988   O     0.18090   0.49510   0.78143   0.00000  Uiso   1.00
O989   O     0.31910   0.50490   0.88523   0.00000  Uiso   1.00
O990   O     0.21682   0.44230   0.97289   0.00000  Uiso   1.00
C991   C     0.74767   0.39993   0.81781   0.00000  Uiso   1.00
C992   C     0.58785   0.48077   0.77862   0.00000  Uiso   1.00
C993   C     0.88396   0.49965   0.83311   0.00000  Uiso   1.00
C994   C     0.61591   0.49888   0.83372   0.00000  Uiso   1.00
C995   C     0.90227   0.48190   0.77796   0.00000  Uiso   1.00
C996   C     0.59758   0.51636   0.88895   0.00000  Uiso   1.00
C997   C     0.94848   0.48087   0.77786   0.00000  Uiso   1.00
C998   C     0.55131   0.51640   0.88930   0.00000  Uiso   1.00
C999   C     0.97661   0.49859   0.83354   0.00000  Uiso   1.00
C1000  C     0.52317   0.49834   0.83371   0.00000  Uiso   1.00
C1001  C     0.95823   0.51670   0.88901   0.00000  Uiso   1.00
C1002  C     0.75110   0.60005   0.84894   0.00000  Uiso   1.00
C1003  C     0.54154   0.48022   0.77822   0.00000  Uiso   1.00
C1004  C     0.96702   0.46242   0.72310   0.00000  Uiso   1.00
C1005  C     0.53274   0.53449   0.94416   0.00000  Uiso   1.00
C1006  C     0.67358   0.43293   0.98864   0.00000  Uiso   1.00
C1007  C     0.64733   0.39163   0.93582   0.00000  Uiso   1.00
C1008  C     0.59835   0.38321   0.94631   0.00000  Uiso   1.00
C1009  C     0.80202   0.59276   0.69436   0.00000  Uiso   1.00
C1010  C     0.84236   0.61225   0.99963   0.00000  Uiso   1.00
C1011  C     0.84821   0.33937   0.68054   0.00000  Uiso   1.00
C1012  C     0.51332   0.46203   0.72332   0.00000  Uiso   1.00
C1013  C     0.98640   0.53468   0.94400   0.00000  Uiso   1.00
C1014  C     0.74481   0.34384   0.80940   0.00000  Uiso   1.00
C1015  C     0.75188   0.65614   0.85768   0.00000  Uiso   1.00
C1016  C     0.66438   0.49959   0.83347   0.00000  Uiso   1.00
C1017  C     0.83558   0.50005   0.83319   0.00000  Uiso   1.00
C1018  C     0.91195   0.51663   0.88847   0.00000  Uiso   1.00
Cu1019 Cu    0.75500   0.50579   0.89479   0.00000  Uiso   1.00
Cu1020 Cu    0.74499   0.49421   0.77187   0.00000  Uiso   1.00
H1021  H     0.89781   0.53015   0.93116   0.00000  Uiso   1.00
H1022  H     0.75889   0.34692   0.90416   0.00000  Uiso   1.00
H1023  H     0.65600   0.46997   0.99577   0.00000  Uiso   1.00
H1024  H     0.67515   0.41649   0.69677   0.00000  Uiso   1.00
H1025  H     0.64883   0.40470   0.89225   0.00000  Uiso   1.00
H1026  H     0.66289   0.35341   0.93107   0.00000  Uiso   1.00
H1027  H     0.59574   0.37152   0.99046   0.00000  Uiso   1.00
H1028  H     0.58092   0.35133   0.90856   0.00000  Uiso   1.00
H1029  H     0.58163   0.42016   0.94670   0.00000  Uiso   1.00
H1030  H     0.80717   0.61162   0.74404   0.00000  Uiso   1.00
H1031  H     0.77052   0.60671   0.67566   0.00000  Uiso   1.00
H1032  H     0.60195   0.46687   0.73603   0.00000  Uiso   1.00
H1033  H     0.87324   0.59735   0.68517   0.00000  Uiso   1.00
H1034  H     0.83790   0.59717   0.94924   0.00000  Uiso   1.00
H1035  H     0.81776   0.35534   0.99552   0.00000  Uiso   1.00
H1036  H     0.87729   0.35236   0.99229   0.00000  Uiso   1.00
H1037  H     0.85447   0.35581   0.73083   0.00000  Uiso   1.00
H1038  H     0.88059   0.46834   0.73525   0.00000  Uiso   1.00
H1039  H     0.61928   0.53054   0.93153   0.00000  Uiso   1.00
H1040  H     0.94575   0.44855   0.68012   0.00000  Uiso   1.00
H1041  H     0.55402   0.54843   0.98712   0.00000  Uiso   1.00
H1042  H     0.52700   0.44781   0.68052   0.00000  Uiso   1.00
H1043  H     0.97258   0.54891   0.98682   0.00000  Uiso   1.00
H1044  H     0.73689   0.65312   0.76311   0.00000  Uiso   1.00
N1045  N     0.73744   0.48547   0.67951   0.00000  Uiso   1.00
N1046  N     0.76255   0.51453   0.98716   0.00000  Uiso   1.00
O1047  O     0.75325   0.42871   0.87326   0.00000  Uiso   1.00
O1048  O     0.80055   0.53744   0.68871   0.00000  Uiso   1.00
O1049  O     0.74674   0.57129   0.79341   0.00000  Uiso   1.00
O1050  O     0.74480   0.41892   0.76945   0.00000  Uiso   1.00
O1051  O     0.75520   0.58108   0.89721   0.00000  Uiso   1.00
O1052  O     0.68935   0.50488   0.88524   0.00000  Uiso   1.00
O1053  O     0.81064   0.49512   0.78143   0.00000  Uiso   1.00
O1054  O     0.68090   0.49510   0.78143   0.00000  Uiso   1.00
O1055  O     0.81910   0.50490   0.88523   0.00000  Uiso   1.00
O1056  O     0.71682   0.44230   0.97289   0.00000  Uiso   1.00
C1057  C     0.24767   0.73327   0.81781   0.00000  Uiso   1.00
C1058  C     0.08785   0.81410   0.77862   0.00000  Uiso   1.00
C1059  C     0.38396   0.83299   0.83311   0.00000  Uiso   1.00
C1060  C     0.11591   0.83221   0.83372   0.00000  Uiso   1.00
C1061  C     0.40227   0.81523   0.77796   0.00000  Uiso   1.00
C1062  C     0.09758   0.84969   0.88895   0.00000  Uiso   1.00
C1063  C     0.44848   0.81420   0.77786   0.00000  Uiso   1.00
C1064  C     0.05131   0.84973   0.88930   0.00000  Uiso   1.00
C1065  C     0.47661   0.83193   0.83354   0.00000  Uiso   1.00
C1066  C     0.02317   0.83168   0.83371   0.00000  Uiso   1.00
C1067  C     0.45823   0.85004   0.88901   0.00000  Uiso   1.00
C1068  C     0.25110   0.93338   0.84894   0.00000  Uiso   1.00
C1069  C     0.04154   0.81355   0.77822   0.00000  Uiso   1.00
C1070  C     0.46702   0.79576   0.72310   0.00000  Uiso   1.00
C1071  C     0.03274   0.86782   0.94416   0.00000  Uiso   1.00
C1072  C     0.17358   0.76626   0.98864   0.00000  Uiso   1.00
C1073  C     0.14733   0.72496   0.93582   0.00000  Uiso   1.00
C1074  C     0.09835   0.71655   0.94631   0.00000  Uiso   1.00
C1075  C     0.30202   0.92609   0.69436   0.00000  Uiso   1.00
C1076  C     0.34236   0.94558   0.99963   0.00000  Uiso   1.00
C1077  C     0.34821   0.67270   0.68054   0.00000  Uiso   1.00
C1078  C     0.01332   0.79536   0.72332   0.00000  Uiso   1.00
C1079  C     0.48640   0.86801   0.94400   0.00000  Uiso   1.00
C1080  C     0.24481   0.67718   0.80940   0.00000  Uiso   1.00
C1081  C     0.25188   0.98947   0.85768   0.00000  Uiso   1.00
C1082  C     0.16438   0.83292   0.83347   0.00000  Uiso   1.00
C1083  C     0.33558   0.83338   0.83319   0.00000  Uiso   1.00
C1084  C     0.41195   0.84997   0.88847   0.00000  Uiso   1.00
Cu1085 Cu    0.25500   0.83913   0.89479   0.00000  Uiso   1.00
Cu1086 Cu    0.24499   0.82754   0.77187   0.00000  Uiso   1.00
H1087  H     0.39781   0.86348   0.93116   0.00000  Uiso   1.00
H1088  H     0.25889   0.68025   0.90416   0.00000  Uiso   1.00
H1089  H     0.15600   0.80330   0.99577   0.00000  Uiso   1.00
H1090  H     0.17515   0.74982   0.69677   0.00000  Uiso   1.00
H1091  H     0.14883   0.73803   0.89225   0.00000  Uiso   1.00
H1092  H     0.16289   0.68674   0.93107   0.00000  Uiso   1.00
H1093  H     0.09574   0.70486   0.99046   0.00000  Uiso   1.00
H1094  H     0.08092   0.68466   0.90856   0.00000  Uiso   1.00
H1095  H     0.08163   0.75349   0.94670   0.00000  Uiso   1.00
H1096  H     0.30717   0.94495   0.74404   0.00000  Uiso   1.00
H1097  H     0.27052   0.94005   0.67566   0.00000  Uiso   1.00
H1098  H     0.10195   0.80020   0.73603   0.00000  Uiso   1.00
H1099  H     0.37324   0.93068   0.68517   0.00000  Uiso   1.00
H1100  H     0.33790   0.93051   0.94924   0.00000  Uiso   1.00
H1101  H     0.31776   0.68867   0.99552   0.00000  Uiso   1.00
H1102  H     0.37729   0.68569   0.99229   0.00000  Uiso   1.00
H1103  H     0.35447   0.68914   0.73083   0.00000  Uiso   1.00
H1104  H     0.38059   0.80167   0.73525   0.00000  Uiso   1.00
H1105  H     0.11928   0.86387   0.93153   0.00000  Uiso   1.00
H1106  H     0.44575   0.78188   0.68012   0.00000  Uiso   1.00
H1107  H     0.05402   0.88176   0.98712   0.00000  Uiso   1.00
H1108  H     0.02700   0.78115   0.68052   0.00000  Uiso   1.00
H1109  H     0.47258   0.88224   0.98682   0.00000  Uiso   1.00
H1110  H     0.23689   0.98645   0.76311   0.00000  Uiso   1.00
N1111  N     0.23744   0.81881   0.67951   0.00000  Uiso   1.00
N1112  N     0.26255   0.84786   0.98716   0.00000  Uiso   1.00
O1113  O     0.25325   0.76204   0.87326   0.00000  Uiso   1.00
O1114  O     0.30055   0.87077   0.68871   0.00000  Uiso   1.00
O1115  O     0.24674   0.90462   0.79341   0.00000  Uiso   1.00
O1116  O     0.24480   0.75226   0.76945   0.00000  Uiso   1.00
O1117  O     0.25520   0.91441   0.89721   0.00000  Uiso   1.00
O1118  O     0.18935   0.83821   0.88524   0.00000  Uiso   1.00
O1119  O     0.31064   0.82845   0.78143   0.00000  Uiso   1.00
O1120  O     0.18090   0.82843   0.78143   0.00000  Uiso   1.00
O1121  O     0.31910   0.83824   0.88523   0.00000  Uiso   1.00
O1122  O     0.21682   0.77564   0.97289   0.00000  Uiso   1.00
C1123  C     0.74767   0.73327   0.81781   0.00000  Uiso   1.00
C1124  C     0.58785   0.81410   0.77862   0.00000  Uiso   1.00
C1125  C     0.88396   0.83299   0.83311   0.00000  Uiso   1.00
C1126  C     0.61591   0.83221   0.83372   0.00000  Uiso   1.00
C1127  C     0.90227   0.81523   0.77796   0.00000  Uiso   1.00
C1128  C     0.59758   0.84969   0.88895   0.00000  Uiso   1.00
C1129  C     0.94848   0.81420   0.77786   0.00000  Uiso   1.00
C1130  C     0.55131   0.84973   0.88930   0.00000  Uiso   1.00
C1131  C     0.97661   0.83193   0.83354   0.00000  Uiso   1.00
C1132  C     0.52317   0.83168   0.83371   0.00000  Uiso   1.00
C1133  C     0.95823   0.85004   0.88901   0.00000  Uiso   1.00
C1134  C     0.75110   0.93338   0.84894   0.00000  Uiso   1.00
C1135  C     0.54154   0.81355   0.77822   0.00000  Uiso   1.00
C1136  C     0.96702   0.79576   0.72310   0.00000  Uiso   1.00
C1137  C     0.53274   0.86782   0.94416   0.00000  Uiso   1.00
C1138  C     0.67358   0.76626   0.98864   0.00000  Uiso   1.00
C1139  C     0.64733   0.72496   0.93582   0.00000  Uiso   1.00
C1140  C     0.59835   0.71655   0.94631   0.00000  Uiso   1.00
C1141  C     0.80202   0.92609   0.69436   0.00000  Uiso   1.00
C1142  C     0.84236   0.94558   0.99963   0.00000  Uiso   1.00
C1143  C     0.84821   0.67270   0.68054   0.00000  Uiso   1.00
C1144  C     0.51332   0.79536   0.72332   0.00000  Uiso   1.00
C1145  C     0.98640   0.86801   0.94400   0.00000  Uiso   1.00
C1146  C     0.74481   0.67718   0.80940   0.00000  Uiso   1.00
C1147  C     0.75188   0.98947   0.85768   0.00000  Uiso   1.00
C1148  C     0.66438   0.83292   0.83347   0.00000  Uiso   1.00
C1149  C     0.83558   0.83338   0.83319   0.00000  Uiso   1.00
C1150  C     0.91195   0.84997   0.88847   0.00000  Uiso   1.00
Cu1151 Cu    0.75500   0.83913   0.89479   0.00000  Uiso   1.00
Cu1152 Cu    0.74499   0.82754   0.77187   0.00000  Uiso   1.00
H1153  H     0.89781   0.86348   0.93116   0.00000  Uiso   1.00
H1154  H     0.75889   0.68025   0.90416   0.00000  Uiso   1.00
H1155  H     0.65600   0.80330   0.99577   0.00000  Uiso   1.00
H1156  H     0.67515   0.74982   0.69677   0.00000  Uiso   1.00
H1157  H     0.64883   0.73803   0.89225   0.00000  Uiso   1.00
H1158  H     0.66289   0.68674   0.93107   0.00000  Uiso   1.00
H1159  H     0.59574   0.70486   0.99046   0.00000  Uiso   1.00
H1160  H     0.58092   0.68466   0.90856   0.00000  Uiso   1.00
H1161  H     0.58163   0.75349   0.94670   0.00000  Uiso   1.00
H1162  H     0.80717   0.94495   0.74404   0.00000  Uiso   1.00
H1163  H     0.77052   0.94005   0.67566   0.00000  Uiso   1.00
H1164  H     0.60195   0.80020   0.73603   0.00000  Uiso   1.00
H1165  H     0.87324   0.93068   0.68517   0.00000  Uiso   1.00
H1166  H     0.83790   0.93051   0.94924   0.00000  Uiso   1.00
H1167  H     0.81776   0.68867   0.99552   0.00000  Uiso   1.00
H1168  H     0.87729   0.68569   0.99229   0.00000  Uiso   1.00
H1169  H     0.85447   0.68914   0.73083   0.00000  Uiso   1.00
H1170  H     0.88059   0.80167   0.73525   0.00000  Uiso   1.00
H1171  H     0.61928   0.86387   0.93153   0.00000  Uiso   1.00
H1172  H     0.94575   0.78188   0.68012   0.00000  Uiso   1.00
H1173  H     0.55402   0.88176   0.98712   0.00000  Uiso   1.00
H1174  H     0.52700   0.78115   0.68052   0.00000  Uiso   1.00
H1175  H     0.97258   0.88224   0.98682   0.00000  Uiso   1.00
H1176  H     0.73689   0.98645   0.76311   0.00000  Uiso   1.00
N1177  N     0.73744   0.81881   0.67951   0.00000  Uiso   1.00
N1178  N     0.76255   0.84786   0.98716   0.00000  Uiso   1.00
O1179  O     0.75325   0.76204   0.87326   0.00000  Uiso   1.00
O1180  O     0.80055   0.87077   0.68871   0.00000  Uiso   1.00
O1181  O     0.74674   0.90462   0.79341   0.00000  Uiso   1.00
O1182  O     0.74480   0.75226   0.76945   0.00000  Uiso   1.00
O1183  O     0.75520   0.91441   0.89721   0.00000  Uiso   1.00
O1184  O     0.68935   0.83821   0.88524   0.00000  Uiso   1.00
O1185  O     0.81064   0.82845   0.78143   0.00000  Uiso   1.00
O1186  O     0.68090   0.82843   0.78143   0.00000  Uiso   1.00
O1187  O     0.81910   0.83824   0.88523   0.00000  Uiso   1.00
O1188  O     0.71682   0.77564   0.97289   0.00000  Uiso   1.00
loop_
_geom_bond_atom_site_label_1
_geom_bond_atom_site_label_2
_geom_bond_distance
_geom_bond_site_symmetry_2
_ccdc_geom_bond_type
C1     O57     1.294   .     A
C1     C24     1.424   .     S
C1     O60     1.290   .     A
C2     C4      1.402   .     A
C2     H42     1.082   .     S
C2     C13     1.391   .     A
C3     C5      1.401   .     A
C3     C27     1.456   .     S
C3     C28     1.403   .     A
C4     C26     1.457   .     S
C4     C6      1.402   .     A
C5     H48     1.085   .     S
C5     C7      1.392   .     A
C6     H49     1.084   .     S
C6     C8      1.393   .     A
C7     C14     1.400   .     A
C7     C9      1.412   .     A
C8     C15     1.401   .     A
C8     C10     1.412   .     A
C9     C11     1.410   .     A
C9     C76     1.400   .     S
C10    C13     1.410   .     A
C10    C75     1.400   1_455 S
C11    C28     1.391   .     A
C11    C23     1.402   .     A
C12    C25     1.426   .     S
C12    O61     1.289   .     A
C12    O59     1.296   .     A
C13    C22     1.402   .     A
C14    H50     1.084   .     S
C14    C88     1.393   .     S
C15    H51     1.084   .     S
C15    C89     1.394   1_455 S
C16    H33     1.114   .     S
C16    O66     1.402   .     S
C16    C17     1.530   .     S
C16    H430    1.109   .     S
C17    H36     1.112   .     S
C17    C18     1.524   .     S
C17    H35     1.112   .     S
C18    H39     1.110   .     S
C18    H37     1.111   .     S
C18    H38     1.110   .     S
C19    O58     1.413   .     S
C19    H40     1.109   .     S
C19    H41     1.114   .     S
C19    C812    1.530   1_554 S
C20    H44     1.107   .     S
C20    C415    1.530   .     S
C20    C549    1.528   .     S
C20    H439    1.112   .     S
C21    H47     1.111   .     S
C21    C1076   1.528   1_544 S
C21    H837    1.111   1_554 S
C21    H838    1.110   1_554 S
C22    H52     1.081   .     S
C22    C80     1.393   1_455 S
C23    H53     1.084   .     S
C23    C81     1.394   .     S
C24    C289    1.328   1_545 S
C24    H318    1.086   1_545 S
C25    C156    1.328   .     S
C25    H164    1.087   .     S
C26    O62     1.301   .     A
C26    O64     1.300   .     A
C27    O65     1.299   .     A
C27    O63     1.302   .     A
C28    H31     1.083   .     S
Cu29   Cu30    2.702   .     S
Cu29   O61     1.946   .     S
Cu29   O65     1.961   .     S
Cu29   N56     2.031   .     S
Cu29   O62     1.964   .     S
Cu29   O57     1.950   .     S
Cu30   O64     1.961   .     S
Cu30   O59     1.950   .     S
Cu30   N55     2.031   .     S
Cu30   O63     1.964   .     S
Cu30   O60     1.946   .     S
H32    C289    1.087   1_545 S
H34    C808    1.109   1_554 S
H43    C812    1.112   1_554 S
H45    C417    1.111   .     S
H46    C417    1.110   .     S
H54    C156    1.086   .     S
N55    N848    1.298   1_554 S
N55    O858    1.346   1_554 S
N56    N451    1.298   .     S
N56    O454    1.348   .     S
O58    N848    1.348   1_554 S
O66    N451    1.346   .     S
C67    O123    1.294   .     A
C67    C90     1.424   .     S
C67    O126    1.290   .     A
C68    C70     1.402   .     A
C68    H108    1.082   .     S
C68    C79     1.391   .     A
C69    C71     1.401   .     A
C69    C93     1.456   .     S
C69    C94     1.403   .     A
C70    C92     1.457   .     S
C70    C72     1.402   .     A
C71    H114    1.085   .     S
C71    C73     1.392   .     A
C72    H115    1.084   .     S
C72    C74     1.393   .     A
C73    C80     1.400   .     A
C73    C75     1.412   .     A
C74    C81     1.401   .     A
C74    C76     1.412   .     A
C75    C77     1.410   .     A
C75    C10     1.400   1_655 S
C76    C79     1.410   .     A
C77    C94     1.391   .     A
C77    C89     1.402   .     A
C78    C91     1.426   .     S
C78    O127    1.289   .     A
C78    O125    1.296   .     A
C79    C88     1.402   .     A
C80    H116    1.084   .     S
C80    C22     1.393   1_655 S
C81    H117    1.084   .     S
C82    H99     1.114   .     S
C82    O132    1.402   .     S
C82    C83     1.530   .     S
C82    H496    1.109   .     S
C83    H102    1.112   .     S
C83    C84     1.524   .     S
C83    H101    1.112   .     S
C84    H105    1.110   .     S
C84    H103    1.111   .     S
C84    H104    1.110   .     S
C85    O124    1.413   .     S
C85    H106    1.109   .     S
C85    H107    1.114   .     S
C85    C878    1.530   1_554 S
C86    H110    1.107   .     S
C86    C481    1.530   .     S
C86    C615    1.528   .     S
C86    H505    1.112   .     S
C87    H113    1.111   .     S
C87    C1142   1.528   1_544 S
C87    H903    1.111   1_554 S
C87    H904    1.110   1_554 S
C88    H118    1.081   .     S
C89    H119    1.084   .     S
C89    C15     1.394   1_655 S
C90    C355    1.328   1_545 S
C90    H384    1.086   1_545 S
C91    C222    1.328   .     S
C91    H230    1.087   .     S
C92    O128    1.301   .     A
C92    O130    1.300   .     A
C93    O131    1.299   .     A
C93    O129    1.302   .     A
C94    H97     1.083   .     S
Cu95   Cu96    2.702   .     S
Cu95   O127    1.946   .     S
Cu95   O131    1.961   .     S
Cu95   N122    2.031   .     S
Cu95   O128    1.964   .     S
Cu95   O123    1.950   .     S
Cu96   O130    1.961   .     S
Cu96   O125    1.950   .     S
Cu96   N121    2.031   .     S
Cu96   O129    1.964   .     S
Cu96   O126    1.946   .     S
H98    C355    1.087   1_545 S
H100   C874    1.109   1_554 S
H109   C878    1.112   1_554 S
H111   C483    1.111   .     S
H112   C483    1.110   .     S
H120   C222    1.086   .     S
N121   N914    1.298   1_554 S
N121   O924    1.346   1_554 S
N122   N517    1.298   .     S
N122   O520    1.348   .     S
O124   N914    1.348   1_554 S
O132   N517    1.346   .     S
C133   O189    1.294   .     A
C133   C156    1.424   .     S
C133   O192    1.290   .     A
C134   C136    1.402   .     A
C134   H174    1.082   .     S
C134   C145    1.391   .     A
C135   C137    1.401   .     A
C135   C159    1.456   .     S
C135   C160    1.403   .     A
C136   C158    1.457   .     S
C136   C138    1.402   .     A
C137   H180    1.085   .     S
C137   C139    1.392   .     A
C138   H181    1.084   .     S
C138   C140    1.393   .     A
C139   C146    1.400   .     A
C139   C141    1.412   .     A
C140   C147    1.401   .     A
C140   C142    1.412   .     A
C141   C143    1.410   .     A
C141   C208    1.400   .     S
C142   C145    1.410   .     A
C142   C207    1.400   1_455 S
C143   C160    1.391   .     A
C143   C155    1.402   .     A
C144   C157    1.426   .     S
C144   O193    1.289   .     A
C144   O191    1.296   .     A
C145   C154    1.402   .     A
C146   H182    1.084   .     S
C146   C220    1.393   .     S
C147   H183    1.084   .     S
C147   C221    1.394   1_455 S
C148   H165    1.114   .     S
C148   O198    1.402   .     S
C148   C149    1.530   .     S
C148   H562    1.109   .     S
C149   H168    1.112   .     S
C149   C150    1.524   .     S
C149   H167    1.112   .     S
C150   H171    1.110   .     S
C150   H169    1.111   .     S
C150   H170    1.110   .     S
C151   O190    1.413   .     S
C151   H172    1.109   .     S
C151   H173    1.114   .     S
C151   C944    1.530   1_554 S
C152   H176    1.107   .     S
C152   C547    1.530   .     S
C152   C681    1.528   .     S
C152   H571    1.112   .     S
C153   H179    1.111   .     S
C153   C812    1.528   1_554 S
C153   H969    1.111   1_554 S
C153   H970    1.110   1_554 S
C154   H184    1.081   .     S
C154   C212    1.393   1_455 S
C155   H185    1.084   .     S
C155   C213    1.394   .     S
C157   C288    1.328   .     S
C157   H296    1.087   .     S
C158   O194    1.301   .     A
C158   O196    1.300   .     A
C159   O197    1.299   .     A
C159   O195    1.302   .     A
C160   H163    1.083   .     S
Cu161  Cu162   2.702   .     S
Cu161  O193    1.946   .     S
Cu161  O197    1.961   .     S
Cu161  N188    2.031   .     S
Cu161  O194    1.964   .     S
Cu161  O189    1.950   .     S
Cu162  O196    1.961   .     S
Cu162  O191    1.950   .     S
Cu162  N187    2.031   .     S
Cu162  O195    1.964   .     S
Cu162  O192    1.946   .     S
H166   C940    1.109   1_554 S
H175   C944    1.112   1_554 S
H177   C549    1.111   .     S
H178   C549    1.110   .     S
H186   C288    1.086   .     S
N187   N980    1.298   1_554 S
N187   O990    1.346   1_554 S
N188   N583    1.298   .     S
N188   O586    1.348   .     S
O190   N980    1.348   1_554 S
O198   N583    1.346   .     S
C199   O255    1.294   .     A
C199   C222    1.424   .     S
C199   O258    1.290   .     A
C200   C202    1.402   .     A
C200   H240    1.082   .     S
C200   C211    1.391   .     A
C201   C203    1.401   .     A
C201   C225    1.456   .     S
C201   C226    1.403   .     A
C202   C224    1.457   .     S
C202   C204    1.402   .     A
C203   H246    1.085   .     S
C203   C205    1.392   .     A
C204   H247    1.084   .     S
C204   C206    1.393   .     A
C205   C212    1.400   .     A
C205   C207    1.412   .     A
C206   C213    1.401   .     A
C206   C208    1.412   .     A
C207   C209    1.410   .     A
C207   C142    1.400   1_655 S
C208   C211    1.410   .     A
C209   C226    1.391   .     A
C209   C221    1.402   .     A
C210   C223    1.426   .     S
C210   O259    1.289   .     A
C210   O257    1.296   .     A
C211   C220    1.402   .     A
C212   H248    1.084   .     S
C212   C154    1.393   1_655 S
C213   H249    1.084   .     S
C214   H231    1.114   .     S
C214   O264    1.402   .     S
C214   C215    1.530   .     S
C214   H628    1.109   .     S
C215   H234    1.112   .     S
C215   C216    1.524   .     S
C215   H233    1.112   .     S
C216   H237    1.110   .     S
C216   H235    1.111   .     S
C216   H236    1.110   .     S
C217   O256    1.413   .     S
C217   H238    1.109   .     S
C217   H239    1.114   .     S
C217   C1010   1.530   1_554 S
C218   H242    1.107   .     S
C218   C613    1.530   .     S
C218   C747    1.528   .     S
C218   H637    1.112   .     S
C219   H245    1.111   .     S
C219   C878    1.528   1_554 S
C219   H1035   1.111   1_554 S
C219   H1036   1.110   1_554 S
C220   H250    1.081   .     S
C221   H251    1.084   .     S
C221   C147    1.394   1_655 S
C223   C354    1.328   .     S
C223   H362    1.087   .     S
C224   O260    1.301   .     A
C224   O262    1.300   .     A
C225   O263    1.299   .     A
C225   O261    1.302   .     A
C226   H229    1.083   .     S
Cu227  Cu228   2.702   .     S
Cu227  O259    1.946   .     S
Cu227  O263    1.961   .     S
Cu227  N254    2.031   .     S
Cu227  O260    1.964   .     S
Cu227  O255    1.950   .     S
Cu228  O262    1.961   .     S
Cu228  O257    1.950   .     S
Cu228  N253    2.031   .     S
Cu228  O261    1.964   .     S
Cu228  O258    1.946   .     S
H232   C1006   1.109   1_554 S
H241   C1010   1.112   1_554 S
H243   C615    1.111   .     S
H244   C615    1.110   .     S
H252   C354    1.086   .     S
N253   N1046   1.298   1_554 S
N253   O1056   1.346   1_554 S
N254   N649    1.298   .     S
N254   O652    1.348   .     S
O256   N1046   1.348   1_554 S
O264   N649    1.346   .     S
C265   O321    1.294   .     A
C265   C288    1.424   .     S
C265   O324    1.290   .     A
C266   C268    1.402   .     A
C266   H306    1.082   .     S
C266   C277    1.391   .     A
C267   C269    1.401   .     A
C267   C291    1.456   .     S
C267   C292    1.403   .     A
C268   C290    1.457   .     S
C268   C270    1.402   .     A
C269   H312    1.085   .     S
C269   C271    1.392   .     A
C270   H313    1.084   .     S
C270   C272    1.393   .     A
C271   C278    1.400   .     A
C271   C273    1.412   .     A
C272   C279    1.401   .     A
C272   C274    1.412   .     A
C273   C275    1.410   .     A
C273   C340    1.400   .     S
C274   C277    1.410   .     A
C274   C339    1.400   1_455 S
C275   C292    1.391   .     A
C275   C287    1.402   .     A
C276   C289    1.426   .     S
C276   O325    1.289   .     A
C276   O323    1.296   .     A
C277   C286    1.402   .     A
C278   H314    1.084   .     S
C278   C352    1.393   .     S
C279   H315    1.084   .     S
C279   C353    1.394   1_455 S
C280   H297    1.114   .     S
C280   O330    1.402   .     S
C280   C281    1.530   .     S
C280   H694    1.109   .     S
C281   H300    1.112   .     S
C281   C282    1.524   .     S
C281   H299    1.112   .     S
C282   H303    1.110   .     S
C282   H301    1.111   .     S
C282   H302    1.110   .     S
C283   O322    1.413   .     S
C283   H304    1.109   .     S
C283   H305    1.114   .     S
C283   C1076   1.530   1_554 S
C284   H308    1.107   .     S
C284   C679    1.530   .     S
C284   C417    1.528   1_565 S
C284   H703    1.112   .     S
C285   H311    1.111   .     S
C285   C944    1.528   1_554 S
C285   H1101   1.111   1_554 S
C285   H1102   1.110   1_554 S
C286   H316    1.081   .     S
C286   C344    1.393   1_455 S
C287   H317    1.084   .     S
C287   C345    1.394   .     S
C289   C24     1.328   1_565 S
C289   H32     1.087   1_565 S
C290   O326    1.301   .     A
C290   O328    1.300   .     A
C291   O329    1.299   .     A
C291   O327    1.302   .     A
C292   H295    1.083   .     S
Cu293  Cu294   2.702   .     S
Cu293  O325    1.946   .     S
Cu293  O329    1.961   .     S
Cu293  N320    2.031   .     S
Cu293  O326    1.964   .     S
Cu293  O321    1.950   .     S
Cu294  O328    1.961   .     S
Cu294  O323    1.950   .     S
Cu294  N319    2.031   .     S
Cu294  O327    1.964   .     S
Cu294  O324    1.946   .     S
H298   C1072   1.109   1_554 S
H307   C1076   1.112   1_554 S
H309   C681    1.111   .     S
H310   C681    1.110   .     S
H318   C24     1.086   1_565 S
N319   N1112   1.298   1_554 S
N319   O1122   1.346   1_554 S
N320   N715    1.298   .     S
N320   O718    1.348   .     S
O322   N1112   1.348   1_554 S
O330   N715    1.346   .     S
C331   O387    1.294   .     A
C331   C354    1.424   .     S
C331   O390    1.290   .     A
C332   C334    1.402   .     A
C332   H372    1.082   .     S
C332   C343    1.391   .     A
C333   C335    1.401   .     A
C333   C357    1.456   .     S
C333   C358    1.403   .     A
C334   C356    1.457   .     S
C334   C336    1.402   .     A
C335   H378    1.085   .     S
C335   C337    1.392   .     A
C336   H379    1.084   .     S
C336   C338    1.393   .     A
C337   C344    1.400   .     A
C337   C339    1.412   .     A
C338   C345    1.401   .     A
C338   C340    1.412   .     A
C339   C341    1.410   .     A
C339   C274    1.400   1_655 S
C340   C343    1.410   .     A
C341   C358    1.391   .     A
C341   C353    1.402   .     A
C342   C355    1.426   .     S
C342   O391    1.289   .     A
C342   O389    1.296   .     A
C343   C352    1.402   .     A
C344   H380    1.084   .     S
C344   C286    1.393   1_655 S
C345   H381    1.084   .     S
C346   H363    1.114   .     S
C346   O396    1.402   .     S
C346   C347    1.530   .     S
C346   H760    1.109   .     S
C347   H366    1.112   .     S
C347   C348    1.524   .     S
C347   H365    1.112   .     S
C348   H369    1.110   .     S
C348   H367    1.111   .     S
C348   H368    1.110   .     S
C349   O388    1.413   .     S
C349   H370    1.109   .     S
C349   H371    1.114   .     S
C349   C1142   1.530   1_554 S
C350   H374    1.107   .     S
C350   C745    1.530   .     S
C350   C483    1.528   1_565 S
C350   H769    1.112   .     S
C351   H377    1.111   .     S
C351   C1010   1.528   1_554 S
C351   H1167   1.111   1_554 S
C351   H1168   1.110   1_554 S
C352   H382    1.081   .     S
C353   H383    1.084   .     S
C353   C279    1.394   1_655 S
C355   C90     1.328   1_565 S
C355   H98     1.087   1_565 S
C356   O392    1.301   .     A
C356   O394    1.300   .     A
C357   O395    1.299   .     A
C357   O393    1.302   .     A
C358   H361    1.083   .     S
Cu359  Cu360   2.702   .     S
Cu359  O391    1.946   .     S
Cu359  O395    1.961   .     S
Cu359  N386    2.031   .     S
Cu359  O392    1.964   .     S
Cu359  O387    1.950   .     S
Cu360  O394    1.961   .     S
Cu360  O389    1.950   .     S
Cu360  N385    2.031   .     S
Cu360  O393    1.964   .     S
Cu360  O390    1.946   .     S
H364   C1138   1.109   1_554 S
H373   C1142   1.112   1_554 S
H375   C747    1.111   .     S
H376   C747    1.110   .     S
H384   C90     1.086   1_565 S
N385   N1178   1.298   1_554 S
N385   O1188   1.346   1_554 S
N386   N781    1.298   .     S
N386   O784    1.348   .     S
O388   N1178   1.348   1_554 S
O396   N781    1.346   .     S
C397   O453    1.294   .     A
C397   C420    1.424   .     S
C397   O456    1.290   .     A
C398   C400    1.402   .     A
C398   H438    1.082   .     S
C398   C409    1.391   .     A
C399   C401    1.401   .     A
C399   C423    1.456   .     S
C399   C424    1.403   .     A
C400   C422    1.457   .     S
C400   C402    1.402   .     A
C401   H444    1.085   .     S
C401   C403    1.392   .     A
C402   H445    1.084   .     S
C402   C404    1.393   .     A
C403   C410    1.400   .     A
C403   C405    1.412   .     A
C404   C411    1.401   .     A
C404   C406    1.412   .     A
C405   C407    1.410   .     A
C405   C472    1.400   .     S
C406   C409    1.410   .     A
C406   C471    1.400   1_455 S
C407   C424    1.391   .     A
C407   C419    1.402   .     A
C408   C421    1.426   .     S
C408   O457    1.289   .     A
C408   O455    1.296   .     A
C409   C418    1.402   .     A
C410   H446    1.084   .     S
C410   C484    1.393   .     S
C411   H447    1.084   .     S
C411   C485    1.394   1_455 S
C412   H429    1.114   .     S
C412   O462    1.402   .     S
C412   C413    1.530   .     S
C412   H826    1.109   .     S
C413   H432    1.112   .     S
C413   C414    1.524   .     S
C413   H431    1.112   .     S
C414   H435    1.110   .     S
C414   H433    1.111   .     S
C414   H434    1.110   .     S
C415   O454    1.413   .     S
C415   H436    1.109   .     S
C415   H437    1.114   .     S
C416   H440    1.107   .     S
C416   C811    1.530   .     S
C416   C945    1.528   .     S
C416   H835    1.112   .     S
C417   H443    1.111   .     S
C417   C284    1.528   1_545 S
C418   H448    1.081   .     S
C418   C476    1.393   1_455 S
C419   H449    1.084   .     S
C419   C477    1.394   .     S
C420   C685    1.328   1_545 S
C420   H714    1.086   1_545 S
C421   C552    1.328   .     S
C421   H560    1.087   .     S
C422   O458    1.301   .     A
C422   O460    1.300   .     A
C423   O461    1.299   .     A
C423   O459    1.302   .     A
C424   H427    1.083   .     S
Cu425  Cu426   2.702   .     S
Cu425  O457    1.946   .     S
Cu425  O461    1.961   .     S
Cu425  N452    2.031   .     S
Cu425  O458    1.964   .     S
Cu425  O453    1.950   .     S
Cu426  O460    1.961   .     S
Cu426  O455    1.950   .     S
Cu426  N451    2.031   .     S
Cu426  O459    1.964   .     S
Cu426  O456    1.946   .     S
H428   C685    1.087   1_545 S
H441   C813    1.111   .     S
H442   C813    1.110   .     S
H450   C552    1.086   .     S
N452   N847    1.298   .     S
N452   O850    1.348   .     S
O462   N847    1.346   .     S
C463   O519    1.294   .     A
C463   C486    1.424   .     S
C463   O522    1.290   .     A
C464   C466    1.402   .     A
C464   H504    1.082   .     S
C464   C475    1.391   .     A
C465   C467    1.401   .     A
C465   C489    1.456   .     S
C465   C490    1.403   .     A
C466   C488    1.457   .     S
C466   C468    1.402   .     A
C467   H510    1.085   .     S
C467   C469    1.392   .     A
C468   H511    1.084   .     S
C468   C470    1.393   .     A
C469   C476    1.400   .     A
C469   C471    1.412   .     A
C470   C477    1.401   .     A
C470   C472    1.412   .     A
C471   C473    1.410   .     A
C471   C406    1.400   1_655 S
C472   C475    1.410   .     A
C473   C490    1.391   .     A
C473   C485    1.402   .     A
C474   C487    1.426   .     S
C474   O523    1.289   .     A
C474   O521    1.296   .     A
C475   C484    1.402   .     A
C476   H512    1.084   .     S
C476   C418    1.393   1_655 S
C477   H513    1.084   .     S
C478   H495    1.114   .     S
C478   O528    1.402   .     S
C478   C479    1.530   .     S
C478   H892    1.109   .     S
C479   H498    1.112   .     S
C479   C480    1.524   .     S
C479   H497    1.112   .     S
C480   H501    1.110   .     S
C480   H499    1.111   .     S
C480   H500    1.110   .     S
C481   O520    1.413   .     S
C481   H502    1.109   .     S
C481   H503    1.114   .     S
C482   H506    1.107   .     S
C482   C877    1.530   .     S
C482   C1011   1.528   .     S
C482   H901    1.112   .     S
C483   H509    1.111   .     S
C483   C350    1.528   1_545 S
C484   H514    1.081   .     S
C485   H515    1.084   .     S
C485   C411    1.394   1_655 S
C486   C751    1.328   1_545 S
C486   H780    1.086   1_545 S
C487   C618    1.328   .     S
C487   H626    1.087   .     S
C488   O524    1.301   .     A
C488   O526    1.300   .     A
C489   O527    1.299   .     A
C489   O525    1.302   .     A
C490   H493    1.083   .     S
Cu491  Cu492   2.702   .     S
Cu491  O523    1.946   .     S
Cu491  O527    1.961   .     S
Cu491  N518    2.031   .     S
Cu491  O524    1.964   .     S
Cu491  O519    1.950   .     S
Cu492  O526    1.961   .     S
Cu492  O521    1.950   .     S
Cu492  N517    2.031   .     S
Cu492  O525    1.964   .     S
Cu492  O522    1.946   .     S
H494   C751    1.087   1_545 S
H507   C879    1.111   .     S
H508   C879    1.110   .     S
H516   C618    1.086   .     S
N518   N913    1.298   .     S
N518   O916    1.348   .     S
O528   N913    1.346   .     S
C529   O585    1.294   .     A
C529   C552    1.424   .     S
C529   O588    1.290   .     A
C530   C532    1.402   .     A
C530   H570    1.082   .     S
C530   C541    1.391   .     A
C531   C533    1.401   .     A
C531   C555    1.456   .     S
C531   C556    1.403   .     A
C532   C554    1.457   .     S
C532   C534    1.402   .     A
C533   H576    1.085   .     S
C533   C535    1.392   .     A
C534   H577    1.084   .     S
C534   C536    1.393   .     A
C535   C542    1.400   .     A
C535   C537    1.412   .     A
C536   C543    1.401   .     A
C536   C538    1.412   .     A
C537   C539    1.410   .     A
C537   C604    1.400   .     S
C538   C541    1.410   .     A
C538   C603    1.400   1_455 S
C539   C556    1.391   .     A
C539   C551    1.402   .     A
C540   C553    1.426   .     S
C540   O589    1.289   .     A
C540   O587    1.296   .     A
C541   C550    1.402   .     A
C542   H578    1.084   .     S
C542   C616    1.393   .     S
C543   H579    1.084   .     S
C543   C617    1.394   1_455 S
C544   H561    1.114   .     S
C544   O594    1.402   .     S
C544   C545    1.530   .     S
C544   H958    1.109   .     S
C545   H564    1.112   .     S
C545   C546    1.524   .     S
C545   H563    1.112   .     S
C546   H567    1.110   .     S
C546   H565    1.111   .     S
C546   H566    1.110   .     S
C547   O586    1.413   .     S
C547   H568    1.109   .     S
C547   H569    1.114   .     S
C548   H572    1.107   .     S
C548   C943    1.530   .     S
C548   C1077   1.528   .     S
C548   H967    1.112   .     S
C549   H575    1.111   .     S
C550   H580    1.081   .     S
C550   C608    1.393   1_455 S
C551   H581    1.084   .     S
C551   C609    1.394   .     S
C553   C684    1.328   .     S
C553   H692    1.087   .     S
C554   O590    1.301   .     A
C554   O592    1.300   .     A
C555   O593    1.299   .     A
C555   O591    1.302   .     A
C556   H559    1.083   .     S
Cu557  Cu558   2.702   .     S
Cu557  O589    1.946   .     S
Cu557  O593    1.961   .     S
Cu557  N584    2.031   .     S
Cu557  O590    1.964   .     S
Cu557  O585    1.950   .     S
Cu558  O592    1.961   .     S
Cu558  O587    1.950   .     S
Cu558  N583    2.031   .     S
Cu558  O591    1.964   .     S
Cu558  O588    1.946   .     S
H573   C945    1.111   .     S
H574   C945    1.110   .     S
H582   C684    1.086   .     S
N584   N979    1.298   .     S
N584   O982    1.348   .     S
O594   N979    1.346   .     S
C595   O651    1.294   .     A
C595   C618    1.424   .     S
C595   O654    1.290   .     A
C596   C598    1.402   .     A
C596   H636    1.082   .     S
C596   C607    1.391   .     A
C597   C599    1.401   .     A
C597   C621    1.456   .     S
C597   C622    1.403   .     A
C598   C620    1.457   .     S
C598   C600    1.402   .     A
C599   H642    1.085   .     S
C599   C601    1.392   .     A
C600   H643    1.084   .     S
C600   C602    1.393   .     A
C601   C608    1.400   .     A
C601   C603    1.412   .     A
C602   C609    1.401   .     A
C602   C604    1.412   .     A
C603   C605    1.410   .     A
C603   C538    1.400   1_655 S
C604   C607    1.410   .     A
C605   C622    1.391   .     A
C605   C617    1.402   .     A
C606   C619    1.426   .     S
C606   O655    1.289   .     A
C606   O653    1.296   .     A
C607   C616    1.402   .     A
C608   H644    1.084   .     S
C608   C550    1.393   1_655 S
C609   H645    1.084   .     S
C610   H627    1.114   .     S
C610   O660    1.402   .     S
C610   C611    1.530   .     S
C610   H1024   1.109   .     S
C611   H630    1.112   .     S
C611   C612    1.524   .     S
C611   H629    1.112   .     S
C612   H633    1.110   .     S
C612   H631    1.111   .     S
C612   H632    1.110   .     S
C613   O652    1.413   .     S
C613   H634    1.109   .     S
C613   H635    1.114   .     S
C614   H638    1.107   .     S
C614   C1009   1.530   .     S
C614   C1143   1.528   .     S
C614   H1033   1.112   .     S
C615   H641    1.111   .     S
C616   H646    1.081   .     S
C617   H647    1.084   .     S
C617   C543    1.394   1_655 S
C619   C750    1.328   .     S
C619   H758    1.087   .     S
C620   O656    1.301   .     A
C620   O658    1.300   .     A
C621   O659    1.299   .     A
C621   O657    1.302   .     A
C622   H625    1.083   .     S
Cu623  Cu624   2.702   .     S
Cu623  O655    1.946   .     S
Cu623  O659    1.961   .     S
Cu623  N650    2.031   .     S
Cu623  O656    1.964   .     S
Cu623  O651    1.950   .     S
Cu624  O658    1.961   .     S
Cu624  O653    1.950   .     S
Cu624  N649    2.031   .     S
Cu624  O657    1.964   .     S
Cu624  O654    1.946   .     S
H639   C1011   1.111   .     S
H640   C1011   1.110   .     S
H648   C750    1.086   .     S
N650   N1045   1.298   .     S
N650   O1048   1.348   .     S
O660   N1045   1.346   .     S
C661   O717    1.294   .     A
C661   C684    1.424   .     S
C661   O720    1.290   .     A
C662   C664    1.402   .     A
C662   H702    1.082   .     S
C662   C673    1.391   .     A
C663   C665    1.401   .     A
C663   C687    1.456   .     S
C663   C688    1.403   .     A
C664   C686    1.457   .     S
C664   C666    1.402   .     A
C665   H708    1.085   .     S
C665   C667    1.392   .     A
C666   H709    1.084   .     S
C666   C668    1.393   .     A
C667   C674    1.400   .     A
C667   C669    1.412   .     A
C668   C675    1.401   .     A
C668   C670    1.412   .     A
C669   C671    1.410   .     A
C669   C736    1.400   .     S
C670   C673    1.410   .     A
C670   C735    1.400   1_455 S
C671   C688    1.391   .     A
C671   C683    1.402   .     A
C672   C685    1.426   .     S
C672   O721    1.289   .     A
C672   O719    1.296   .     A
C673   C682    1.402   .     A
C674   H710    1.084   .     S
C674   C748    1.393   .     S
C675   H711    1.084   .     S
C675   C749    1.394   1_455 S
C676   H693    1.114   .     S
C676   O726    1.402   .     S
C676   C677    1.530   .     S
C676   H1090   1.109   .     S
C677   H696    1.112   .     S
C677   C678    1.524   .     S
C677   H695    1.112   .     S
C678   H699    1.110   .     S
C678   H697    1.111   .     S
C678   H698    1.110   .     S
C679   O718    1.413   .     S
C679   H700    1.109   .     S
C679   H701    1.114   .     S
C680   H704    1.107   .     S
C680   C1075   1.530   .     S
C680   C813    1.528   1_565 S
C680   H1099   1.112   .     S
C681   H707    1.111   .     S
C682   H712    1.081   .     S
C682   C740    1.393   1_455 S
C683   H713    1.084   .     S
C683   C741    1.394   .     S
C685   C420    1.328   1_565 S
C685   H428    1.087   1_565 S
C686   O722    1.301   .     A
C686   O724    1.300   .     A
C687   O725    1.299   .     A
C687   O723    1.302   .     A
C688   H691    1.083   .     S
Cu689  Cu690   2.702   .     S
Cu689  O721    1.946   .     S
Cu689  O725    1.961   .     S
Cu689  N716    2.031   .     S
Cu689  O722    1.964   .     S
Cu689  O717    1.950   .     S
Cu690  O724    1.961   .     S
Cu690  O719    1.950   .     S
Cu690  N715    2.031   .     S
Cu690  O723    1.964   .     S
Cu690  O720    1.946   .     S
H705   C1077   1.111   .     S
H706   C1077   1.110   .     S
H714   C420    1.086   1_565 S
N716   N1111   1.298   .     S
N716   O1114   1.348   .     S
O726   N1111   1.346   .     S
C727   O783    1.294   .     A
C727   C750    1.424   .     S
C727   O786    1.290   .     A
C728   C730    1.402   .     A
C728   H768    1.082   .     S
C728   C739    1.391   .     A
C729   C731    1.401   .     A
C729   C753    1.456   .     S
C729   C754    1.403   .     A
C730   C752    1.457   .     S
C730   C732    1.402   .     A
C731   H774    1.085   .     S
C731   C733    1.392   .     A
C732   H775    1.084   .     S
C732   C734    1.393   .     A
C733   C740    1.400   .     A
C733   C735    1.412   .     A
C734   C741    1.401   .     A
C734   C736    1.412   .     A
C735   C737    1.410   .     A
C735   C670    1.400   1_655 S
C736   C739    1.410   .     A
C737   C754    1.391   .     A
C737   C749    1.402   .     A
C738   C751    1.426   .     S
C738   O787    1.289   .     A
C738   O785    1.296   .     A
C739   C748    1.402   .     A
C740   H776    1.084   .     S
C740   C682    1.393   1_655 S
C741   H777    1.084   .     S
C742   H759    1.114   .     S
C742   O792    1.402   .     S
C742   C743    1.530   .     S
C742   H1156   1.109   .     S
C743   H762    1.112   .     S
C743   C744    1.524   .     S
C743   H761    1.112   .     S
C744   H765    1.110   .     S
C744   H763    1.111   .     S
C744   H764    1.110   .     S
C745   O784    1.413   .     S
C745   H766    1.109   .     S
C745   H767    1.114   .     S
C746   H770    1.107   .     S
C746   C1141   1.530   .     S
C746   C879    1.528   1_565 S
C746   H1165   1.112   .     S
C747   H773    1.111   .     S
C748   H778    1.081   .     S
C749   H779    1.084   .     S
C749   C675    1.394   1_655 S
C751   C486    1.328   1_565 S
C751   H494    1.087   1_565 S
C752   O788    1.301   .     A
C752   O790    1.300   .     A
C753   O791    1.299   .     A
C753   O789    1.302   .     A
C754   H757    1.083   .     S
Cu755  Cu756   2.702   .     S
Cu755  O787    1.946   .     S
Cu755  O791    1.961   .     S
Cu755  N782    2.031   .     S
Cu755  O788    1.964   .     S
Cu755  O783    1.950   .     S
Cu756  O790    1.961   .     S
Cu756  O785    1.950   .     S
Cu756  N781    2.031   .     S
Cu756  O789    1.964   .     S
Cu756  O786    1.946   .     S
H771   C1143   1.111   .     S
H772   C1143   1.110   .     S
H780   C486    1.086   1_565 S
N782   N1177   1.298   .     S
N782   O1180   1.348   .     S
O792   N1177   1.346   .     S
C793   O849    1.294   .     A
C793   C816    1.424   .     S
C793   O852    1.290   .     A
C794   C796    1.402   .     A
C794   H834    1.082   .     S
C794   C805    1.391   .     A
C795   C797    1.401   .     A
C795   C819    1.456   .     S
C795   C820    1.403   .     A
C796   C818    1.457   .     S
C796   C798    1.402   .     A
C797   H840    1.085   .     S
C797   C799    1.392   .     A
C798   H841    1.084   .     S
C798   C800    1.393   .     A
C799   C806    1.400   .     A
C799   C801    1.412   .     A
C800   C807    1.401   .     A
C800   C802    1.412   .     A
C801   C803    1.410   .     A
C801   C868    1.400   .     S
C802   C805    1.410   .     A
C802   C867    1.400   1_455 S
C803   C820    1.391   .     A
C803   C815    1.402   .     A
C804   C817    1.426   .     S
C804   O853    1.289   .     A
C804   O851    1.296   .     A
C805   C814    1.402   .     A
C806   H842    1.084   .     S
C806   C880    1.393   .     S
C807   H843    1.084   .     S
C807   C881    1.394   1_455 S
C808   H825    1.114   .     S
C808   O858    1.402   .     S
C808   C809    1.530   .     S
C808   H34     1.109   1_556 S
C809   H828    1.112   .     S
C809   C810    1.524   .     S
C809   H827    1.112   .     S
C810   H831    1.110   .     S
C810   H829    1.111   .     S
C810   H830    1.110   .     S
C811   O850    1.413   .     S
C811   H832    1.109   .     S
C811   H833    1.114   .     S
C812   H836    1.107   .     S
C812   C19     1.530   1_556 S
C812   C153    1.528   1_556 S
C812   H43     1.112   1_556 S
C813   H839    1.111   .     S
C813   C680    1.528   1_545 S
C814   H844    1.081   .     S
C814   C872    1.393   1_455 S
C815   H845    1.084   .     S
C815   C873    1.394   .     S
C816   C1081   1.328   1_545 S
C816   H1110   1.086   1_545 S
C817   C948    1.328   .     S
C817   H956    1.087   .     S
C818   O854    1.301   .     A
C818   O856    1.300   .     A
C819   O857    1.299   .     A
C819   O855    1.302   .     A
C820   H823    1.083   .     S
Cu821  Cu822   2.702   .     S
Cu821  O853    1.946   .     S
Cu821  O857    1.961   .     S
Cu821  N848    2.031   .     S
Cu821  O854    1.964   .     S
Cu821  O849    1.950   .     S
Cu822  O856    1.961   .     S
Cu822  O851    1.950   .     S
Cu822  N847    2.031   .     S
Cu822  O855    1.964   .     S
Cu822  O852    1.946   .     S
H824   C1081   1.087   1_545 S
H837   C21     1.111   1_556 S
H838   C21     1.110   1_556 S
H846   C948    1.086   .     S
N848   N55     1.298   1_556 S
N848   O58     1.348   1_556 S
O858   N55     1.346   1_556 S
C859   O915    1.294   .     A
C859   C882    1.424   .     S
C859   O918    1.290   .     A
C860   C862    1.402   .     A
C860   H900    1.082   .     S
C860   C871    1.391   .     A
C861   C863    1.401   .     A
C861   C885    1.456   .     S
C861   C886    1.403   .     A
C862   C884    1.457   .     S
C862   C864    1.402   .     A
C863   H906    1.085   .     S
C863   C865    1.392   .     A
C864   H907    1.084   .     S
C864   C866    1.393   .     A
C865   C872    1.400   .     A
C865   C867    1.412   .     A
C866   C873    1.401   .     A
C866   C868    1.412   .     A
C867   C869    1.410   .     A
C867   C802    1.400   1_655 S
C868   C871    1.410   .     A
C869   C886    1.391   .     A
C869   C881    1.402   .     A
C870   C883    1.426   .     S
C870   O919    1.289   .     A
C870   O917    1.296   .     A
C871   C880    1.402   .     A
C872   H908    1.084   .     S
C872   C814    1.393   1_655 S
C873   H909    1.084   .     S
C874   H891    1.114   .     S
C874   O924    1.402   .     S
C874   C875    1.530   .     S
C874   H100    1.109   1_556 S
C875   H894    1.112   .     S
C875   C876    1.524   .     S
C875   H893    1.112   .     S
C876   H897    1.110   .     S
C876   H895    1.111   .     S
C876   H896    1.110   .     S
C877   O916    1.413   .     S
C877   H898    1.109   .     S
C877   H899    1.114   .     S
C878   H902    1.107   .     S
C878   C85     1.530   1_556 S
C878   C219    1.528   1_556 S
C878   H109    1.112   1_556 S
C879   H905    1.111   .     S
C879   C746    1.528   1_545 S
C880   H910    1.081   .     S
C881   H911    1.084   .     S
C881   C807    1.394   1_655 S
C882   C1147   1.328   1_545 S
C882   H1176   1.086   1_545 S
C883   C1014   1.328   .     S
C883   H1022   1.087   .     S
C884   O920    1.301   .     A
C884   O922    1.300   .     A
C885   O923    1.299   .     A
C885   O921    1.302   .     A
C886   H889    1.083   .     S
Cu887  Cu888   2.702   .     S
Cu887  O919    1.946   .     S
Cu887  O923    1.961   .     S
Cu887  N914    2.031   .     S
Cu887  O920    1.964   .     S
Cu887  O915    1.950   .     S
Cu888  O922    1.961   .     S
Cu888  O917    1.950   .     S
Cu888  N913    2.031   .     S
Cu888  O921    1.964   .     S
Cu888  O918    1.946   .     S
H890   C1147   1.087   1_545 S
H903   C87     1.111   1_556 S
H904   C87     1.110   1_556 S
H912   C1014   1.086   .     S
N914   N121    1.298   1_556 S
N914   O124    1.348   1_556 S
O924   N121    1.346   1_556 S
C925   O981    1.294   .     A
C925   C948    1.424   .     S
C925   O984    1.290   .     A
C926   C928    1.402   .     A
C926   H966    1.082   .     S
C926   C937    1.391   .     A
C927   C929    1.401   .     A
C927   C951    1.456   .     S
C927   C952    1.403   .     A
C928   C950    1.457   .     S
C928   C930    1.402   .     A
C929   H972    1.085   .     S
C929   C931    1.392   .     A
C930   H973    1.084   .     S
C930   C932    1.393   .     A
C931   C938    1.400   .     A
C931   C933    1.412   .     A
C932   C939    1.401   .     A
C932   C934    1.412   .     A
C933   C935    1.410   .     A
C933   C1000   1.400   .     S
C934   C937    1.410   .     A
C934   C999    1.400   1_455 S
C935   C952    1.391   .     A
C935   C947    1.402   .     A
C936   C949    1.426   .     S
C936   O985    1.289   .     A
C936   O983    1.296   .     A
C937   C946    1.402   .     A
C938   H974    1.084   .     S
C938   C1012   1.393   .     S
C939   H975    1.084   .     S
C939   C1013   1.394   1_455 S
C940   H957    1.114   .     S
C940   O990    1.402   .     S
C940   C941    1.530   .     S
C940   H166    1.109   1_556 S
C941   H960    1.112   .     S
C941   C942    1.524   .     S
C941   H959    1.112   .     S
C942   H963    1.110   .     S
C942   H961    1.111   .     S
C942   H962    1.110   .     S
C943   O982    1.413   .     S
C943   H964    1.109   .     S
C943   H965    1.114   .     S
C944   H968    1.107   .     S
C944   C151    1.530   1_556 S
C944   C285    1.528   1_556 S
C944   H175    1.112   1_556 S
C945   H971    1.111   .     S
C946   H976    1.081   .     S
C946   C1004   1.393   1_455 S
C947   H977    1.084   .     S
C947   C1005   1.394   .     S
C949   C1080   1.328   .     S
C949   H1088   1.087   .     S
C950   O986    1.301   .     A
C950   O988    1.300   .     A
C951   O989    1.299   .     A
C951   O987    1.302   .     A
C952   H955    1.083   .     S
Cu953  Cu954   2.702   .     S
Cu953  O985    1.946   .     S
Cu953  O989    1.961   .     S
Cu953  N980    2.031   .     S
Cu953  O986    1.964   .     S
Cu953  O981    1.950   .     S
Cu954  O988    1.961   .     S
Cu954  O983    1.950   .     S
Cu954  N979    2.031   .     S
Cu954  O987    1.964   .     S
Cu954  O984    1.946   .     S
H969   C153    1.111   1_556 S
H970   C153    1.110   1_556 S
H978   C1080   1.086   .     S
N980   N187    1.298   1_556 S
N980   O190    1.348   1_556 S
O990   N187    1.346   1_556 S
C991   O1047   1.294   .     A
C991   C1014   1.424   .     S
C991   O1050   1.290   .     A
C992   C994    1.402   .     A
C992   H1032   1.082   .     S
C992   C1003   1.391   .     A
C993   C995    1.401   .     A
C993   C1017   1.456   .     S
C993   C1018   1.403   .     A
C994   C1016   1.457   .     S
C994   C996    1.402   .     A
C995   H1038   1.085   .     S
C995   C997    1.392   .     A
C996   H1039   1.084   .     S
C996   C998    1.393   .     A
C997   C1004   1.400   .     A
C997   C999    1.412   .     A
C998   C1005   1.401   .     A
C998   C1000   1.412   .     A
C999   C1001   1.410   .     A
C999   C934    1.400   1_655 S
C1000  C1003   1.410   .     A
C1001  C1018   1.391   .     A
C1001  C1013   1.402   .     A
C1002  C1015   1.426   .     S
C1002  O1051   1.289   .     A
C1002  O1049   1.296   .     A
C1003  C1012   1.402   .     A
C1004  H1040   1.084   .     S
C1004  C946    1.393   1_655 S
C1005  H1041   1.084   .     S
C1006  H1023   1.114   .     S
C1006  O1056   1.402   .     S
C1006  C1007   1.530   .     S
C1006  H232    1.109   1_556 S
C1007  H1026   1.112   .     S
C1007  C1008   1.524   .     S
C1007  H1025   1.112   .     S
C1008  H1029   1.110   .     S
C1008  H1027   1.111   .     S
C1008  H1028   1.110   .     S
C1009  O1048   1.413   .     S
C1009  H1030   1.109   .     S
C1009  H1031   1.114   .     S
C1010  H1034   1.107   .     S
C1010  C217    1.530   1_556 S
C1010  C351    1.528   1_556 S
C1010  H241    1.112   1_556 S
C1011  H1037   1.111   .     S
C1012  H1042   1.081   .     S
C1013  H1043   1.084   .     S
C1013  C939    1.394   1_655 S
C1015  C1146   1.328   .     S
C1015  H1154   1.087   .     S
C1016  O1052   1.301   .     A
C1016  O1054   1.300   .     A
C1017  O1055   1.299   .     A
C1017  O1053   1.302   .     A
C1018  H1021   1.083   .     S
Cu1019 Cu1020  2.702   .     S
Cu1019 O1051   1.946   .     S
Cu1019 O1055   1.961   .     S
Cu1019 N1046   2.031   .     S
Cu1019 O1052   1.964   .     S
Cu1019 O1047   1.950   .     S
Cu1020 O1054   1.961   .     S
Cu1020 O1049   1.950   .     S
Cu1020 N1045   2.031   .     S
Cu1020 O1053   1.964   .     S
Cu1020 O1050   1.946   .     S
H1035  C219    1.111   1_556 S
H1036  C219    1.110   1_556 S
H1044  C1146   1.086   .     S
N1046  N253    1.298   1_556 S
N1046  O256    1.348   1_556 S
O1056  N253    1.346   1_556 S
C1057  O1113   1.294   .     A
C1057  C1080   1.424   .     S
C1057  O1116   1.290   .     A
C1058  C1060   1.402   .     A
C1058  H1098   1.082   .     S
C1058  C1069   1.391   .     A
C1059  C1061   1.401   .     A
C1059  C1083   1.456   .     S
C1059  C1084   1.403   .     A
C1060  C1082   1.457   .     S
C1060  C1062   1.402   .     A
C1061  H1104   1.085   .     S
C1061  C1063   1.392   .     A
C1062  H1105   1.084   .     S
C1062  C1064   1.393   .     A
C1063  C1070   1.400   .     A
C1063  C1065   1.412   .     A
C1064  C1071   1.401   .     A
C1064  C1066   1.412   .     A
C1065  C1067   1.410   .     A
C1065  C1132   1.400   .     S
C1066  C1069   1.410   .     A
C1066  C1131   1.400   1_455 S
C1067  C1084   1.391   .     A
C1067  C1079   1.402   .     A
C1068  C1081   1.426   .     S
C1068  O1117   1.289   .     A
C1068  O1115   1.296   .     A
C1069  C1078   1.402   .     A
C1070  H1106   1.084   .     S
C1070  C1144   1.393   .     S
C1071  H1107   1.084   .     S
C1071  C1145   1.394   1_455 S
C1072  H1089   1.114   .     S
C1072  O1122   1.402   .     S
C1072  C1073   1.530   .     S
C1072  H298    1.109   1_556 S
C1073  H1092   1.112   .     S
C1073  C1074   1.524   .     S
C1073  H1091   1.112   .     S
C1074  H1095   1.110   .     S
C1074  H1093   1.111   .     S
C1074  H1094   1.110   .     S
C1075  O1114   1.413   .     S
C1075  H1096   1.109   .     S
C1075  H1097   1.114   .     S
C1076  H1100   1.107   .     S
C1076  C283    1.530   1_556 S
C1076  C21     1.528   1_566 S
C1076  H307    1.112   1_556 S
C1077  H1103   1.111   .     S
C1078  H1108   1.081   .     S
C1078  C1136   1.393   1_455 S
C1079  H1109   1.084   .     S
C1079  C1137   1.394   .     S
C1081  C816    1.328   1_565 S
C1081  H824    1.087   1_565 S
C1082  O1118   1.301   .     A
C1082  O1120   1.300   .     A
C1083  O1121   1.299   .     A
C1083  O1119   1.302   .     A
C1084  H1087   1.083   .     S
Cu1085 Cu1086  2.702   .     S
Cu1085 O1117   1.946   .     S
Cu1085 O1121   1.961   .     S
Cu1085 N1112   2.031   .     S
Cu1085 O1118   1.964   .     S
Cu1085 O1113   1.950   .     S
Cu1086 O1120   1.961   .     S
Cu1086 O1115   1.950   .     S
Cu1086 N1111   2.031   .     S
Cu1086 O1119   1.964   .     S
Cu1086 O1116   1.946   .     S
H1101  C285    1.111   1_556 S
H1102  C285    1.110   1_556 S
H1110  C816    1.086   1_565 S
N1112  N319    1.298   1_556 S
N1112  O322    1.348   1_556 S
O1122  N319    1.346   1_556 S
C1123  O1179   1.294   .     A
C1123  C1146   1.424   .     S
C1123  O1182   1.290   .     A
C1124  C1126   1.402   .     A
C1124  H1164   1.082   .     S
C1124  C1135   1.391   .     A
C1125  C1127   1.401   .     A
C1125  C1149   1.456   .     S
C1125  C1150   1.403   .     A
C1126  C1148   1.457   .     S
C1126  C1128   1.402   .     A
C1127  H1170   1.085   .     S
C1127  C1129   1.392   .     A
C1128  H1171   1.084   .     S
C1128  C1130   1.393   .     A
C1129  C1136   1.400   .     A
C1129  C1131   1.412   .     A
C1130  C1137   1.401   .     A
C1130  C1132   1.412   .     A
C1131  C1133   1.410   .     A
C1131  C1066   1.400   1_655 S
C1132  C1135   1.410   .     A
C1133  C1150   1.391   .     A
C1133  C1145   1.402   .     A
C1134  C1147   1.426   .     S
C1134  O1183   1.289   .     A
C1134  O1181   1.296   .     A
C1135  C1144   1.402   .     A
C1136  H1172   1.084   .     S
C1136  C1078   1.393   1_655 S
C1137  H1173   1.084   .     S
C1138  H1155   1.114   .     S
C1138  O1188   1.402   .     S
C1138  C1139   1.530   .     S
C1138  H364    1.109   1_556 S
C1139  H1158   1.112   .     S
C1139  C1140   1.524   .     S
C1139  H1157   1.112   .     S
C1140  H1161   1.110   .     S
C1140  H1159   1.111   .     S
C1140  H1160   1.110   .     S
C1141  O1180   1.413   .     S
C1141  H1162   1.109   .     S
C1141  H1163   1.114   .     S
C1142  H1166   1.107   .     S
C1142  C349    1.530   1_556 S
C1142  C87     1.528   1_566 S
C1142  H373    1.112   1_556 S
C1143  H1169   1.111   .     S
C1144  H1174   1.081   .     S
C1145  H1175   1.084   .     S
C1145  C1071   1.394   1_655 S
C1147  C882    1.328   1_565 S
C1147  H890    1.087   1_565 S
C1148  O1184   1.301   .     A
C1148  O1186   1.300   .     A
C1149  O1187   1.299   .     A
C1149  O1185   1.302   .     A
C1150  H1153   1.083   .     S
Cu1151 Cu1152  2.702   .     S
Cu1151 O1183   1.946   .     S
Cu1151 O1187   1.961   .     S
Cu1151 N1178   2.031   .     S
Cu1151 O1184   1.964   .     S
Cu1151 O1179   1.950   .     S
Cu1152 O1186   1.961   .     S
Cu1152 O1181   1.950   .     S
Cu1152 N1177   2.031   .     S
Cu1152 O1185   1.964   .     S
Cu1152 O1182   1.946   .     S
H1167  C351    1.111   1_556 S
H1168  C351    1.110   1_556 S
H1176  C882    1.086   1_565 S
N1178  N385    1.298   1_556 S
N1178  O388    1.348   1_556 S
O1188  N385    1.346   1_556 S
