data_str_m3_o10_o18_pcu_sym.84
_audit_creation_date              2020-01-03
_audit_creation_method            'Materials Studio'
_symmetry_space_group_name_H-M    'P1'
_symmetry_Int_Tables_number       1
_symmetry_cell_setting            triclinic
loop_
_symmetry_equiv_pos_as_xyz
  x,y,z
_cell_length_a                    23.4483
_cell_length_b                    25.8235
_cell_length_c                    27.6795
_cell_angle_alpha                 93.0960
_cell_angle_beta                  94.5217
_cell_angle_gamma                 94.0725
loop_
_atom_site_label
_atom_site_type_symbol
_atom_site_fract_x
_atom_site_fract_y
_atom_site_fract_z
_atom_site_U_iso_or_equiv
_atom_site_adp_type
_atom_site_occupancy
C1     C     0.01500   0.26480   0.24909   0.00000  Uiso   1.00
C2     C     0.31148   0.16235   0.15884   0.00000  Uiso   1.00
C3     C     0.03162   0.17480   0.39333   0.00000  Uiso   1.00
C4     C     0.29751   0.14926   0.10711   0.00000  Uiso   1.00
C5     C     0.01026   0.21118   0.47144   0.00000  Uiso   1.00
C6     C     0.29589   0.08471   0.04029   0.00000  Uiso   1.00
C7     C     0.33029   0.20394   0.42165   0.00000  Uiso   1.00
C8     C     0.32293   0.10871   0.08331   0.00000  Uiso   1.00
C9     C     0.07644   0.14963   0.41509   0.00000  Uiso   1.00
C10    C     0.24834   0.16819   0.08568   0.00000  Uiso   1.00
C11    C     0.08788   0.15341   0.46546   0.00000  Uiso   1.00
C12    C     0.31852   0.06852   0.25140   0.00000  Uiso   1.00
C13    C     0.21562   0.13918   0.04778   0.00000  Uiso   1.00
C14    C     0.05733   0.18815   0.49307   0.00000  Uiso   1.00
C15    C     0.24130   0.09851   0.02320   0.00000  Uiso   1.00
C16    C     0.13363   0.12834   0.48803   0.00000  Uiso   1.00
C17    C     0.15852   0.15010   0.03335   0.00000  Uiso   1.00
C18    C     0.13297   0.18592   0.11564   0.00000  Uiso   1.00
C19    C     0.11997   0.04385   0.43440   0.00000  Uiso   1.00
C20    C     0.05551   0.33316   0.20095   0.00000  Uiso   1.00
C21    C     0.27948   0.00097   0.30160   0.00000  Uiso   1.00
C22    C     0.12448   0.18099   0.06238   0.00000  Uiso   1.00
C23    C     0.15602   0.08310   0.46716   0.00000  Uiso   1.00
C24    C     0.07460   0.19989   0.04172   0.00000  Uiso   1.00
C25    C     0.21070   0.07002   0.48407   0.00000  Uiso   1.00
C26    C     0.01979   0.31822   0.24120   0.00000  Uiso   1.00
C27    C     0.31479   0.01537   0.26100   0.00000  Uiso   1.00
C28    C     0.02168   0.17097   0.34092   0.00000  Uiso   1.00
H29    H     0.04899   0.22370   0.06369   0.00000  Uiso   1.00
H30    H     0.17115   0.21095   0.28294   0.00000  Uiso   1.00
H31    H     0.13318   0.23153   0.17698   0.00000  Uiso   1.00
H32    H     0.11693   0.31607   0.38543   0.00000  Uiso   1.00
H33    H     0.12985   0.32071   0.23876   0.00000  Uiso   1.00
H34    H     0.20365   0.00350   0.33070   0.00000  Uiso   1.00
H35    H     0.22865   0.03619   0.46807   0.00000  Uiso   1.00
H36    H     0.23405   0.20354   0.10173   0.00000  Uiso   1.00
H37    H     0.10353   0.12863   0.39227   0.00000  Uiso   1.00
H38    H     0.02841   0.09388   0.09917   0.00000  Uiso   1.00
H39    H     0.29480   0.22316   0.40502   0.00000  Uiso   1.00
H40    H     0.31846   0.23611   0.49268   0.00000  Uiso   1.00
H41    H     0.31568   0.05310   0.02235   0.00000  Uiso   1.00
H42    H     0.16219   0.12075   0.21944   0.00000  Uiso   1.00
N43    N     0.14695   0.15216   0.23740   0.00000  Uiso   1.00
N44    N     0.18638   0.18117   0.26261   0.00000  Uiso   1.00
O45    O     0.29719   0.24631   0.25310   0.00000  Uiso   1.00
O46    O     0.12400   0.23266   0.14072   0.00000  Uiso   1.00
O47    O     0.06768   0.04109   0.43462   0.00000  Uiso   1.00
O48    O     0.14590   0.00805   0.40523   0.00000  Uiso   1.00
O49    O     0.03241   0.01392   0.16332   0.00000  Uiso   1.00
O50    O     0.11508   0.33134   0.20565   0.00000  Uiso   1.00
O51    O     0.29980   0.31035   0.33499   0.00000  Uiso   1.00
O52    O     0.22353   0.01623   0.30195   0.00000  Uiso   1.00
O53    O     0.03614   0.08702   0.24691   0.00000  Uiso   1.00
O54    O     0.05822   0.23702   0.24502   0.00000  Uiso   1.00
O55    O     0.27512   0.09632   0.25499   0.00000  Uiso   1.00
O56    O     0.30328   0.17397   0.32247   0.00000  Uiso   1.00
O57    O     0.03005   0.15937   0.17753   0.00000  Uiso   1.00
O58    O     0.06431   0.16467   0.31439   0.00000  Uiso   1.00
O59    O     0.26902   0.16866   0.18561   0.00000  Uiso   1.00
O60    O     0.14708   0.14854   0.13759   0.00000  Uiso   1.00
Zn61   Zn    0.27033   0.17287   0.25540   0.00000  Uiso   1.00
Zn62   Zn    0.06300   0.16046   0.24461   0.00000  Uiso   1.00
C63    C     0.34834   0.26480   0.24909   0.00000  Uiso   1.00
C64    C     0.64481   0.16235   0.15884   0.00000  Uiso   1.00
C65    C     0.36496   0.17480   0.39333   0.00000  Uiso   1.00
C66    C     0.63085   0.14926   0.10711   0.00000  Uiso   1.00
C67    C     0.34359   0.21118   0.47144   0.00000  Uiso   1.00
C68    C     0.62922   0.08471   0.04029   0.00000  Uiso   1.00
C69    C     0.66362   0.20394   0.42165   0.00000  Uiso   1.00
C70    C     0.65627   0.10871   0.08331   0.00000  Uiso   1.00
C71    C     0.40977   0.14963   0.41509   0.00000  Uiso   1.00
C72    C     0.58168   0.16819   0.08568   0.00000  Uiso   1.00
C73    C     0.42121   0.15341   0.46546   0.00000  Uiso   1.00
C74    C     0.65185   0.06852   0.25140   0.00000  Uiso   1.00
C75    C     0.54895   0.13918   0.04778   0.00000  Uiso   1.00
C76    C     0.39067   0.18815   0.49307   0.00000  Uiso   1.00
C77    C     0.57463   0.09851   0.02320   0.00000  Uiso   1.00
C78    C     0.46696   0.12834   0.48803   0.00000  Uiso   1.00
C79    C     0.49186   0.15010   0.03335   0.00000  Uiso   1.00
C80    C     0.46630   0.18592   0.11564   0.00000  Uiso   1.00
C81    C     0.45331   0.04385   0.43440   0.00000  Uiso   1.00
C82    C     0.38884   0.33316   0.20095   0.00000  Uiso   1.00
C83    C     0.61281   0.00097   0.30160   0.00000  Uiso   1.00
C84    C     0.45782   0.18099   0.06238   0.00000  Uiso   1.00
C85    C     0.48935   0.08310   0.46716   0.00000  Uiso   1.00
C86    C     0.40793   0.19989   0.04172   0.00000  Uiso   1.00
C87    C     0.54403   0.07002   0.48407   0.00000  Uiso   1.00
C88    C     0.35312   0.31822   0.24120   0.00000  Uiso   1.00
C89    C     0.64812   0.01537   0.26100   0.00000  Uiso   1.00
C90    C     0.35502   0.17097   0.34092   0.00000  Uiso   1.00
H91    H     0.38233   0.22370   0.06369   0.00000  Uiso   1.00
H92    H     0.50448   0.21095   0.28294   0.00000  Uiso   1.00
H93    H     0.46651   0.23153   0.17698   0.00000  Uiso   1.00
H94    H     0.45026   0.31607   0.38543   0.00000  Uiso   1.00
H95    H     0.46319   0.32071   0.23876   0.00000  Uiso   1.00
H96    H     0.53698   0.00350   0.33070   0.00000  Uiso   1.00
H97    H     0.56198   0.03619   0.46807   0.00000  Uiso   1.00
H98    H     0.56738   0.20354   0.10173   0.00000  Uiso   1.00
H99    H     0.43686   0.12863   0.39227   0.00000  Uiso   1.00
H100   H     0.36174   0.09388   0.09917   0.00000  Uiso   1.00
H101   H     0.62814   0.22316   0.40502   0.00000  Uiso   1.00
H102   H     0.65179   0.23611   0.49268   0.00000  Uiso   1.00
H103   H     0.64902   0.05310   0.02235   0.00000  Uiso   1.00
H104   H     0.49552   0.12075   0.21944   0.00000  Uiso   1.00
N105   N     0.48029   0.15216   0.23740   0.00000  Uiso   1.00
N106   N     0.51971   0.18117   0.26261   0.00000  Uiso   1.00
O107   O     0.63052   0.24631   0.25310   0.00000  Uiso   1.00
O108   O     0.45734   0.23266   0.14072   0.00000  Uiso   1.00
O109   O     0.40102   0.04109   0.43462   0.00000  Uiso   1.00
O110   O     0.47923   0.00805   0.40523   0.00000  Uiso   1.00
O111   O     0.36575   0.01392   0.16332   0.00000  Uiso   1.00
O112   O     0.44841   0.33134   0.20565   0.00000  Uiso   1.00
O113   O     0.63313   0.31035   0.33499   0.00000  Uiso   1.00
O114   O     0.55686   0.01623   0.30195   0.00000  Uiso   1.00
O115   O     0.36948   0.08702   0.24691   0.00000  Uiso   1.00
O116   O     0.39155   0.23702   0.24502   0.00000  Uiso   1.00
O117   O     0.60845   0.09632   0.25499   0.00000  Uiso   1.00
O118   O     0.63662   0.17397   0.32247   0.00000  Uiso   1.00
O119   O     0.36338   0.15937   0.17753   0.00000  Uiso   1.00
O120   O     0.39764   0.16467   0.31439   0.00000  Uiso   1.00
O121   O     0.60236   0.16866   0.18561   0.00000  Uiso   1.00
O122   O     0.48042   0.14854   0.13759   0.00000  Uiso   1.00
Zn123  Zn    0.60366   0.17287   0.25540   0.00000  Uiso   1.00
Zn124  Zn    0.39634   0.16046   0.24461   0.00000  Uiso   1.00
C125   C     0.68167   0.26480   0.24909   0.00000  Uiso   1.00
C126   C     0.97815   0.16235   0.15884   0.00000  Uiso   1.00
C127   C     0.69829   0.17480   0.39333   0.00000  Uiso   1.00
C128   C     0.96418   0.14926   0.10711   0.00000  Uiso   1.00
C129   C     0.67693   0.21118   0.47144   0.00000  Uiso   1.00
C130   C     0.96256   0.08471   0.04029   0.00000  Uiso   1.00
C131   C     0.99696   0.20394   0.42165   0.00000  Uiso   1.00
C132   C     0.98960   0.10871   0.08331   0.00000  Uiso   1.00
C133   C     0.74310   0.14963   0.41509   0.00000  Uiso   1.00
C134   C     0.91501   0.16819   0.08568   0.00000  Uiso   1.00
C135   C     0.75454   0.15341   0.46546   0.00000  Uiso   1.00
C136   C     0.98518   0.06852   0.25140   0.00000  Uiso   1.00
C137   C     0.88228   0.13918   0.04778   0.00000  Uiso   1.00
C138   C     0.72400   0.18815   0.49307   0.00000  Uiso   1.00
C139   C     0.90796   0.09851   0.02320   0.00000  Uiso   1.00
C140   C     0.80030   0.12834   0.48803   0.00000  Uiso   1.00
C141   C     0.82519   0.15010   0.03335   0.00000  Uiso   1.00
C142   C     0.79963   0.18592   0.11564   0.00000  Uiso   1.00
C143   C     0.78664   0.04385   0.43440   0.00000  Uiso   1.00
C144   C     0.72217   0.33316   0.20095   0.00000  Uiso   1.00
C145   C     0.94614   0.00097   0.30160   0.00000  Uiso   1.00
C146   C     0.79115   0.18099   0.06238   0.00000  Uiso   1.00
C147   C     0.82268   0.08310   0.46716   0.00000  Uiso   1.00
C148   C     0.74126   0.19989   0.04172   0.00000  Uiso   1.00
C149   C     0.87737   0.07002   0.48407   0.00000  Uiso   1.00
C150   C     0.68646   0.31822   0.24120   0.00000  Uiso   1.00
C151   C     0.98145   0.01537   0.26100   0.00000  Uiso   1.00
C152   C     0.68835   0.17097   0.34092   0.00000  Uiso   1.00
H153   H     0.71566   0.22370   0.06369   0.00000  Uiso   1.00
H154   H     0.83781   0.21095   0.28294   0.00000  Uiso   1.00
H155   H     0.79985   0.23153   0.17698   0.00000  Uiso   1.00
H156   H     0.78359   0.31607   0.38543   0.00000  Uiso   1.00
H157   H     0.79652   0.32071   0.23876   0.00000  Uiso   1.00
H158   H     0.87032   0.00350   0.33070   0.00000  Uiso   1.00
H159   H     0.89531   0.03619   0.46807   0.00000  Uiso   1.00
H160   H     0.90071   0.20354   0.10173   0.00000  Uiso   1.00
H161   H     0.77020   0.12863   0.39227   0.00000  Uiso   1.00
H162   H     0.69507   0.09388   0.09917   0.00000  Uiso   1.00
H163   H     0.96147   0.22316   0.40502   0.00000  Uiso   1.00
H164   H     0.98512   0.23611   0.49268   0.00000  Uiso   1.00
H165   H     0.98235   0.05310   0.02235   0.00000  Uiso   1.00
H166   H     0.82886   0.12075   0.21944   0.00000  Uiso   1.00
N167   N     0.81362   0.15216   0.23740   0.00000  Uiso   1.00
N168   N     0.85305   0.18117   0.26261   0.00000  Uiso   1.00
O169   O     0.96386   0.24631   0.25310   0.00000  Uiso   1.00
O170   O     0.79067   0.23266   0.14072   0.00000  Uiso   1.00
O171   O     0.73435   0.04109   0.43462   0.00000  Uiso   1.00
O172   O     0.81257   0.00805   0.40523   0.00000  Uiso   1.00
O173   O     0.69908   0.01392   0.16332   0.00000  Uiso   1.00
O174   O     0.78174   0.33134   0.20565   0.00000  Uiso   1.00
O175   O     0.96646   0.31035   0.33499   0.00000  Uiso   1.00
O176   O     0.89019   0.01623   0.30195   0.00000  Uiso   1.00
O177   O     0.70281   0.08702   0.24691   0.00000  Uiso   1.00
O178   O     0.72488   0.23702   0.24502   0.00000  Uiso   1.00
O179   O     0.94178   0.09632   0.25499   0.00000  Uiso   1.00
O180   O     0.96995   0.17397   0.32247   0.00000  Uiso   1.00
O181   O     0.69672   0.15937   0.17753   0.00000  Uiso   1.00
O182   O     0.73098   0.16467   0.31439   0.00000  Uiso   1.00
O183   O     0.93569   0.16866   0.18561   0.00000  Uiso   1.00
O184   O     0.81375   0.14854   0.13759   0.00000  Uiso   1.00
Zn185  Zn    0.93700   0.17287   0.25540   0.00000  Uiso   1.00
Zn186  Zn    0.72967   0.16046   0.24461   0.00000  Uiso   1.00
C187   C     0.01500   0.59813   0.24909   0.00000  Uiso   1.00
C188   C     0.31148   0.49568   0.15884   0.00000  Uiso   1.00
C189   C     0.03162   0.50813   0.39333   0.00000  Uiso   1.00
C190   C     0.29751   0.48259   0.10711   0.00000  Uiso   1.00
C191   C     0.01026   0.54451   0.47144   0.00000  Uiso   1.00
C192   C     0.29589   0.41804   0.04029   0.00000  Uiso   1.00
C193   C     0.33029   0.53727   0.42165   0.00000  Uiso   1.00
C194   C     0.32293   0.44204   0.08331   0.00000  Uiso   1.00
C195   C     0.07644   0.48296   0.41509   0.00000  Uiso   1.00
C196   C     0.24834   0.50152   0.08568   0.00000  Uiso   1.00
C197   C     0.08788   0.48674   0.46546   0.00000  Uiso   1.00
C198   C     0.31852   0.40185   0.25140   0.00000  Uiso   1.00
C199   C     0.21562   0.47251   0.04778   0.00000  Uiso   1.00
C200   C     0.05733   0.52148   0.49307   0.00000  Uiso   1.00
C201   C     0.24130   0.43184   0.02320   0.00000  Uiso   1.00
C202   C     0.13363   0.46167   0.48803   0.00000  Uiso   1.00
C203   C     0.15852   0.48344   0.03335   0.00000  Uiso   1.00
C204   C     0.13297   0.51925   0.11564   0.00000  Uiso   1.00
C205   C     0.11997   0.37718   0.43440   0.00000  Uiso   1.00
C206   C     0.05551   0.66649   0.20095   0.00000  Uiso   1.00
C207   C     0.27948   0.33431   0.30160   0.00000  Uiso   1.00
C208   C     0.12448   0.51433   0.06238   0.00000  Uiso   1.00
C209   C     0.15602   0.41643   0.46716   0.00000  Uiso   1.00
C210   C     0.07460   0.53322   0.04172   0.00000  Uiso   1.00
C211   C     0.21070   0.40335   0.48407   0.00000  Uiso   1.00
C212   C     0.01979   0.65155   0.24120   0.00000  Uiso   1.00
C213   C     0.31479   0.34871   0.26100   0.00000  Uiso   1.00
C214   C     0.02168   0.50430   0.34092   0.00000  Uiso   1.00
H215   H     0.04899   0.55703   0.06369   0.00000  Uiso   1.00
H216   H     0.17115   0.54428   0.28294   0.00000  Uiso   1.00
H217   H     0.13318   0.56486   0.17698   0.00000  Uiso   1.00
H218   H     0.11693   0.64941   0.38543   0.00000  Uiso   1.00
H219   H     0.12985   0.65404   0.23876   0.00000  Uiso   1.00
H220   H     0.20365   0.33683   0.33070   0.00000  Uiso   1.00
H221   H     0.22865   0.36953   0.46807   0.00000  Uiso   1.00
H222   H     0.23405   0.53687   0.10173   0.00000  Uiso   1.00
H223   H     0.10353   0.46196   0.39227   0.00000  Uiso   1.00
H224   H     0.02841   0.42721   0.09917   0.00000  Uiso   1.00
H225   H     0.29480   0.55649   0.40502   0.00000  Uiso   1.00
H226   H     0.31846   0.56945   0.49268   0.00000  Uiso   1.00
H227   H     0.31568   0.38644   0.02235   0.00000  Uiso   1.00
H228   H     0.16219   0.45408   0.21944   0.00000  Uiso   1.00
N229   N     0.14695   0.48550   0.23740   0.00000  Uiso   1.00
N230   N     0.18638   0.51450   0.26261   0.00000  Uiso   1.00
O231   O     0.29719   0.57964   0.25310   0.00000  Uiso   1.00
O232   O     0.12400   0.56600   0.14072   0.00000  Uiso   1.00
O233   O     0.06768   0.37443   0.43462   0.00000  Uiso   1.00
O234   O     0.14590   0.34138   0.40523   0.00000  Uiso   1.00
O235   O     0.03241   0.34725   0.16332   0.00000  Uiso   1.00
O236   O     0.11508   0.66467   0.20565   0.00000  Uiso   1.00
O237   O     0.29980   0.64369   0.33499   0.00000  Uiso   1.00
O238   O     0.22353   0.34956   0.30195   0.00000  Uiso   1.00
O239   O     0.03614   0.42036   0.24691   0.00000  Uiso   1.00
O240   O     0.05822   0.57035   0.24502   0.00000  Uiso   1.00
O241   O     0.27512   0.42965   0.25499   0.00000  Uiso   1.00
O242   O     0.30328   0.50730   0.32247   0.00000  Uiso   1.00
O243   O     0.03005   0.49270   0.17753   0.00000  Uiso   1.00
O244   O     0.06431   0.49801   0.31439   0.00000  Uiso   1.00
O245   O     0.26902   0.50199   0.18561   0.00000  Uiso   1.00
O246   O     0.14708   0.48188   0.13759   0.00000  Uiso   1.00
Zn247  Zn    0.27033   0.50621   0.25540   0.00000  Uiso   1.00
Zn248  Zn    0.06300   0.49379   0.24461   0.00000  Uiso   1.00
C249   C     0.34834   0.59813   0.24909   0.00000  Uiso   1.00
C250   C     0.64481   0.49568   0.15884   0.00000  Uiso   1.00
C251   C     0.36496   0.50813   0.39333   0.00000  Uiso   1.00
C252   C     0.63085   0.48259   0.10711   0.00000  Uiso   1.00
C253   C     0.34359   0.54451   0.47144   0.00000  Uiso   1.00
C254   C     0.62922   0.41804   0.04029   0.00000  Uiso   1.00
C255   C     0.66362   0.53727   0.42165   0.00000  Uiso   1.00
C256   C     0.65627   0.44204   0.08331   0.00000  Uiso   1.00
C257   C     0.40977   0.48296   0.41509   0.00000  Uiso   1.00
C258   C     0.58168   0.50152   0.08568   0.00000  Uiso   1.00
C259   C     0.42121   0.48674   0.46546   0.00000  Uiso   1.00
C260   C     0.65185   0.40185   0.25140   0.00000  Uiso   1.00
C261   C     0.54895   0.47251   0.04778   0.00000  Uiso   1.00
C262   C     0.39067   0.52148   0.49307   0.00000  Uiso   1.00
C263   C     0.57463   0.43184   0.02320   0.00000  Uiso   1.00
C264   C     0.46696   0.46167   0.48803   0.00000  Uiso   1.00
C265   C     0.49186   0.48344   0.03335   0.00000  Uiso   1.00
C266   C     0.46630   0.51925   0.11564   0.00000  Uiso   1.00
C267   C     0.45331   0.37718   0.43440   0.00000  Uiso   1.00
C268   C     0.38884   0.66649   0.20095   0.00000  Uiso   1.00
C269   C     0.61281   0.33431   0.30160   0.00000  Uiso   1.00
C270   C     0.45782   0.51433   0.06238   0.00000  Uiso   1.00
C271   C     0.48935   0.41643   0.46716   0.00000  Uiso   1.00
C272   C     0.40793   0.53322   0.04172   0.00000  Uiso   1.00
C273   C     0.54403   0.40335   0.48407   0.00000  Uiso   1.00
C274   C     0.35312   0.65155   0.24120   0.00000  Uiso   1.00
C275   C     0.64812   0.34871   0.26100   0.00000  Uiso   1.00
C276   C     0.35502   0.50430   0.34092   0.00000  Uiso   1.00
H277   H     0.38233   0.55703   0.06369   0.00000  Uiso   1.00
H278   H     0.50448   0.54428   0.28294   0.00000  Uiso   1.00
H279   H     0.46651   0.56486   0.17698   0.00000  Uiso   1.00
H280   H     0.45026   0.64941   0.38543   0.00000  Uiso   1.00
H281   H     0.46319   0.65404   0.23876   0.00000  Uiso   1.00
H282   H     0.53698   0.33683   0.33070   0.00000  Uiso   1.00
H283   H     0.56198   0.36953   0.46807   0.00000  Uiso   1.00
H284   H     0.56738   0.53687   0.10173   0.00000  Uiso   1.00
H285   H     0.43686   0.46196   0.39227   0.00000  Uiso   1.00
H286   H     0.36174   0.42721   0.09917   0.00000  Uiso   1.00
H287   H     0.62814   0.55649   0.40502   0.00000  Uiso   1.00
H288   H     0.65179   0.56945   0.49268   0.00000  Uiso   1.00
H289   H     0.64902   0.38644   0.02235   0.00000  Uiso   1.00
H290   H     0.49552   0.45408   0.21944   0.00000  Uiso   1.00
N291   N     0.48029   0.48550   0.23740   0.00000  Uiso   1.00
N292   N     0.51971   0.51450   0.26261   0.00000  Uiso   1.00
O293   O     0.63052   0.57964   0.25310   0.00000  Uiso   1.00
O294   O     0.45734   0.56600   0.14072   0.00000  Uiso   1.00
O295   O     0.40102   0.37443   0.43462   0.00000  Uiso   1.00
O296   O     0.47923   0.34138   0.40523   0.00000  Uiso   1.00
O297   O     0.36575   0.34725   0.16332   0.00000  Uiso   1.00
O298   O     0.44841   0.66467   0.20565   0.00000  Uiso   1.00
O299   O     0.63313   0.64369   0.33499   0.00000  Uiso   1.00
O300   O     0.55686   0.34956   0.30195   0.00000  Uiso   1.00
O301   O     0.36948   0.42036   0.24691   0.00000  Uiso   1.00
O302   O     0.39155   0.57035   0.24502   0.00000  Uiso   1.00
O303   O     0.60845   0.42965   0.25499   0.00000  Uiso   1.00
O304   O     0.63662   0.50730   0.32247   0.00000  Uiso   1.00
O305   O     0.36338   0.49270   0.17753   0.00000  Uiso   1.00
O306   O     0.39764   0.49801   0.31439   0.00000  Uiso   1.00
O307   O     0.60236   0.50199   0.18561   0.00000  Uiso   1.00
O308   O     0.48042   0.48188   0.13759   0.00000  Uiso   1.00
Zn309  Zn    0.60366   0.50621   0.25540   0.00000  Uiso   1.00
Zn310  Zn    0.39634   0.49379   0.24461   0.00000  Uiso   1.00
C311   C     0.68167   0.59813   0.24909   0.00000  Uiso   1.00
C312   C     0.97815   0.49568   0.15884   0.00000  Uiso   1.00
C313   C     0.69829   0.50813   0.39333   0.00000  Uiso   1.00
C314   C     0.96418   0.48259   0.10711   0.00000  Uiso   1.00
C315   C     0.67693   0.54451   0.47144   0.00000  Uiso   1.00
C316   C     0.96256   0.41804   0.04029   0.00000  Uiso   1.00
C317   C     0.99696   0.53727   0.42165   0.00000  Uiso   1.00
C318   C     0.98960   0.44204   0.08331   0.00000  Uiso   1.00
C319   C     0.74310   0.48296   0.41509   0.00000  Uiso   1.00
C320   C     0.91501   0.50152   0.08568   0.00000  Uiso   1.00
C321   C     0.75454   0.48674   0.46546   0.00000  Uiso   1.00
C322   C     0.98518   0.40185   0.25140   0.00000  Uiso   1.00
C323   C     0.88228   0.47251   0.04778   0.00000  Uiso   1.00
C324   C     0.72400   0.52148   0.49307   0.00000  Uiso   1.00
C325   C     0.90796   0.43184   0.02320   0.00000  Uiso   1.00
C326   C     0.80030   0.46167   0.48803   0.00000  Uiso   1.00
C327   C     0.82519   0.48344   0.03335   0.00000  Uiso   1.00
C328   C     0.79963   0.51925   0.11564   0.00000  Uiso   1.00
C329   C     0.78664   0.37718   0.43440   0.00000  Uiso   1.00
C330   C     0.72217   0.66649   0.20095   0.00000  Uiso   1.00
C331   C     0.94614   0.33431   0.30160   0.00000  Uiso   1.00
C332   C     0.79115   0.51433   0.06238   0.00000  Uiso   1.00
C333   C     0.82268   0.41643   0.46716   0.00000  Uiso   1.00
C334   C     0.74126   0.53322   0.04172   0.00000  Uiso   1.00
C335   C     0.87737   0.40335   0.48407   0.00000  Uiso   1.00
C336   C     0.68646   0.65155   0.24120   0.00000  Uiso   1.00
C337   C     0.98145   0.34871   0.26100   0.00000  Uiso   1.00
C338   C     0.68835   0.50430   0.34092   0.00000  Uiso   1.00
H339   H     0.71566   0.55703   0.06369   0.00000  Uiso   1.00
H340   H     0.83781   0.54428   0.28294   0.00000  Uiso   1.00
H341   H     0.79985   0.56486   0.17698   0.00000  Uiso   1.00
H342   H     0.78359   0.64941   0.38543   0.00000  Uiso   1.00
H343   H     0.79652   0.65404   0.23876   0.00000  Uiso   1.00
H344   H     0.87032   0.33683   0.33070   0.00000  Uiso   1.00
H345   H     0.89531   0.36953   0.46807   0.00000  Uiso   1.00
H346   H     0.90071   0.53687   0.10173   0.00000  Uiso   1.00
H347   H     0.77020   0.46196   0.39227   0.00000  Uiso   1.00
H348   H     0.69507   0.42721   0.09917   0.00000  Uiso   1.00
H349   H     0.96147   0.55649   0.40502   0.00000  Uiso   1.00
H350   H     0.98512   0.56945   0.49268   0.00000  Uiso   1.00
H351   H     0.98235   0.38644   0.02235   0.00000  Uiso   1.00
H352   H     0.82886   0.45408   0.21944   0.00000  Uiso   1.00
N353   N     0.81362   0.48550   0.23740   0.00000  Uiso   1.00
N354   N     0.85305   0.51450   0.26261   0.00000  Uiso   1.00
O355   O     0.96386   0.57964   0.25310   0.00000  Uiso   1.00
O356   O     0.79067   0.56600   0.14072   0.00000  Uiso   1.00
O357   O     0.73435   0.37443   0.43462   0.00000  Uiso   1.00
O358   O     0.81257   0.34138   0.40523   0.00000  Uiso   1.00
O359   O     0.69908   0.34725   0.16332   0.00000  Uiso   1.00
O360   O     0.78174   0.66467   0.20565   0.00000  Uiso   1.00
O361   O     0.96646   0.64369   0.33499   0.00000  Uiso   1.00
O362   O     0.89019   0.34956   0.30195   0.00000  Uiso   1.00
O363   O     0.70281   0.42036   0.24691   0.00000  Uiso   1.00
O364   O     0.72488   0.57035   0.24502   0.00000  Uiso   1.00
O365   O     0.94178   0.42965   0.25499   0.00000  Uiso   1.00
O366   O     0.96995   0.50730   0.32247   0.00000  Uiso   1.00
O367   O     0.69672   0.49270   0.17753   0.00000  Uiso   1.00
O368   O     0.73098   0.49801   0.31439   0.00000  Uiso   1.00
O369   O     0.93569   0.50199   0.18561   0.00000  Uiso   1.00
O370   O     0.81375   0.48188   0.13759   0.00000  Uiso   1.00
Zn371  Zn    0.93700   0.50621   0.25540   0.00000  Uiso   1.00
Zn372  Zn    0.72967   0.49379   0.24461   0.00000  Uiso   1.00
C373   C     0.01500   0.93146   0.24909   0.00000  Uiso   1.00
C374   C     0.31148   0.82901   0.15884   0.00000  Uiso   1.00
C375   C     0.03162   0.84146   0.39333   0.00000  Uiso   1.00
C376   C     0.29751   0.81593   0.10711   0.00000  Uiso   1.00
C377   C     0.01026   0.87785   0.47144   0.00000  Uiso   1.00
C378   C     0.29589   0.75137   0.04029   0.00000  Uiso   1.00
C379   C     0.33029   0.87060   0.42165   0.00000  Uiso   1.00
C380   C     0.32293   0.77537   0.08331   0.00000  Uiso   1.00
C381   C     0.07644   0.81630   0.41509   0.00000  Uiso   1.00
C382   C     0.24834   0.83485   0.08568   0.00000  Uiso   1.00
C383   C     0.08788   0.82007   0.46546   0.00000  Uiso   1.00
C384   C     0.31852   0.73519   0.25140   0.00000  Uiso   1.00
C385   C     0.21562   0.80585   0.04778   0.00000  Uiso   1.00
C386   C     0.05733   0.85482   0.49307   0.00000  Uiso   1.00
C387   C     0.24130   0.76517   0.02320   0.00000  Uiso   1.00
C388   C     0.13363   0.79500   0.48803   0.00000  Uiso   1.00
C389   C     0.15852   0.81677   0.03335   0.00000  Uiso   1.00
C390   C     0.13297   0.85259   0.11564   0.00000  Uiso   1.00
C391   C     0.11997   0.71052   0.43440   0.00000  Uiso   1.00
C392   C     0.05551   0.99982   0.20095   0.00000  Uiso   1.00
C393   C     0.27948   0.66764   0.30160   0.00000  Uiso   1.00
C394   C     0.12448   0.84766   0.06238   0.00000  Uiso   1.00
C395   C     0.15602   0.74976   0.46716   0.00000  Uiso   1.00
C396   C     0.07460   0.86656   0.04172   0.00000  Uiso   1.00
C397   C     0.21070   0.73668   0.48407   0.00000  Uiso   1.00
C398   C     0.01979   0.98489   0.24120   0.00000  Uiso   1.00
C399   C     0.31479   0.68204   0.26100   0.00000  Uiso   1.00
C400   C     0.02168   0.83764   0.34092   0.00000  Uiso   1.00
H401   H     0.04899   0.89037   0.06369   0.00000  Uiso   1.00
H402   H     0.17115   0.87761   0.28294   0.00000  Uiso   1.00
H403   H     0.13318   0.89819   0.17698   0.00000  Uiso   1.00
H404   H     0.11693   0.98274   0.38543   0.00000  Uiso   1.00
H405   H     0.12985   0.98737   0.23876   0.00000  Uiso   1.00
H406   H     0.20365   0.67017   0.33070   0.00000  Uiso   1.00
H407   H     0.22865   0.70286   0.46807   0.00000  Uiso   1.00
H408   H     0.23405   0.87020   0.10173   0.00000  Uiso   1.00
H409   H     0.10353   0.79530   0.39227   0.00000  Uiso   1.00
H410   H     0.02841   0.76054   0.09917   0.00000  Uiso   1.00
H411   H     0.29480   0.88982   0.40502   0.00000  Uiso   1.00
H412   H     0.31846   0.90278   0.49268   0.00000  Uiso   1.00
H413   H     0.31568   0.71977   0.02235   0.00000  Uiso   1.00
H414   H     0.16219   0.78742   0.21944   0.00000  Uiso   1.00
N415   N     0.14695   0.81883   0.23740   0.00000  Uiso   1.00
N416   N     0.18638   0.84784   0.26261   0.00000  Uiso   1.00
O417   O     0.29719   0.91298   0.25310   0.00000  Uiso   1.00
O418   O     0.12400   0.89933   0.14072   0.00000  Uiso   1.00
O419   O     0.06768   0.70776   0.43462   0.00000  Uiso   1.00
O420   O     0.14590   0.67471   0.40523   0.00000  Uiso   1.00
O421   O     0.03241   0.68058   0.16332   0.00000  Uiso   1.00
O422   O     0.11508   0.99801   0.20565   0.00000  Uiso   1.00
O423   O     0.29980   0.97702   0.33499   0.00000  Uiso   1.00
O424   O     0.22353   0.68289   0.30195   0.00000  Uiso   1.00
O425   O     0.03614   0.75369   0.24691   0.00000  Uiso   1.00
O426   O     0.05822   0.90368   0.24502   0.00000  Uiso   1.00
O427   O     0.27512   0.76298   0.25499   0.00000  Uiso   1.00
O428   O     0.30328   0.84063   0.32247   0.00000  Uiso   1.00
O429   O     0.03005   0.82603   0.17753   0.00000  Uiso   1.00
O430   O     0.06431   0.83134   0.31439   0.00000  Uiso   1.00
O431   O     0.26902   0.83533   0.18561   0.00000  Uiso   1.00
O432   O     0.14708   0.81521   0.13759   0.00000  Uiso   1.00
Zn433  Zn    0.27033   0.83954   0.25540   0.00000  Uiso   1.00
Zn434  Zn    0.06300   0.82713   0.24461   0.00000  Uiso   1.00
C435   C     0.34834   0.93146   0.24909   0.00000  Uiso   1.00
C436   C     0.64481   0.82901   0.15884   0.00000  Uiso   1.00
C437   C     0.36496   0.84146   0.39333   0.00000  Uiso   1.00
C438   C     0.63085   0.81593   0.10711   0.00000  Uiso   1.00
C439   C     0.34359   0.87785   0.47144   0.00000  Uiso   1.00
C440   C     0.62922   0.75137   0.04029   0.00000  Uiso   1.00
C441   C     0.66362   0.87060   0.42165   0.00000  Uiso   1.00
C442   C     0.65627   0.77537   0.08331   0.00000  Uiso   1.00
C443   C     0.40977   0.81630   0.41509   0.00000  Uiso   1.00
C444   C     0.58168   0.83485   0.08568   0.00000  Uiso   1.00
C445   C     0.42121   0.82007   0.46546   0.00000  Uiso   1.00
C446   C     0.65185   0.73519   0.25140   0.00000  Uiso   1.00
C447   C     0.54895   0.80585   0.04778   0.00000  Uiso   1.00
C448   C     0.39067   0.85482   0.49307   0.00000  Uiso   1.00
C449   C     0.57463   0.76517   0.02320   0.00000  Uiso   1.00
C450   C     0.46696   0.79500   0.48803   0.00000  Uiso   1.00
C451   C     0.49186   0.81677   0.03335   0.00000  Uiso   1.00
C452   C     0.46630   0.85259   0.11564   0.00000  Uiso   1.00
C453   C     0.45331   0.71052   0.43440   0.00000  Uiso   1.00
C454   C     0.38884   0.99982   0.20095   0.00000  Uiso   1.00
C455   C     0.61281   0.66764   0.30160   0.00000  Uiso   1.00
C456   C     0.45782   0.84766   0.06238   0.00000  Uiso   1.00
C457   C     0.48935   0.74976   0.46716   0.00000  Uiso   1.00
C458   C     0.40793   0.86656   0.04172   0.00000  Uiso   1.00
C459   C     0.54403   0.73668   0.48407   0.00000  Uiso   1.00
C460   C     0.35312   0.98489   0.24120   0.00000  Uiso   1.00
C461   C     0.64812   0.68204   0.26100   0.00000  Uiso   1.00
C462   C     0.35502   0.83764   0.34092   0.00000  Uiso   1.00
H463   H     0.38233   0.89037   0.06369   0.00000  Uiso   1.00
H464   H     0.50448   0.87761   0.28294   0.00000  Uiso   1.00
H465   H     0.46651   0.89819   0.17698   0.00000  Uiso   1.00
H466   H     0.45026   0.98274   0.38543   0.00000  Uiso   1.00
H467   H     0.46319   0.98737   0.23876   0.00000  Uiso   1.00
H468   H     0.53698   0.67017   0.33070   0.00000  Uiso   1.00
H469   H     0.56198   0.70286   0.46807   0.00000  Uiso   1.00
H470   H     0.56738   0.87020   0.10173   0.00000  Uiso   1.00
H471   H     0.43686   0.79530   0.39227   0.00000  Uiso   1.00
H472   H     0.36174   0.76054   0.09917   0.00000  Uiso   1.00
H473   H     0.62814   0.88982   0.40502   0.00000  Uiso   1.00
H474   H     0.65179   0.90278   0.49268   0.00000  Uiso   1.00
H475   H     0.64902   0.71977   0.02235   0.00000  Uiso   1.00
H476   H     0.49552   0.78742   0.21944   0.00000  Uiso   1.00
N477   N     0.48029   0.81883   0.23740   0.00000  Uiso   1.00
N478   N     0.51971   0.84784   0.26261   0.00000  Uiso   1.00
O479   O     0.63052   0.91298   0.25310   0.00000  Uiso   1.00
O480   O     0.45734   0.89933   0.14072   0.00000  Uiso   1.00
O481   O     0.40102   0.70776   0.43462   0.00000  Uiso   1.00
O482   O     0.47923   0.67471   0.40523   0.00000  Uiso   1.00
O483   O     0.36575   0.68058   0.16332   0.00000  Uiso   1.00
O484   O     0.44841   0.99801   0.20565   0.00000  Uiso   1.00
O485   O     0.63313   0.97702   0.33499   0.00000  Uiso   1.00
O486   O     0.55686   0.68289   0.30195   0.00000  Uiso   1.00
O487   O     0.36948   0.75369   0.24691   0.00000  Uiso   1.00
O488   O     0.39155   0.90368   0.24502   0.00000  Uiso   1.00
O489   O     0.60845   0.76298   0.25499   0.00000  Uiso   1.00
O490   O     0.63662   0.84063   0.32247   0.00000  Uiso   1.00
O491   O     0.36338   0.82603   0.17753   0.00000  Uiso   1.00
O492   O     0.39764   0.83134   0.31439   0.00000  Uiso   1.00
O493   O     0.60236   0.83533   0.18561   0.00000  Uiso   1.00
O494   O     0.48042   0.81521   0.13759   0.00000  Uiso   1.00
Zn495  Zn    0.60366   0.83954   0.25540   0.00000  Uiso   1.00
Zn496  Zn    0.39634   0.82713   0.24461   0.00000  Uiso   1.00
C497   C     0.68167   0.93146   0.24909   0.00000  Uiso   1.00
C498   C     0.97815   0.82901   0.15884   0.00000  Uiso   1.00
C499   C     0.69829   0.84146   0.39333   0.00000  Uiso   1.00
C500   C     0.96418   0.81593   0.10711   0.00000  Uiso   1.00
C501   C     0.67693   0.87785   0.47144   0.00000  Uiso   1.00
C502   C     0.96256   0.75137   0.04029   0.00000  Uiso   1.00
C503   C     0.99696   0.87060   0.42165   0.00000  Uiso   1.00
C504   C     0.98960   0.77537   0.08331   0.00000  Uiso   1.00
C505   C     0.74310   0.81630   0.41509   0.00000  Uiso   1.00
C506   C     0.91501   0.83485   0.08568   0.00000  Uiso   1.00
C507   C     0.75454   0.82007   0.46546   0.00000  Uiso   1.00
C508   C     0.98518   0.73519   0.25140   0.00000  Uiso   1.00
C509   C     0.88228   0.80585   0.04778   0.00000  Uiso   1.00
C510   C     0.72400   0.85482   0.49307   0.00000  Uiso   1.00
C511   C     0.90796   0.76517   0.02320   0.00000  Uiso   1.00
C512   C     0.80030   0.79500   0.48803   0.00000  Uiso   1.00
C513   C     0.82519   0.81677   0.03335   0.00000  Uiso   1.00
C514   C     0.79963   0.85259   0.11564   0.00000  Uiso   1.00
C515   C     0.78664   0.71052   0.43440   0.00000  Uiso   1.00
C516   C     0.72217   0.99982   0.20095   0.00000  Uiso   1.00
C517   C     0.94614   0.66764   0.30160   0.00000  Uiso   1.00
C518   C     0.79115   0.84766   0.06238   0.00000  Uiso   1.00
C519   C     0.82268   0.74976   0.46716   0.00000  Uiso   1.00
C520   C     0.74126   0.86656   0.04172   0.00000  Uiso   1.00
C521   C     0.87737   0.73668   0.48407   0.00000  Uiso   1.00
C522   C     0.68646   0.98489   0.24120   0.00000  Uiso   1.00
C523   C     0.98145   0.68204   0.26100   0.00000  Uiso   1.00
C524   C     0.68835   0.83764   0.34092   0.00000  Uiso   1.00
H525   H     0.71566   0.89037   0.06369   0.00000  Uiso   1.00
H526   H     0.83781   0.87761   0.28294   0.00000  Uiso   1.00
H527   H     0.79985   0.89819   0.17698   0.00000  Uiso   1.00
H528   H     0.78359   0.98274   0.38543   0.00000  Uiso   1.00
H529   H     0.79652   0.98737   0.23876   0.00000  Uiso   1.00
H530   H     0.87032   0.67017   0.33070   0.00000  Uiso   1.00
H531   H     0.89531   0.70286   0.46807   0.00000  Uiso   1.00
H532   H     0.90071   0.87020   0.10173   0.00000  Uiso   1.00
H533   H     0.77020   0.79530   0.39227   0.00000  Uiso   1.00
H534   H     0.69507   0.76054   0.09917   0.00000  Uiso   1.00
H535   H     0.96147   0.88982   0.40502   0.00000  Uiso   1.00
H536   H     0.98512   0.90278   0.49268   0.00000  Uiso   1.00
H537   H     0.98235   0.71977   0.02235   0.00000  Uiso   1.00
H538   H     0.82886   0.78742   0.21944   0.00000  Uiso   1.00
N539   N     0.81362   0.81883   0.23740   0.00000  Uiso   1.00
N540   N     0.85305   0.84784   0.26261   0.00000  Uiso   1.00
O541   O     0.96386   0.91298   0.25310   0.00000  Uiso   1.00
O542   O     0.79067   0.89933   0.14072   0.00000  Uiso   1.00
O543   O     0.73435   0.70776   0.43462   0.00000  Uiso   1.00
O544   O     0.81257   0.67471   0.40523   0.00000  Uiso   1.00
O545   O     0.69908   0.68058   0.16332   0.00000  Uiso   1.00
O546   O     0.78174   0.99801   0.20565   0.00000  Uiso   1.00
O547   O     0.96646   0.97702   0.33499   0.00000  Uiso   1.00
O548   O     0.89019   0.68289   0.30195   0.00000  Uiso   1.00
O549   O     0.70281   0.75369   0.24691   0.00000  Uiso   1.00
O550   O     0.72488   0.90368   0.24502   0.00000  Uiso   1.00
O551   O     0.94178   0.76298   0.25499   0.00000  Uiso   1.00
O552   O     0.96995   0.84063   0.32247   0.00000  Uiso   1.00
O553   O     0.69672   0.82603   0.17753   0.00000  Uiso   1.00
O554   O     0.73098   0.83134   0.31439   0.00000  Uiso   1.00
O555   O     0.93569   0.83533   0.18561   0.00000  Uiso   1.00
O556   O     0.81375   0.81521   0.13759   0.00000  Uiso   1.00
Zn557  Zn    0.93700   0.83954   0.25540   0.00000  Uiso   1.00
Zn558  Zn    0.72967   0.82713   0.24461   0.00000  Uiso   1.00
C559   C     0.01500   0.26480   0.74909   0.00000  Uiso   1.00
C560   C     0.31148   0.16235   0.65884   0.00000  Uiso   1.00
C561   C     0.03162   0.17480   0.89333   0.00000  Uiso   1.00
C562   C     0.29751   0.14926   0.60711   0.00000  Uiso   1.00
C563   C     0.01026   0.21118   0.97144   0.00000  Uiso   1.00
C564   C     0.29589   0.08471   0.54029   0.00000  Uiso   1.00
C565   C     0.33029   0.20394   0.92165   0.00000  Uiso   1.00
C566   C     0.32293   0.10871   0.58331   0.00000  Uiso   1.00
C567   C     0.07644   0.14963   0.91509   0.00000  Uiso   1.00
C568   C     0.24834   0.16819   0.58568   0.00000  Uiso   1.00
C569   C     0.08788   0.15341   0.96546   0.00000  Uiso   1.00
C570   C     0.31852   0.06852   0.75140   0.00000  Uiso   1.00
C571   C     0.21562   0.13918   0.54778   0.00000  Uiso   1.00
C572   C     0.05733   0.18815   0.99307   0.00000  Uiso   1.00
C573   C     0.24130   0.09851   0.52320   0.00000  Uiso   1.00
C574   C     0.13363   0.12834   0.98803   0.00000  Uiso   1.00
C575   C     0.15852   0.15010   0.53335   0.00000  Uiso   1.00
C576   C     0.13297   0.18592   0.61564   0.00000  Uiso   1.00
C577   C     0.11997   0.04385   0.93440   0.00000  Uiso   1.00
C578   C     0.05551   0.33316   0.70095   0.00000  Uiso   1.00
C579   C     0.27948   0.00097   0.80160   0.00000  Uiso   1.00
C580   C     0.12448   0.18099   0.56238   0.00000  Uiso   1.00
C581   C     0.15602   0.08310   0.96716   0.00000  Uiso   1.00
C582   C     0.07460   0.19989   0.54172   0.00000  Uiso   1.00
C583   C     0.21070   0.07002   0.98407   0.00000  Uiso   1.00
C584   C     0.01979   0.31822   0.74120   0.00000  Uiso   1.00
C585   C     0.31479   0.01537   0.76100   0.00000  Uiso   1.00
C586   C     0.02168   0.17097   0.84092   0.00000  Uiso   1.00
H587   H     0.04899   0.22370   0.56369   0.00000  Uiso   1.00
H588   H     0.17115   0.21095   0.78294   0.00000  Uiso   1.00
H589   H     0.13318   0.23153   0.67698   0.00000  Uiso   1.00
H590   H     0.11693   0.31607   0.88543   0.00000  Uiso   1.00
H591   H     0.12985   0.32071   0.73876   0.00000  Uiso   1.00
H592   H     0.20365   0.00350   0.83070   0.00000  Uiso   1.00
H593   H     0.22865   0.03619   0.96807   0.00000  Uiso   1.00
H594   H     0.23405   0.20354   0.60173   0.00000  Uiso   1.00
H595   H     0.10353   0.12863   0.89227   0.00000  Uiso   1.00
H596   H     0.02841   0.09388   0.59917   0.00000  Uiso   1.00
H597   H     0.29480   0.22316   0.90502   0.00000  Uiso   1.00
H598   H     0.31846   0.23611   0.99268   0.00000  Uiso   1.00
H599   H     0.31568   0.05310   0.52235   0.00000  Uiso   1.00
H600   H     0.16219   0.12075   0.71944   0.00000  Uiso   1.00
N601   N     0.14695   0.15216   0.73740   0.00000  Uiso   1.00
N602   N     0.18638   0.18117   0.76261   0.00000  Uiso   1.00
O603   O     0.29719   0.24631   0.75310   0.00000  Uiso   1.00
O604   O     0.12400   0.23266   0.64072   0.00000  Uiso   1.00
O605   O     0.06768   0.04109   0.93462   0.00000  Uiso   1.00
O606   O     0.14590   0.00805   0.90523   0.00000  Uiso   1.00
O607   O     0.03241   0.01392   0.66332   0.00000  Uiso   1.00
O608   O     0.11508   0.33134   0.70565   0.00000  Uiso   1.00
O609   O     0.29980   0.31035   0.83499   0.00000  Uiso   1.00
O610   O     0.22353   0.01623   0.80195   0.00000  Uiso   1.00
O611   O     0.03614   0.08702   0.74691   0.00000  Uiso   1.00
O612   O     0.05822   0.23702   0.74502   0.00000  Uiso   1.00
O613   O     0.27512   0.09632   0.75499   0.00000  Uiso   1.00
O614   O     0.30328   0.17397   0.82247   0.00000  Uiso   1.00
O615   O     0.03005   0.15937   0.67753   0.00000  Uiso   1.00
O616   O     0.06431   0.16467   0.81439   0.00000  Uiso   1.00
O617   O     0.26902   0.16866   0.68561   0.00000  Uiso   1.00
O618   O     0.14708   0.14854   0.63759   0.00000  Uiso   1.00
Zn619  Zn    0.27033   0.17287   0.75540   0.00000  Uiso   1.00
Zn620  Zn    0.06300   0.16046   0.74461   0.00000  Uiso   1.00
C621   C     0.34834   0.26480   0.74909   0.00000  Uiso   1.00
C622   C     0.64481   0.16235   0.65884   0.00000  Uiso   1.00
C623   C     0.36496   0.17480   0.89333   0.00000  Uiso   1.00
C624   C     0.63085   0.14926   0.60711   0.00000  Uiso   1.00
C625   C     0.34359   0.21118   0.97144   0.00000  Uiso   1.00
C626   C     0.62922   0.08471   0.54029   0.00000  Uiso   1.00
C627   C     0.66362   0.20394   0.92165   0.00000  Uiso   1.00
C628   C     0.65627   0.10871   0.58331   0.00000  Uiso   1.00
C629   C     0.40977   0.14963   0.91509   0.00000  Uiso   1.00
C630   C     0.58168   0.16819   0.58568   0.00000  Uiso   1.00
C631   C     0.42121   0.15341   0.96546   0.00000  Uiso   1.00
C632   C     0.65185   0.06852   0.75140   0.00000  Uiso   1.00
C633   C     0.54895   0.13918   0.54778   0.00000  Uiso   1.00
C634   C     0.39067   0.18815   0.99307   0.00000  Uiso   1.00
C635   C     0.57463   0.09851   0.52320   0.00000  Uiso   1.00
C636   C     0.46696   0.12834   0.98803   0.00000  Uiso   1.00
C637   C     0.49186   0.15010   0.53335   0.00000  Uiso   1.00
C638   C     0.46630   0.18592   0.61564   0.00000  Uiso   1.00
C639   C     0.45331   0.04385   0.93440   0.00000  Uiso   1.00
C640   C     0.38884   0.33316   0.70095   0.00000  Uiso   1.00
C641   C     0.61281   0.00097   0.80160   0.00000  Uiso   1.00
C642   C     0.45782   0.18099   0.56238   0.00000  Uiso   1.00
C643   C     0.48935   0.08310   0.96716   0.00000  Uiso   1.00
C644   C     0.40793   0.19989   0.54172   0.00000  Uiso   1.00
C645   C     0.54403   0.07002   0.98407   0.00000  Uiso   1.00
C646   C     0.35312   0.31822   0.74120   0.00000  Uiso   1.00
C647   C     0.64812   0.01537   0.76100   0.00000  Uiso   1.00
C648   C     0.35502   0.17097   0.84092   0.00000  Uiso   1.00
H649   H     0.38233   0.22370   0.56369   0.00000  Uiso   1.00
H650   H     0.50448   0.21095   0.78294   0.00000  Uiso   1.00
H651   H     0.46651   0.23153   0.67698   0.00000  Uiso   1.00
H652   H     0.45026   0.31607   0.88543   0.00000  Uiso   1.00
H653   H     0.46319   0.32071   0.73876   0.00000  Uiso   1.00
H654   H     0.53698   0.00350   0.83070   0.00000  Uiso   1.00
H655   H     0.56198   0.03619   0.96807   0.00000  Uiso   1.00
H656   H     0.56738   0.20354   0.60173   0.00000  Uiso   1.00
H657   H     0.43686   0.12863   0.89227   0.00000  Uiso   1.00
H658   H     0.36174   0.09388   0.59917   0.00000  Uiso   1.00
H659   H     0.62814   0.22316   0.90502   0.00000  Uiso   1.00
H660   H     0.65179   0.23611   0.99268   0.00000  Uiso   1.00
H661   H     0.64902   0.05310   0.52235   0.00000  Uiso   1.00
H662   H     0.49552   0.12075   0.71944   0.00000  Uiso   1.00
N663   N     0.48029   0.15216   0.73740   0.00000  Uiso   1.00
N664   N     0.51971   0.18117   0.76261   0.00000  Uiso   1.00
O665   O     0.63052   0.24631   0.75310   0.00000  Uiso   1.00
O666   O     0.45734   0.23266   0.64072   0.00000  Uiso   1.00
O667   O     0.40102   0.04109   0.93462   0.00000  Uiso   1.00
O668   O     0.47923   0.00805   0.90523   0.00000  Uiso   1.00
O669   O     0.36575   0.01392   0.66332   0.00000  Uiso   1.00
O670   O     0.44841   0.33134   0.70565   0.00000  Uiso   1.00
O671   O     0.63313   0.31035   0.83499   0.00000  Uiso   1.00
O672   O     0.55686   0.01623   0.80195   0.00000  Uiso   1.00
O673   O     0.36948   0.08702   0.74691   0.00000  Uiso   1.00
O674   O     0.39155   0.23702   0.74502   0.00000  Uiso   1.00
O675   O     0.60845   0.09632   0.75499   0.00000  Uiso   1.00
O676   O     0.63662   0.17397   0.82247   0.00000  Uiso   1.00
O677   O     0.36338   0.15937   0.67753   0.00000  Uiso   1.00
O678   O     0.39764   0.16467   0.81439   0.00000  Uiso   1.00
O679   O     0.60236   0.16866   0.68561   0.00000  Uiso   1.00
O680   O     0.48042   0.14854   0.63759   0.00000  Uiso   1.00
Zn681  Zn    0.60366   0.17287   0.75540   0.00000  Uiso   1.00
Zn682  Zn    0.39634   0.16046   0.74461   0.00000  Uiso   1.00
C683   C     0.68167   0.26480   0.74909   0.00000  Uiso   1.00
C684   C     0.97815   0.16235   0.65884   0.00000  Uiso   1.00
C685   C     0.69829   0.17480   0.89333   0.00000  Uiso   1.00
C686   C     0.96418   0.14926   0.60711   0.00000  Uiso   1.00
C687   C     0.67693   0.21118   0.97144   0.00000  Uiso   1.00
C688   C     0.96256   0.08471   0.54029   0.00000  Uiso   1.00
C689   C     0.99696   0.20394   0.92165   0.00000  Uiso   1.00
C690   C     0.98960   0.10871   0.58331   0.00000  Uiso   1.00
C691   C     0.74310   0.14963   0.91509   0.00000  Uiso   1.00
C692   C     0.91501   0.16819   0.58568   0.00000  Uiso   1.00
C693   C     0.75454   0.15341   0.96546   0.00000  Uiso   1.00
C694   C     0.98518   0.06852   0.75140   0.00000  Uiso   1.00
C695   C     0.88228   0.13918   0.54778   0.00000  Uiso   1.00
C696   C     0.72400   0.18815   0.99307   0.00000  Uiso   1.00
C697   C     0.90796   0.09851   0.52320   0.00000  Uiso   1.00
C698   C     0.80030   0.12834   0.98803   0.00000  Uiso   1.00
C699   C     0.82519   0.15010   0.53335   0.00000  Uiso   1.00
C700   C     0.79963   0.18592   0.61564   0.00000  Uiso   1.00
C701   C     0.78664   0.04385   0.93440   0.00000  Uiso   1.00
C702   C     0.72217   0.33316   0.70095   0.00000  Uiso   1.00
C703   C     0.94614   0.00097   0.80160   0.00000  Uiso   1.00
C704   C     0.79115   0.18099   0.56238   0.00000  Uiso   1.00
C705   C     0.82268   0.08310   0.96716   0.00000  Uiso   1.00
C706   C     0.74126   0.19989   0.54172   0.00000  Uiso   1.00
C707   C     0.87737   0.07002   0.98407   0.00000  Uiso   1.00
C708   C     0.68646   0.31822   0.74120   0.00000  Uiso   1.00
C709   C     0.98145   0.01537   0.76100   0.00000  Uiso   1.00
C710   C     0.68835   0.17097   0.84092   0.00000  Uiso   1.00
H711   H     0.71566   0.22370   0.56369   0.00000  Uiso   1.00
H712   H     0.83781   0.21095   0.78294   0.00000  Uiso   1.00
H713   H     0.79985   0.23153   0.67698   0.00000  Uiso   1.00
H714   H     0.78359   0.31607   0.88543   0.00000  Uiso   1.00
H715   H     0.79652   0.32071   0.73876   0.00000  Uiso   1.00
H716   H     0.87032   0.00350   0.83070   0.00000  Uiso   1.00
H717   H     0.89531   0.03619   0.96807   0.00000  Uiso   1.00
H718   H     0.90071   0.20354   0.60173   0.00000  Uiso   1.00
H719   H     0.77020   0.12863   0.89227   0.00000  Uiso   1.00
H720   H     0.69507   0.09388   0.59917   0.00000  Uiso   1.00
H721   H     0.96147   0.22316   0.90502   0.00000  Uiso   1.00
H722   H     0.98512   0.23611   0.99268   0.00000  Uiso   1.00
H723   H     0.98235   0.05310   0.52235   0.00000  Uiso   1.00
H724   H     0.82886   0.12075   0.71944   0.00000  Uiso   1.00
N725   N     0.81362   0.15216   0.73740   0.00000  Uiso   1.00
N726   N     0.85305   0.18117   0.76261   0.00000  Uiso   1.00
O727   O     0.96386   0.24631   0.75310   0.00000  Uiso   1.00
O728   O     0.79067   0.23266   0.64072   0.00000  Uiso   1.00
O729   O     0.73435   0.04109   0.93462   0.00000  Uiso   1.00
O730   O     0.81257   0.00805   0.90523   0.00000  Uiso   1.00
O731   O     0.69908   0.01392   0.66332   0.00000  Uiso   1.00
O732   O     0.78174   0.33134   0.70565   0.00000  Uiso   1.00
O733   O     0.96646   0.31035   0.83499   0.00000  Uiso   1.00
O734   O     0.89019   0.01623   0.80195   0.00000  Uiso   1.00
O735   O     0.70281   0.08702   0.74691   0.00000  Uiso   1.00
O736   O     0.72488   0.23702   0.74502   0.00000  Uiso   1.00
O737   O     0.94178   0.09632   0.75499   0.00000  Uiso   1.00
O738   O     0.96995   0.17397   0.82247   0.00000  Uiso   1.00
O739   O     0.69672   0.15937   0.67753   0.00000  Uiso   1.00
O740   O     0.73098   0.16467   0.81439   0.00000  Uiso   1.00
O741   O     0.93569   0.16866   0.68561   0.00000  Uiso   1.00
O742   O     0.81375   0.14854   0.63759   0.00000  Uiso   1.00
Zn743  Zn    0.93700   0.17287   0.75540   0.00000  Uiso   1.00
Zn744  Zn    0.72967   0.16046   0.74461   0.00000  Uiso   1.00
C745   C     0.01500   0.59813   0.74909   0.00000  Uiso   1.00
C746   C     0.31148   0.49568   0.65884   0.00000  Uiso   1.00
C747   C     0.03162   0.50813   0.89333   0.00000  Uiso   1.00
C748   C     0.29751   0.48259   0.60711   0.00000  Uiso   1.00
C749   C     0.01026   0.54451   0.97144   0.00000  Uiso   1.00
C750   C     0.29589   0.41804   0.54029   0.00000  Uiso   1.00
C751   C     0.33029   0.53727   0.92165   0.00000  Uiso   1.00
C752   C     0.32293   0.44204   0.58331   0.00000  Uiso   1.00
C753   C     0.07644   0.48296   0.91509   0.00000  Uiso   1.00
C754   C     0.24834   0.50152   0.58568   0.00000  Uiso   1.00
C755   C     0.08788   0.48674   0.96546   0.00000  Uiso   1.00
C756   C     0.31852   0.40185   0.75140   0.00000  Uiso   1.00
C757   C     0.21562   0.47251   0.54778   0.00000  Uiso   1.00
C758   C     0.05733   0.52148   0.99307   0.00000  Uiso   1.00
C759   C     0.24130   0.43184   0.52320   0.00000  Uiso   1.00
C760   C     0.13363   0.46167   0.98803   0.00000  Uiso   1.00
C761   C     0.15852   0.48344   0.53335   0.00000  Uiso   1.00
C762   C     0.13297   0.51925   0.61564   0.00000  Uiso   1.00
C763   C     0.11997   0.37718   0.93440   0.00000  Uiso   1.00
C764   C     0.05551   0.66649   0.70095   0.00000  Uiso   1.00
C765   C     0.27948   0.33431   0.80160   0.00000  Uiso   1.00
C766   C     0.12448   0.51433   0.56238   0.00000  Uiso   1.00
C767   C     0.15602   0.41643   0.96716   0.00000  Uiso   1.00
C768   C     0.07460   0.53322   0.54172   0.00000  Uiso   1.00
C769   C     0.21070   0.40335   0.98407   0.00000  Uiso   1.00
C770   C     0.01979   0.65155   0.74120   0.00000  Uiso   1.00
C771   C     0.31479   0.34871   0.76100   0.00000  Uiso   1.00
C772   C     0.02168   0.50430   0.84092   0.00000  Uiso   1.00
H773   H     0.04899   0.55703   0.56369   0.00000  Uiso   1.00
H774   H     0.17115   0.54428   0.78294   0.00000  Uiso   1.00
H775   H     0.13318   0.56486   0.67698   0.00000  Uiso   1.00
H776   H     0.11693   0.64941   0.88543   0.00000  Uiso   1.00
H777   H     0.12985   0.65404   0.73876   0.00000  Uiso   1.00
H778   H     0.20365   0.33683   0.83070   0.00000  Uiso   1.00
H779   H     0.22865   0.36953   0.96807   0.00000  Uiso   1.00
H780   H     0.23405   0.53687   0.60173   0.00000  Uiso   1.00
H781   H     0.10353   0.46196   0.89227   0.00000  Uiso   1.00
H782   H     0.02841   0.42721   0.59917   0.00000  Uiso   1.00
H783   H     0.29480   0.55649   0.90502   0.00000  Uiso   1.00
H784   H     0.31846   0.56945   0.99268   0.00000  Uiso   1.00
H785   H     0.31568   0.38644   0.52235   0.00000  Uiso   1.00
H786   H     0.16219   0.45408   0.71944   0.00000  Uiso   1.00
N787   N     0.14695   0.48550   0.73740   0.00000  Uiso   1.00
N788   N     0.18638   0.51450   0.76261   0.00000  Uiso   1.00
O789   O     0.29719   0.57964   0.75310   0.00000  Uiso   1.00
O790   O     0.12400   0.56600   0.64072   0.00000  Uiso   1.00
O791   O     0.06768   0.37443   0.93462   0.00000  Uiso   1.00
O792   O     0.14590   0.34138   0.90523   0.00000  Uiso   1.00
O793   O     0.03241   0.34725   0.66332   0.00000  Uiso   1.00
O794   O     0.11508   0.66467   0.70565   0.00000  Uiso   1.00
O795   O     0.29980   0.64369   0.83499   0.00000  Uiso   1.00
O796   O     0.22353   0.34956   0.80195   0.00000  Uiso   1.00
O797   O     0.03614   0.42036   0.74691   0.00000  Uiso   1.00
O798   O     0.05822   0.57035   0.74502   0.00000  Uiso   1.00
O799   O     0.27512   0.42965   0.75499   0.00000  Uiso   1.00
O800   O     0.30328   0.50730   0.82247   0.00000  Uiso   1.00
O801   O     0.03005   0.49270   0.67753   0.00000  Uiso   1.00
O802   O     0.06431   0.49801   0.81439   0.00000  Uiso   1.00
O803   O     0.26902   0.50199   0.68561   0.00000  Uiso   1.00
O804   O     0.14708   0.48188   0.63759   0.00000  Uiso   1.00
Zn805  Zn    0.27033   0.50621   0.75540   0.00000  Uiso   1.00
Zn806  Zn    0.06300   0.49379   0.74461   0.00000  Uiso   1.00
C807   C     0.34834   0.59813   0.74909   0.00000  Uiso   1.00
C808   C     0.64481   0.49568   0.65884   0.00000  Uiso   1.00
C809   C     0.36496   0.50813   0.89333   0.00000  Uiso   1.00
C810   C     0.63085   0.48259   0.60711   0.00000  Uiso   1.00
C811   C     0.34359   0.54451   0.97144   0.00000  Uiso   1.00
C812   C     0.62922   0.41804   0.54029   0.00000  Uiso   1.00
C813   C     0.66362   0.53727   0.92165   0.00000  Uiso   1.00
C814   C     0.65627   0.44204   0.58331   0.00000  Uiso   1.00
C815   C     0.40977   0.48296   0.91509   0.00000  Uiso   1.00
C816   C     0.58168   0.50152   0.58568   0.00000  Uiso   1.00
C817   C     0.42121   0.48674   0.96546   0.00000  Uiso   1.00
C818   C     0.65185   0.40185   0.75140   0.00000  Uiso   1.00
C819   C     0.54895   0.47251   0.54778   0.00000  Uiso   1.00
C820   C     0.39067   0.52148   0.99307   0.00000  Uiso   1.00
C821   C     0.57463   0.43184   0.52320   0.00000  Uiso   1.00
C822   C     0.46696   0.46167   0.98803   0.00000  Uiso   1.00
C823   C     0.49186   0.48344   0.53335   0.00000  Uiso   1.00
C824   C     0.46630   0.51925   0.61564   0.00000  Uiso   1.00
C825   C     0.45331   0.37718   0.93440   0.00000  Uiso   1.00
C826   C     0.38884   0.66649   0.70095   0.00000  Uiso   1.00
C827   C     0.61281   0.33431   0.80160   0.00000  Uiso   1.00
C828   C     0.45782   0.51433   0.56238   0.00000  Uiso   1.00
C829   C     0.48935   0.41643   0.96716   0.00000  Uiso   1.00
C830   C     0.40793   0.53322   0.54172   0.00000  Uiso   1.00
C831   C     0.54403   0.40335   0.98407   0.00000  Uiso   1.00
C832   C     0.35312   0.65155   0.74120   0.00000  Uiso   1.00
C833   C     0.64812   0.34871   0.76100   0.00000  Uiso   1.00
C834   C     0.35502   0.50430   0.84092   0.00000  Uiso   1.00
H835   H     0.38233   0.55703   0.56369   0.00000  Uiso   1.00
H836   H     0.50448   0.54428   0.78294   0.00000  Uiso   1.00
H837   H     0.46651   0.56486   0.67698   0.00000  Uiso   1.00
H838   H     0.45026   0.64941   0.88543   0.00000  Uiso   1.00
H839   H     0.46319   0.65404   0.73876   0.00000  Uiso   1.00
H840   H     0.53698   0.33683   0.83070   0.00000  Uiso   1.00
H841   H     0.56198   0.36953   0.96807   0.00000  Uiso   1.00
H842   H     0.56738   0.53687   0.60173   0.00000  Uiso   1.00
H843   H     0.43686   0.46196   0.89227   0.00000  Uiso   1.00
H844   H     0.36174   0.42721   0.59917   0.00000  Uiso   1.00
H845   H     0.62814   0.55649   0.90502   0.00000  Uiso   1.00
H846   H     0.65179   0.56945   0.99268   0.00000  Uiso   1.00
H847   H     0.64902   0.38644   0.52235   0.00000  Uiso   1.00
H848   H     0.49552   0.45408   0.71944   0.00000  Uiso   1.00
N849   N     0.48029   0.48550   0.73740   0.00000  Uiso   1.00
N850   N     0.51971   0.51450   0.76261   0.00000  Uiso   1.00
O851   O     0.63052   0.57964   0.75310   0.00000  Uiso   1.00
O852   O     0.45734   0.56600   0.64072   0.00000  Uiso   1.00
O853   O     0.40102   0.37443   0.93462   0.00000  Uiso   1.00
O854   O     0.47923   0.34138   0.90523   0.00000  Uiso   1.00
O855   O     0.36575   0.34725   0.66332   0.00000  Uiso   1.00
O856   O     0.44841   0.66467   0.70565   0.00000  Uiso   1.00
O857   O     0.63313   0.64369   0.83499   0.00000  Uiso   1.00
O858   O     0.55686   0.34956   0.80195   0.00000  Uiso   1.00
O859   O     0.36948   0.42036   0.74691   0.00000  Uiso   1.00
O860   O     0.39155   0.57035   0.74502   0.00000  Uiso   1.00
O861   O     0.60845   0.42965   0.75499   0.00000  Uiso   1.00
O862   O     0.63662   0.50730   0.82247   0.00000  Uiso   1.00
O863   O     0.36338   0.49270   0.67753   0.00000  Uiso   1.00
O864   O     0.39764   0.49801   0.81439   0.00000  Uiso   1.00
O865   O     0.60236   0.50199   0.68561   0.00000  Uiso   1.00
O866   O     0.48042   0.48188   0.63759   0.00000  Uiso   1.00
Zn867  Zn    0.60366   0.50621   0.75540   0.00000  Uiso   1.00
Zn868  Zn    0.39634   0.49379   0.74461   0.00000  Uiso   1.00
C869   C     0.68167   0.59813   0.74909   0.00000  Uiso   1.00
C870   C     0.97815   0.49568   0.65884   0.00000  Uiso   1.00
C871   C     0.69829   0.50813   0.89333   0.00000  Uiso   1.00
C872   C     0.96418   0.48259   0.60711   0.00000  Uiso   1.00
C873   C     0.67693   0.54451   0.97144   0.00000  Uiso   1.00
C874   C     0.96256   0.41804   0.54029   0.00000  Uiso   1.00
C875   C     0.99696   0.53727   0.92165   0.00000  Uiso   1.00
C876   C     0.98960   0.44204   0.58331   0.00000  Uiso   1.00
C877   C     0.74310   0.48296   0.91509   0.00000  Uiso   1.00
C878   C     0.91501   0.50152   0.58568   0.00000  Uiso   1.00
C879   C     0.75454   0.48674   0.96546   0.00000  Uiso   1.00
C880   C     0.98518   0.40185   0.75140   0.00000  Uiso   1.00
C881   C     0.88228   0.47251   0.54778   0.00000  Uiso   1.00
C882   C     0.72400   0.52148   0.99307   0.00000  Uiso   1.00
C883   C     0.90796   0.43184   0.52320   0.00000  Uiso   1.00
C884   C     0.80030   0.46167   0.98803   0.00000  Uiso   1.00
C885   C     0.82519   0.48344   0.53335   0.00000  Uiso   1.00
C886   C     0.79963   0.51925   0.61564   0.00000  Uiso   1.00
C887   C     0.78664   0.37718   0.93440   0.00000  Uiso   1.00
C888   C     0.72217   0.66649   0.70095   0.00000  Uiso   1.00
C889   C     0.94614   0.33431   0.80160   0.00000  Uiso   1.00
C890   C     0.79115   0.51433   0.56238   0.00000  Uiso   1.00
C891   C     0.82268   0.41643   0.96716   0.00000  Uiso   1.00
C892   C     0.74126   0.53322   0.54172   0.00000  Uiso   1.00
C893   C     0.87737   0.40335   0.98407   0.00000  Uiso   1.00
C894   C     0.68646   0.65155   0.74120   0.00000  Uiso   1.00
C895   C     0.98145   0.34871   0.76100   0.00000  Uiso   1.00
C896   C     0.68835   0.50430   0.84092   0.00000  Uiso   1.00
H897   H     0.71566   0.55703   0.56369   0.00000  Uiso   1.00
H898   H     0.83781   0.54428   0.78294   0.00000  Uiso   1.00
H899   H     0.79985   0.56486   0.67698   0.00000  Uiso   1.00
H900   H     0.78359   0.64941   0.88543   0.00000  Uiso   1.00
H901   H     0.79652   0.65404   0.73876   0.00000  Uiso   1.00
H902   H     0.87032   0.33683   0.83070   0.00000  Uiso   1.00
H903   H     0.89531   0.36953   0.96807   0.00000  Uiso   1.00
H904   H     0.90071   0.53687   0.60173   0.00000  Uiso   1.00
H905   H     0.77020   0.46196   0.89227   0.00000  Uiso   1.00
H906   H     0.69507   0.42721   0.59917   0.00000  Uiso   1.00
H907   H     0.96147   0.55649   0.90502   0.00000  Uiso   1.00
H908   H     0.98512   0.56945   0.99268   0.00000  Uiso   1.00
H909   H     0.98235   0.38644   0.52235   0.00000  Uiso   1.00
H910   H     0.82886   0.45408   0.71944   0.00000  Uiso   1.00
N911   N     0.81362   0.48550   0.73740   0.00000  Uiso   1.00
N912   N     0.85305   0.51450   0.76261   0.00000  Uiso   1.00
O913   O     0.96386   0.57964   0.75310   0.00000  Uiso   1.00
O914   O     0.79067   0.56600   0.64072   0.00000  Uiso   1.00
O915   O     0.73435   0.37443   0.93462   0.00000  Uiso   1.00
O916   O     0.81257   0.34138   0.90523   0.00000  Uiso   1.00
O917   O     0.69908   0.34725   0.66332   0.00000  Uiso   1.00
O918   O     0.78174   0.66467   0.70565   0.00000  Uiso   1.00
O919   O     0.96646   0.64369   0.83499   0.00000  Uiso   1.00
O920   O     0.89019   0.34956   0.80195   0.00000  Uiso   1.00
O921   O     0.70281   0.42036   0.74691   0.00000  Uiso   1.00
O922   O     0.72488   0.57035   0.74502   0.00000  Uiso   1.00
O923   O     0.94178   0.42965   0.75499   0.00000  Uiso   1.00
O924   O     0.96995   0.50730   0.82247   0.00000  Uiso   1.00
O925   O     0.69672   0.49270   0.67753   0.00000  Uiso   1.00
O926   O     0.73098   0.49801   0.81439   0.00000  Uiso   1.00
O927   O     0.93569   0.50199   0.68561   0.00000  Uiso   1.00
O928   O     0.81375   0.48188   0.63759   0.00000  Uiso   1.00
Zn929  Zn    0.93700   0.50621   0.75540   0.00000  Uiso   1.00
Zn930  Zn    0.72967   0.49379   0.74461   0.00000  Uiso   1.00
C931   C     0.01500   0.93146   0.74909   0.00000  Uiso   1.00
C932   C     0.31148   0.82901   0.65884   0.00000  Uiso   1.00
C933   C     0.03162   0.84146   0.89333   0.00000  Uiso   1.00
C934   C     0.29751   0.81593   0.60711   0.00000  Uiso   1.00
C935   C     0.01026   0.87785   0.97144   0.00000  Uiso   1.00
C936   C     0.29589   0.75137   0.54029   0.00000  Uiso   1.00
C937   C     0.33029   0.87060   0.92165   0.00000  Uiso   1.00
C938   C     0.32293   0.77537   0.58331   0.00000  Uiso   1.00
C939   C     0.07644   0.81630   0.91509   0.00000  Uiso   1.00
C940   C     0.24834   0.83485   0.58568   0.00000  Uiso   1.00
C941   C     0.08788   0.82007   0.96546   0.00000  Uiso   1.00
C942   C     0.31852   0.73519   0.75140   0.00000  Uiso   1.00
C943   C     0.21562   0.80585   0.54778   0.00000  Uiso   1.00
C944   C     0.05733   0.85482   0.99307   0.00000  Uiso   1.00
C945   C     0.24130   0.76517   0.52320   0.00000  Uiso   1.00
C946   C     0.13363   0.79500   0.98803   0.00000  Uiso   1.00
C947   C     0.15852   0.81677   0.53335   0.00000  Uiso   1.00
C948   C     0.13297   0.85259   0.61564   0.00000  Uiso   1.00
C949   C     0.11997   0.71052   0.93440   0.00000  Uiso   1.00
C950   C     0.05551   0.99982   0.70095   0.00000  Uiso   1.00
C951   C     0.27948   0.66764   0.80160   0.00000  Uiso   1.00
C952   C     0.12448   0.84766   0.56238   0.00000  Uiso   1.00
C953   C     0.15602   0.74976   0.96716   0.00000  Uiso   1.00
C954   C     0.07460   0.86656   0.54172   0.00000  Uiso   1.00
C955   C     0.21070   0.73668   0.98407   0.00000  Uiso   1.00
C956   C     0.01979   0.98489   0.74120   0.00000  Uiso   1.00
C957   C     0.31479   0.68204   0.76100   0.00000  Uiso   1.00
C958   C     0.02168   0.83764   0.84092   0.00000  Uiso   1.00
H959   H     0.04899   0.89037   0.56369   0.00000  Uiso   1.00
H960   H     0.17115   0.87761   0.78294   0.00000  Uiso   1.00
H961   H     0.13318   0.89819   0.67698   0.00000  Uiso   1.00
H962   H     0.11693   0.98274   0.88543   0.00000  Uiso   1.00
H963   H     0.12985   0.98737   0.73876   0.00000  Uiso   1.00
H964   H     0.20365   0.67017   0.83070   0.00000  Uiso   1.00
H965   H     0.22865   0.70286   0.96807   0.00000  Uiso   1.00
H966   H     0.23405   0.87020   0.60173   0.00000  Uiso   1.00
H967   H     0.10353   0.79530   0.89227   0.00000  Uiso   1.00
H968   H     0.02841   0.76054   0.59917   0.00000  Uiso   1.00
H969   H     0.29480   0.88982   0.90502   0.00000  Uiso   1.00
H970   H     0.31846   0.90278   0.99268   0.00000  Uiso   1.00
H971   H     0.31568   0.71977   0.52235   0.00000  Uiso   1.00
H972   H     0.16219   0.78742   0.71944   0.00000  Uiso   1.00
N973   N     0.14695   0.81883   0.73740   0.00000  Uiso   1.00
N974   N     0.18638   0.84784   0.76261   0.00000  Uiso   1.00
O975   O     0.29719   0.91298   0.75310   0.00000  Uiso   1.00
O976   O     0.12400   0.89933   0.64072   0.00000  Uiso   1.00
O977   O     0.06768   0.70776   0.93462   0.00000  Uiso   1.00
O978   O     0.14590   0.67471   0.90523   0.00000  Uiso   1.00
O979   O     0.03241   0.68058   0.66332   0.00000  Uiso   1.00
O980   O     0.11508   0.99801   0.70565   0.00000  Uiso   1.00
O981   O     0.29980   0.97702   0.83499   0.00000  Uiso   1.00
O982   O     0.22353   0.68289   0.80195   0.00000  Uiso   1.00
O983   O     0.03614   0.75369   0.74691   0.00000  Uiso   1.00
O984   O     0.05822   0.90368   0.74502   0.00000  Uiso   1.00
O985   O     0.27512   0.76298   0.75499   0.00000  Uiso   1.00
O986   O     0.30328   0.84063   0.82247   0.00000  Uiso   1.00
O987   O     0.03005   0.82603   0.67753   0.00000  Uiso   1.00
O988   O     0.06431   0.83134   0.81439   0.00000  Uiso   1.00
O989   O     0.26902   0.83533   0.68561   0.00000  Uiso   1.00
O990   O     0.14708   0.81521   0.63759   0.00000  Uiso   1.00
Zn991  Zn    0.27033   0.83954   0.75540   0.00000  Uiso   1.00
Zn992  Zn    0.06300   0.82713   0.74461   0.00000  Uiso   1.00
C993   C     0.34834   0.93146   0.74909   0.00000  Uiso   1.00
C994   C     0.64481   0.82901   0.65884   0.00000  Uiso   1.00
C995   C     0.36496   0.84146   0.89333   0.00000  Uiso   1.00
C996   C     0.63085   0.81593   0.60711   0.00000  Uiso   1.00
C997   C     0.34359   0.87785   0.97144   0.00000  Uiso   1.00
C998   C     0.62922   0.75137   0.54029   0.00000  Uiso   1.00
C999   C     0.66362   0.87060   0.92165   0.00000  Uiso   1.00
C1000  C     0.65627   0.77537   0.58331   0.00000  Uiso   1.00
C1001  C     0.40977   0.81630   0.91509   0.00000  Uiso   1.00
C1002  C     0.58168   0.83485   0.58568   0.00000  Uiso   1.00
C1003  C     0.42121   0.82007   0.96546   0.00000  Uiso   1.00
C1004  C     0.65185   0.73519   0.75140   0.00000  Uiso   1.00
C1005  C     0.54895   0.80585   0.54778   0.00000  Uiso   1.00
C1006  C     0.39067   0.85482   0.99307   0.00000  Uiso   1.00
C1007  C     0.57463   0.76517   0.52320   0.00000  Uiso   1.00
C1008  C     0.46696   0.79500   0.98803   0.00000  Uiso   1.00
C1009  C     0.49186   0.81677   0.53335   0.00000  Uiso   1.00
C1010  C     0.46630   0.85259   0.61564   0.00000  Uiso   1.00
C1011  C     0.45331   0.71052   0.93440   0.00000  Uiso   1.00
C1012  C     0.38884   0.99982   0.70095   0.00000  Uiso   1.00
C1013  C     0.61281   0.66764   0.80160   0.00000  Uiso   1.00
C1014  C     0.45782   0.84766   0.56238   0.00000  Uiso   1.00
C1015  C     0.48935   0.74976   0.96716   0.00000  Uiso   1.00
C1016  C     0.40793   0.86656   0.54172   0.00000  Uiso   1.00
C1017  C     0.54403   0.73668   0.98407   0.00000  Uiso   1.00
C1018  C     0.35312   0.98489   0.74120   0.00000  Uiso   1.00
C1019  C     0.64812   0.68204   0.76100   0.00000  Uiso   1.00
C1020  C     0.35502   0.83764   0.84092   0.00000  Uiso   1.00
H1021  H     0.38233   0.89037   0.56369   0.00000  Uiso   1.00
H1022  H     0.50448   0.87761   0.78294   0.00000  Uiso   1.00
H1023  H     0.46651   0.89819   0.67698   0.00000  Uiso   1.00
H1024  H     0.45026   0.98274   0.88543   0.00000  Uiso   1.00
H1025  H     0.46319   0.98737   0.73876   0.00000  Uiso   1.00
H1026  H     0.53698   0.67017   0.83070   0.00000  Uiso   1.00
H1027  H     0.56198   0.70286   0.96807   0.00000  Uiso   1.00
H1028  H     0.56738   0.87020   0.60173   0.00000  Uiso   1.00
H1029  H     0.43686   0.79530   0.89227   0.00000  Uiso   1.00
H1030  H     0.36174   0.76054   0.59917   0.00000  Uiso   1.00
H1031  H     0.62814   0.88982   0.90502   0.00000  Uiso   1.00
H1032  H     0.65179   0.90278   0.99268   0.00000  Uiso   1.00
H1033  H     0.64902   0.71977   0.52235   0.00000  Uiso   1.00
H1034  H     0.49552   0.78742   0.71944   0.00000  Uiso   1.00
N1035  N     0.48029   0.81883   0.73740   0.00000  Uiso   1.00
N1036  N     0.51971   0.84784   0.76261   0.00000  Uiso   1.00
O1037  O     0.63052   0.91298   0.75310   0.00000  Uiso   1.00
O1038  O     0.45734   0.89933   0.64072   0.00000  Uiso   1.00
O1039  O     0.40102   0.70776   0.93462   0.00000  Uiso   1.00
O1040  O     0.47923   0.67471   0.90523   0.00000  Uiso   1.00
O1041  O     0.36575   0.68058   0.66332   0.00000  Uiso   1.00
O1042  O     0.44841   0.99801   0.70565   0.00000  Uiso   1.00
O1043  O     0.63313   0.97702   0.83499   0.00000  Uiso   1.00
O1044  O     0.55686   0.68289   0.80195   0.00000  Uiso   1.00
O1045  O     0.36948   0.75369   0.74691   0.00000  Uiso   1.00
O1046  O     0.39155   0.90368   0.74502   0.00000  Uiso   1.00
O1047  O     0.60845   0.76298   0.75499   0.00000  Uiso   1.00
O1048  O     0.63662   0.84063   0.82247   0.00000  Uiso   1.00
O1049  O     0.36338   0.82603   0.67753   0.00000  Uiso   1.00
O1050  O     0.39764   0.83134   0.81439   0.00000  Uiso   1.00
O1051  O     0.60236   0.83533   0.68561   0.00000  Uiso   1.00
O1052  O     0.48042   0.81521   0.63759   0.00000  Uiso   1.00
Zn1053 Zn    0.60366   0.83954   0.75540   0.00000  Uiso   1.00
Zn1054 Zn    0.39634   0.82713   0.74461   0.00000  Uiso   1.00
C1055  C     0.68167   0.93146   0.74909   0.00000  Uiso   1.00
C1056  C     0.97815   0.82901   0.65884   0.00000  Uiso   1.00
C1057  C     0.69829   0.84146   0.89333   0.00000  Uiso   1.00
C1058  C     0.96418   0.81593   0.60711   0.00000  Uiso   1.00
C1059  C     0.67693   0.87785   0.97144   0.00000  Uiso   1.00
C1060  C     0.96256   0.75137   0.54029   0.00000  Uiso   1.00
C1061  C     0.99696   0.87060   0.92165   0.00000  Uiso   1.00
C1062  C     0.98960   0.77537   0.58331   0.00000  Uiso   1.00
C1063  C     0.74310   0.81630   0.91509   0.00000  Uiso   1.00
C1064  C     0.91501   0.83485   0.58568   0.00000  Uiso   1.00
C1065  C     0.75454   0.82007   0.96546   0.00000  Uiso   1.00
C1066  C     0.98518   0.73519   0.75140   0.00000  Uiso   1.00
C1067  C     0.88228   0.80585   0.54778   0.00000  Uiso   1.00
C1068  C     0.72400   0.85482   0.99307   0.00000  Uiso   1.00
C1069  C     0.90796   0.76517   0.52320   0.00000  Uiso   1.00
C1070  C     0.80030   0.79500   0.98803   0.00000  Uiso   1.00
C1071  C     0.82519   0.81677   0.53335   0.00000  Uiso   1.00
C1072  C     0.79963   0.85259   0.61564   0.00000  Uiso   1.00
C1073  C     0.78664   0.71052   0.93440   0.00000  Uiso   1.00
C1074  C     0.72217   0.99982   0.70095   0.00000  Uiso   1.00
C1075  C     0.94614   0.66764   0.80160   0.00000  Uiso   1.00
C1076  C     0.79115   0.84766   0.56238   0.00000  Uiso   1.00
C1077  C     0.82268   0.74976   0.96716   0.00000  Uiso   1.00
C1078  C     0.74126   0.86656   0.54172   0.00000  Uiso   1.00
C1079  C     0.87737   0.73668   0.98407   0.00000  Uiso   1.00
C1080  C     0.68646   0.98489   0.74120   0.00000  Uiso   1.00
C1081  C     0.98145   0.68204   0.76100   0.00000  Uiso   1.00
C1082  C     0.68835   0.83764   0.84092   0.00000  Uiso   1.00
H1083  H     0.71566   0.89037   0.56369   0.00000  Uiso   1.00
H1084  H     0.83781   0.87761   0.78294   0.00000  Uiso   1.00
H1085  H     0.79985   0.89819   0.67698   0.00000  Uiso   1.00
H1086  H     0.78359   0.98274   0.88543   0.00000  Uiso   1.00
H1087  H     0.79652   0.98737   0.73876   0.00000  Uiso   1.00
H1088  H     0.87032   0.67017   0.83070   0.00000  Uiso   1.00
H1089  H     0.89531   0.70286   0.96807   0.00000  Uiso   1.00
H1090  H     0.90071   0.87020   0.60173   0.00000  Uiso   1.00
H1091  H     0.77020   0.79530   0.89227   0.00000  Uiso   1.00
H1092  H     0.69507   0.76054   0.59917   0.00000  Uiso   1.00
H1093  H     0.96147   0.88982   0.90502   0.00000  Uiso   1.00
H1094  H     0.98512   0.90278   0.99268   0.00000  Uiso   1.00
H1095  H     0.98235   0.71977   0.52235   0.00000  Uiso   1.00
H1096  H     0.82886   0.78742   0.71944   0.00000  Uiso   1.00
N1097  N     0.81362   0.81883   0.73740   0.00000  Uiso   1.00
N1098  N     0.85305   0.84784   0.76261   0.00000  Uiso   1.00
O1099  O     0.96386   0.91298   0.75310   0.00000  Uiso   1.00
O1100  O     0.79067   0.89933   0.64072   0.00000  Uiso   1.00
O1101  O     0.73435   0.70776   0.93462   0.00000  Uiso   1.00
O1102  O     0.81257   0.67471   0.90523   0.00000  Uiso   1.00
O1103  O     0.69908   0.68058   0.66332   0.00000  Uiso   1.00
O1104  O     0.78174   0.99801   0.70565   0.00000  Uiso   1.00
O1105  O     0.96646   0.97702   0.83499   0.00000  Uiso   1.00
O1106  O     0.89019   0.68289   0.80195   0.00000  Uiso   1.00
O1107  O     0.70281   0.75369   0.74691   0.00000  Uiso   1.00
O1108  O     0.72488   0.90368   0.74502   0.00000  Uiso   1.00
O1109  O     0.94178   0.76298   0.75499   0.00000  Uiso   1.00
O1110  O     0.96995   0.84063   0.82247   0.00000  Uiso   1.00
O1111  O     0.69672   0.82603   0.67753   0.00000  Uiso   1.00
O1112  O     0.73098   0.83134   0.81439   0.00000  Uiso   1.00
O1113  O     0.93569   0.83533   0.68561   0.00000  Uiso   1.00
O1114  O     0.81375   0.81521   0.63759   0.00000  Uiso   1.00
Zn1115 Zn    0.93700   0.83954   0.75540   0.00000  Uiso   1.00
Zn1116 Zn    0.72967   0.82713   0.74461   0.00000  Uiso   1.00
loop_
_geom_bond_atom_site_label_1
_geom_bond_atom_site_label_2
_geom_bond_distance
_geom_bond_site_symmetry_2
_ccdc_geom_bond_type
C1     O54     1.291   .     A
C1     C26     1.406   .     S
C1     O169    1.274   1_455 S
C2     C4      1.459   .     S
C2     O59     1.301   .     A
C2     O119    1.293   .     S
C3     C9      1.389   .     A
C3     C28     1.448   .     S
C3     C131    1.402   1_455 S
C4     C10     1.387   .     A
C4     C8      1.401   .     A
C5     C14     1.399   .     A
C5     C131    1.389   1_455 S
C5     H164    1.084   1_455 S
C6     C8      1.396   .     A
C6     C15     1.406   .     A
C6     H41     1.084   .     S
C7     H39     1.083   .     S
C7     C65     1.402   .     S
C7     C67     1.389   .     S
C8     H100    1.083   .     S
C9     C11     1.396   .     A
C9     H37     1.083   .     S
C10    C13     1.399   .     A
C10    H36     1.080   .     S
C11    C16     1.413   .     A
C11    C14     1.416   .     A
C12    O55     1.293   .     A
C12    C27     1.410   .     S
C12    O115    1.273   .     S
C13    C17     1.419   .     A
C13    C15     1.416   .     A
C14    C582    1.386   .     S
C15    C583    1.395   1_554 S
C16    C23     1.427   .     A
C16    C575    1.411   .     S
C17    C22     1.429   .     A
C17    C574    1.411   1_554 S
C18    O60     1.219   .     D
C18    O46     1.397   .     S
C18    C22     1.469   .     S
C19    O47     1.224   .     D
C19    C23     1.491   .     S
C19    O48     1.397   .     S
C20    O50     1.397   .     S
C20    C26     1.496   .     S
C20    O235    1.221   .     S
C21    C27     1.495   .     S
C21    O52     1.397   .     S
C21    O423    1.224   1_545 S
C22    C24     1.393   .     A
C23    C25     1.401   .     A
C24    H29     1.085   .     S
C24    C572    1.386   1_554 S
C25    H35     1.085   .     S
C25    C573    1.395   .     S
C26    C337    1.364   1_455 S
C27    C460    1.364   1_545 S
C28    O58     1.300   .     A
C28    O180    1.288   1_455 S
H30    N44     1.029   .     S
H31    O46     1.012   .     S
H32    O234    1.014   .     S
H33    O50     1.013   .     S
H34    O52     1.012   .     S
H38    C132    1.083   1_455 S
H40    C67     1.084   .     S
H42    N43     1.029   .     S
N43    N44     1.283   .     D
N43    Zn62    2.019   .     S
N44    Zn61    2.019   .     S
O45    Zn61    1.961   .     S
O45    C63     1.274   .     S
O48    H404    1.014   1_545 S
O49    C392    1.221   1_545 S
O51    C207    1.224   .     S
O53    Zn62    1.961   .     S
O53    C136    1.273   1_455 S
O54    Zn62    1.988   .     S
O55    Zn61    1.988   .     S
O56    Zn61    1.952   .     S
O56    C90     1.288   .     S
O57    Zn62    1.952   .     S
O57    C126    1.293   1_455 S
O58    Zn62    1.926   .     S
O59    Zn61    1.926   .     S
C63    O116    1.291   .     A
C63    C88     1.406   .     S
C64    C66     1.459   .     S
C64    O121    1.301   .     A
C64    O181    1.293   .     S
C65    C71     1.389   .     A
C65    C90     1.448   .     S
C66    C72     1.387   .     A
C66    C70     1.401   .     A
C67    C76     1.399   .     A
C68    C70     1.396   .     A
C68    C77     1.406   .     A
C68    H103    1.084   .     S
C69    H101    1.083   .     S
C69    C127    1.402   .     S
C69    C129    1.389   .     S
C70    H162    1.083   .     S
C71    C73     1.396   .     A
C71    H99     1.083   .     S
C72    C75     1.399   .     A
C72    H98     1.080   .     S
C73    C78     1.413   .     A
C73    C76     1.416   .     A
C74    O117    1.293   .     A
C74    C89     1.410   .     S
C74    O177    1.273   .     S
C75    C79     1.419   .     A
C75    C77     1.416   .     A
C76    C644    1.386   .     S
C77    C645    1.395   1_554 S
C78    C85     1.427   .     A
C78    C637    1.411   .     S
C79    C84     1.429   .     A
C79    C636    1.411   1_554 S
C80    O122    1.219   .     D
C80    O108    1.397   .     S
C80    C84     1.469   .     S
C81    O109    1.224   .     D
C81    C85     1.491   .     S
C81    O110    1.397   .     S
C82    O112    1.397   .     S
C82    C88     1.496   .     S
C82    O297    1.221   .     S
C83    C89     1.495   .     S
C83    O114    1.397   .     S
C83    O485    1.224   1_545 S
C84    C86     1.393   .     A
C85    C87     1.401   .     A
C86    H91     1.085   .     S
C86    C634    1.386   1_554 S
C87    H97     1.085   .     S
C87    C635    1.395   .     S
C88    C213    1.364   .     S
C89    C522    1.364   1_545 S
C90    O120    1.300   .     A
H92    N106    1.029   .     S
H93    O108    1.012   .     S
H94    O296    1.014   .     S
H95    O112    1.013   .     S
H96    O114    1.012   .     S
H102   C129    1.084   .     S
H104   N105    1.029   .     S
N105   N106    1.283   .     D
N105   Zn124   2.019   .     S
N106   Zn123   2.019   .     S
O107   Zn123   1.961   .     S
O107   C125    1.274   .     S
O110   H466    1.014   1_545 S
O111   C454    1.221   1_545 S
O113   C269    1.224   .     S
O115   Zn124   1.961   .     S
O116   Zn124   1.988   .     S
O117   Zn123   1.988   .     S
O118   Zn123   1.952   .     S
O118   C152    1.288   .     S
O119   Zn124   1.952   .     S
O120   Zn124   1.926   .     S
O121   Zn123   1.926   .     S
C125   O178    1.291   .     A
C125   C150    1.406   .     S
C126   C128    1.459   .     S
C126   O183    1.301   .     A
C126   O57     1.293   1_655 S
C127   C133    1.389   .     A
C127   C152    1.448   .     S
C128   C134    1.387   .     A
C128   C132    1.401   .     A
C129   C138    1.399   .     A
C130   C132    1.396   .     A
C130   C139    1.406   .     A
C130   H165    1.084   .     S
C131   H163    1.083   .     S
C131   C3      1.402   1_655 S
C131   C5      1.389   1_655 S
C132   H38     1.083   1_655 S
C133   C135    1.396   .     A
C133   H161    1.083   .     S
C134   C137    1.399   .     A
C134   H160    1.080   .     S
C135   C140    1.413   .     A
C135   C138    1.416   .     A
C136   O179    1.293   .     A
C136   C151    1.410   .     S
C136   O53     1.273   1_655 S
C137   C141    1.419   .     A
C137   C139    1.416   .     A
C138   C706    1.386   .     S
C139   C707    1.395   1_554 S
C140   C147    1.427   .     A
C140   C699    1.411   .     S
C141   C146    1.429   .     A
C141   C698    1.411   1_554 S
C142   O184    1.219   .     D
C142   O170    1.397   .     S
C142   C146    1.469   .     S
C143   O171    1.224   .     D
C143   C147    1.491   .     S
C143   O172    1.397   .     S
C144   O174    1.397   .     S
C144   C150    1.496   .     S
C144   O359    1.221   .     S
C145   C151    1.495   .     S
C145   O176    1.397   .     S
C145   O547    1.224   1_545 S
C146   C148    1.393   .     A
C147   C149    1.401   .     A
C148   H153    1.085   .     S
C148   C696    1.386   1_554 S
C149   H159    1.085   .     S
C149   C697    1.395   .     S
C150   C275    1.364   .     S
C151   C398    1.364   1_645 S
C152   O182    1.300   .     A
H154   N168    1.029   .     S
H155   O170    1.012   .     S
H156   O358    1.014   .     S
H157   O174    1.013   .     S
H158   O176    1.012   .     S
H164   C5      1.084   1_655 S
H166   N167    1.029   .     S
N167   N168    1.283   .     D
N167   Zn186   2.019   .     S
N168   Zn185   2.019   .     S
O169   Zn185   1.961   .     S
O169   C1      1.274   1_655 S
O172   H528    1.014   1_545 S
O173   C516    1.221   1_545 S
O175   C331    1.224   .     S
O177   Zn186   1.961   .     S
O178   Zn186   1.988   .     S
O179   Zn185   1.988   .     S
O180   Zn185   1.952   .     S
O180   C28     1.288   1_655 S
O181   Zn186   1.952   .     S
O182   Zn186   1.926   .     S
O183   Zn185   1.926   .     S
C187   O240    1.291   .     A
C187   C212    1.406   .     S
C187   O355    1.274   1_455 S
C188   C190    1.459   .     S
C188   O245    1.301   .     A
C188   O305    1.293   .     S
C189   C195    1.389   .     A
C189   C214    1.448   .     S
C189   C317    1.402   1_455 S
C190   C196    1.387   .     A
C190   C194    1.401   .     A
C191   C200    1.399   .     A
C191   C317    1.389   1_455 S
C191   H350    1.084   1_455 S
C192   C194    1.396   .     A
C192   C201    1.406   .     A
C192   H227    1.084   .     S
C193   H225    1.083   .     S
C193   C251    1.402   .     S
C193   C253    1.389   .     S
C194   H286    1.083   .     S
C195   C197    1.396   .     A
C195   H223    1.083   .     S
C196   C199    1.399   .     A
C196   H222    1.080   .     S
C197   C202    1.413   .     A
C197   C200    1.416   .     A
C198   O241    1.293   .     A
C198   C213    1.410   .     S
C198   O301    1.273   .     S
C199   C203    1.419   .     A
C199   C201    1.416   .     A
C200   C768    1.386   .     S
C201   C769    1.395   1_554 S
C202   C209    1.427   .     A
C202   C761    1.411   .     S
C203   C208    1.429   .     A
C203   C760    1.411   1_554 S
C204   O246    1.219   .     D
C204   O232    1.397   .     S
C204   C208    1.469   .     S
C205   O233    1.224   .     D
C205   C209    1.491   .     S
C205   O234    1.397   .     S
C206   O236    1.397   .     S
C206   C212    1.496   .     S
C206   O421    1.221   .     S
C207   C213    1.495   .     S
C207   O238    1.397   .     S
C208   C210    1.393   .     A
C209   C211    1.401   .     A
C210   H215    1.085   .     S
C210   C758    1.386   1_554 S
C211   H221    1.085   .     S
C211   C759    1.395   .     S
C212   C523    1.364   1_455 S
C214   O244    1.300   .     A
C214   O366    1.288   1_455 S
H216   N230    1.029   .     S
H217   O232    1.012   .     S
H218   O420    1.014   .     S
H219   O236    1.013   .     S
H220   O238    1.012   .     S
H224   C318    1.083   1_455 S
H226   C253    1.084   .     S
H228   N229    1.029   .     S
N229   N230    1.283   .     D
N229   Zn248   2.019   .     S
N230   Zn247   2.019   .     S
O231   Zn247   1.961   .     S
O231   C249    1.274   .     S
O237   C393    1.224   .     S
O239   Zn248   1.961   .     S
O239   C322    1.273   1_455 S
O240   Zn248   1.988   .     S
O241   Zn247   1.988   .     S
O242   Zn247   1.952   .     S
O242   C276    1.288   .     S
O243   Zn248   1.952   .     S
O243   C312    1.293   1_455 S
O244   Zn248   1.926   .     S
O245   Zn247   1.926   .     S
C249   O302    1.291   .     A
C249   C274    1.406   .     S
C250   C252    1.459   .     S
C250   O307    1.301   .     A
C250   O367    1.293   .     S
C251   C257    1.389   .     A
C251   C276    1.448   .     S
C252   C258    1.387   .     A
C252   C256    1.401   .     A
C253   C262    1.399   .     A
C254   C256    1.396   .     A
C254   C263    1.406   .     A
C254   H289    1.084   .     S
C255   H287    1.083   .     S
C255   C313    1.402   .     S
C255   C315    1.389   .     S
C256   H348    1.083   .     S
C257   C259    1.396   .     A
C257   H285    1.083   .     S
C258   C261    1.399   .     A
C258   H284    1.080   .     S
C259   C264    1.413   .     A
C259   C262    1.416   .     A
C260   O303    1.293   .     A
C260   C275    1.410   .     S
C260   O363    1.273   .     S
C261   C265    1.419   .     A
C261   C263    1.416   .     A
C262   C830    1.386   .     S
C263   C831    1.395   1_554 S
C264   C271    1.427   .     A
C264   C823    1.411   .     S
C265   C270    1.429   .     A
C265   C822    1.411   1_554 S
C266   O308    1.219   .     D
C266   O294    1.397   .     S
C266   C270    1.469   .     S
C267   O295    1.224   .     D
C267   C271    1.491   .     S
C267   O296    1.397   .     S
C268   O298    1.397   .     S
C268   C274    1.496   .     S
C268   O483    1.221   .     S
C269   C275    1.495   .     S
C269   O300    1.397   .     S
C270   C272    1.393   .     A
C271   C273    1.401   .     A
C272   H277    1.085   .     S
C272   C820    1.386   1_554 S
C273   H283    1.085   .     S
C273   C821    1.395   .     S
C274   C399    1.364   .     S
C276   O306    1.300   .     A
H278   N292    1.029   .     S
H279   O294    1.012   .     S
H280   O482    1.014   .     S
H281   O298    1.013   .     S
H282   O300    1.012   .     S
H288   C315    1.084   .     S
H290   N291    1.029   .     S
N291   N292    1.283   .     D
N291   Zn310   2.019   .     S
N292   Zn309   2.019   .     S
O293   Zn309   1.961   .     S
O293   C311    1.274   .     S
O299   C455    1.224   .     S
O301   Zn310   1.961   .     S
O302   Zn310   1.988   .     S
O303   Zn309   1.988   .     S
O304   Zn309   1.952   .     S
O304   C338    1.288   .     S
O305   Zn310   1.952   .     S
O306   Zn310   1.926   .     S
O307   Zn309   1.926   .     S
C311   O364    1.291   .     A
C311   C336    1.406   .     S
C312   C314    1.459   .     S
C312   O369    1.301   .     A
C312   O243    1.293   1_655 S
C313   C319    1.389   .     A
C313   C338    1.448   .     S
C314   C320    1.387   .     A
C314   C318    1.401   .     A
C315   C324    1.399   .     A
C316   C318    1.396   .     A
C316   C325    1.406   .     A
C316   H351    1.084   .     S
C317   H349    1.083   .     S
C317   C189    1.402   1_655 S
C317   C191    1.389   1_655 S
C318   H224    1.083   1_655 S
C319   C321    1.396   .     A
C319   H347    1.083   .     S
C320   C323    1.399   .     A
C320   H346    1.080   .     S
C321   C326    1.413   .     A
C321   C324    1.416   .     A
C322   O365    1.293   .     A
C322   C337    1.410   .     S
C322   O239    1.273   1_655 S
C323   C327    1.419   .     A
C323   C325    1.416   .     A
C324   C892    1.386   .     S
C325   C893    1.395   1_554 S
C326   C333    1.427   .     A
C326   C885    1.411   .     S
C327   C332    1.429   .     A
C327   C884    1.411   1_554 S
C328   O370    1.219   .     D
C328   O356    1.397   .     S
C328   C332    1.469   .     S
C329   O357    1.224   .     D
C329   C333    1.491   .     S
C329   O358    1.397   .     S
C330   O360    1.397   .     S
C330   C336    1.496   .     S
C330   O545    1.221   .     S
C331   C337    1.495   .     S
C331   O362    1.397   .     S
C332   C334    1.393   .     A
C333   C335    1.401   .     A
C334   H339    1.085   .     S
C334   C882    1.386   1_554 S
C335   H345    1.085   .     S
C335   C883    1.395   .     S
C336   C461    1.364   .     S
C337   C26     1.364   1_655 S
C338   O368    1.300   .     A
H340   N354    1.029   .     S
H341   O356    1.012   .     S
H342   O544    1.014   .     S
H343   O360    1.013   .     S
H344   O362    1.012   .     S
H350   C191    1.084   1_655 S
H352   N353    1.029   .     S
N353   N354    1.283   .     D
N353   Zn372   2.019   .     S
N354   Zn371   2.019   .     S
O355   Zn371   1.961   .     S
O355   C187    1.274   1_655 S
O361   C517    1.224   .     S
O363   Zn372   1.961   .     S
O364   Zn372   1.988   .     S
O365   Zn371   1.988   .     S
O366   Zn371   1.952   .     S
O366   C214    1.288   1_655 S
O367   Zn372   1.952   .     S
O368   Zn372   1.926   .     S
O369   Zn371   1.926   .     S
C373   O426    1.291   .     A
C373   C398    1.406   .     S
C373   O541    1.274   1_455 S
C374   C376    1.459   .     S
C374   O431    1.301   .     A
C374   O491    1.293   .     S
C375   C381    1.389   .     A
C375   C400    1.448   .     S
C375   C503    1.402   1_455 S
C376   C382    1.387   .     A
C376   C380    1.401   .     A
C377   C386    1.399   .     A
C377   C503    1.389   1_455 S
C377   H536    1.084   1_455 S
C378   C380    1.396   .     A
C378   C387    1.406   .     A
C378   H413    1.084   .     S
C379   H411    1.083   .     S
C379   C437    1.402   .     S
C379   C439    1.389   .     S
C380   H472    1.083   .     S
C381   C383    1.396   .     A
C381   H409    1.083   .     S
C382   C385    1.399   .     A
C382   H408    1.080   .     S
C383   C388    1.413   .     A
C383   C386    1.416   .     A
C384   O427    1.293   .     A
C384   C399    1.410   .     S
C384   O487    1.273   .     S
C385   C389    1.419   .     A
C385   C387    1.416   .     A
C386   C954    1.386   .     S
C387   C955    1.395   1_554 S
C388   C395    1.427   .     A
C388   C947    1.411   .     S
C389   C394    1.429   .     A
C389   C946    1.411   1_554 S
C390   O432    1.219   .     D
C390   O418    1.397   .     S
C390   C394    1.469   .     S
C391   O419    1.224   .     D
C391   C395    1.491   .     S
C391   O420    1.397   .     S
C392   O422    1.397   .     S
C392   C398    1.496   .     S
C392   O49     1.221   1_565 S
C393   C399    1.495   .     S
C393   O424    1.397   .     S
C394   C396    1.393   .     A
C395   C397    1.401   .     A
C396   H401    1.085   .     S
C396   C944    1.386   1_554 S
C397   H407    1.085   .     S
C397   C945    1.395   .     S
C398   C151    1.364   1_465 S
C400   O430    1.300   .     A
C400   O552    1.288   1_455 S
H402   N416    1.029   .     S
H403   O418    1.012   .     S
H404   O48     1.014   1_565 S
H405   O422    1.013   .     S
H406   O424    1.012   .     S
H410   C504    1.083   1_455 S
H412   C439    1.084   .     S
H414   N415    1.029   .     S
N415   N416    1.283   .     D
N415   Zn434   2.019   .     S
N416   Zn433   2.019   .     S
O417   Zn433   1.961   .     S
O417   C435    1.274   .     S
O423   C21     1.224   1_565 S
O425   Zn434   1.961   .     S
O425   C508    1.273   1_455 S
O426   Zn434   1.988   .     S
O427   Zn433   1.988   .     S
O428   Zn433   1.952   .     S
O428   C462    1.288   .     S
O429   Zn434   1.952   .     S
O429   C498    1.293   1_455 S
O430   Zn434   1.926   .     S
O431   Zn433   1.926   .     S
C435   O488    1.291   .     A
C435   C460    1.406   .     S
C436   C438    1.459   .     S
C436   O493    1.301   .     A
C436   O553    1.293   .     S
C437   C443    1.389   .     A
C437   C462    1.448   .     S
C438   C444    1.387   .     A
C438   C442    1.401   .     A
C439   C448    1.399   .     A
C440   C442    1.396   .     A
C440   C449    1.406   .     A
C440   H475    1.084   .     S
C441   H473    1.083   .     S
C441   C499    1.402   .     S
C441   C501    1.389   .     S
C442   H534    1.083   .     S
C443   C445    1.396   .     A
C443   H471    1.083   .     S
C444   C447    1.399   .     A
C444   H470    1.080   .     S
C445   C450    1.413   .     A
C445   C448    1.416   .     A
C446   O489    1.293   .     A
C446   C461    1.410   .     S
C446   O549    1.273   .     S
C447   C451    1.419   .     A
C447   C449    1.416   .     A
C448   C1016   1.386   .     S
C449   C1017   1.395   1_554 S
C450   C457    1.427   .     A
C450   C1009   1.411   .     S
C451   C456    1.429   .     A
C451   C1008   1.411   1_554 S
C452   O494    1.219   .     D
C452   O480    1.397   .     S
C452   C456    1.469   .     S
C453   O481    1.224   .     D
C453   C457    1.491   .     S
C453   O482    1.397   .     S
C454   O484    1.397   .     S
C454   C460    1.496   .     S
C454   O111    1.221   1_565 S
C455   C461    1.495   .     S
C455   O486    1.397   .     S
C456   C458    1.393   .     A
C457   C459    1.401   .     A
C458   H463    1.085   .     S
C458   C1006   1.386   1_554 S
C459   H469    1.085   .     S
C459   C1007   1.395   .     S
C460   C27     1.364   1_565 S
C462   O492    1.300   .     A
H464   N478    1.029   .     S
H465   O480    1.012   .     S
H466   O110    1.014   1_565 S
H467   O484    1.013   .     S
H468   O486    1.012   .     S
H474   C501    1.084   .     S
H476   N477    1.029   .     S
N477   N478    1.283   .     D
N477   Zn496   2.019   .     S
N478   Zn495   2.019   .     S
O479   Zn495   1.961   .     S
O479   C497    1.274   .     S
O485   C83     1.224   1_565 S
O487   Zn496   1.961   .     S
O488   Zn496   1.988   .     S
O489   Zn495   1.988   .     S
O490   Zn495   1.952   .     S
O490   C524    1.288   .     S
O491   Zn496   1.952   .     S
O492   Zn496   1.926   .     S
O493   Zn495   1.926   .     S
C497   O550    1.291   .     A
C497   C522    1.406   .     S
C498   C500    1.459   .     S
C498   O555    1.301   .     A
C498   O429    1.293   1_655 S
C499   C505    1.389   .     A
C499   C524    1.448   .     S
C500   C506    1.387   .     A
C500   C504    1.401   .     A
C501   C510    1.399   .     A
C502   C504    1.396   .     A
C502   C511    1.406   .     A
C502   H537    1.084   .     S
C503   H535    1.083   .     S
C503   C375    1.402   1_655 S
C503   C377    1.389   1_655 S
C504   H410    1.083   1_655 S
C505   C507    1.396   .     A
C505   H533    1.083   .     S
C506   C509    1.399   .     A
C506   H532    1.080   .     S
C507   C512    1.413   .     A
C507   C510    1.416   .     A
C508   O551    1.293   .     A
C508   C523    1.410   .     S
C508   O425    1.273   1_655 S
C509   C513    1.419   .     A
C509   C511    1.416   .     A
C510   C1078   1.386   .     S
C511   C1079   1.395   1_554 S
C512   C519    1.427   .     A
C512   C1071   1.411   .     S
C513   C518    1.429   .     A
C513   C1070   1.411   1_554 S
C514   O556    1.219   .     D
C514   O542    1.397   .     S
C514   C518    1.469   .     S
C515   O543    1.224   .     D
C515   C519    1.491   .     S
C515   O544    1.397   .     S
C516   O546    1.397   .     S
C516   C522    1.496   .     S
C516   O173    1.221   1_565 S
C517   C523    1.495   .     S
C517   O548    1.397   .     S
C518   C520    1.393   .     A
C519   C521    1.401   .     A
C520   H525    1.085   .     S
C520   C1068   1.386   1_554 S
C521   H531    1.085   .     S
C521   C1069   1.395   .     S
C522   C89     1.364   1_565 S
C523   C212    1.364   1_655 S
C524   O554    1.300   .     A
H526   N540    1.029   .     S
H527   O542    1.012   .     S
H528   O172    1.014   1_565 S
H529   O546    1.013   .     S
H530   O548    1.012   .     S
H536   C377    1.084   1_655 S
H538   N539    1.029   .     S
N539   N540    1.283   .     D
N539   Zn558   2.019   .     S
N540   Zn557   2.019   .     S
O541   Zn557   1.961   .     S
O541   C373    1.274   1_655 S
O547   C145    1.224   1_565 S
O549   Zn558   1.961   .     S
O550   Zn558   1.988   .     S
O551   Zn557   1.988   .     S
O552   Zn557   1.952   .     S
O552   C400    1.288   1_655 S
O553   Zn558   1.952   .     S
O554   Zn558   1.926   .     S
O555   Zn557   1.926   .     S
C559   O612    1.291   .     A
C559   C584    1.406   .     S
C559   O727    1.274   1_455 S
C560   C562    1.459   .     S
C560   O617    1.301   .     A
C560   O677    1.293   .     S
C561   C567    1.389   .     A
C561   C586    1.448   .     S
C561   C689    1.402   1_455 S
C562   C568    1.387   .     A
C562   C566    1.401   .     A
C563   C572    1.399   .     A
C563   C689    1.389   1_455 S
C563   H722    1.084   1_455 S
C564   C566    1.396   .     A
C564   C573    1.406   .     A
C564   H599    1.084   .     S
C565   H597    1.083   .     S
C565   C623    1.402   .     S
C565   C625    1.389   .     S
C566   H658    1.083   .     S
C567   C569    1.396   .     A
C567   H595    1.083   .     S
C568   C571    1.399   .     A
C568   H594    1.080   .     S
C569   C574    1.413   .     A
C569   C572    1.416   .     A
C570   O613    1.293   .     A
C570   C585    1.410   .     S
C570   O673    1.273   .     S
C571   C575    1.419   .     A
C571   C573    1.416   .     A
C572   C24     1.386   1_556 S
C574   C581    1.427   .     A
C574   C17     1.411   1_556 S
C575   C580    1.429   .     A
C576   O618    1.219   .     D
C576   O604    1.397   .     S
C576   C580    1.469   .     S
C577   O605    1.224   .     D
C577   C581    1.491   .     S
C577   O606    1.397   .     S
C578   O608    1.397   .     S
C578   C584    1.496   .     S
C578   O793    1.221   .     S
C579   C585    1.495   .     S
C579   O610    1.397   .     S
C579   O981    1.224   1_545 S
C580   C582    1.393   .     A
C581   C583    1.401   .     A
C582   H587    1.085   .     S
C583   H593    1.085   .     S
C583   C15     1.395   1_556 S
C584   C895    1.364   1_455 S
C585   C1018   1.364   1_545 S
C586   O616    1.300   .     A
C586   O738    1.288   1_455 S
H588   N602    1.029   .     S
H589   O604    1.012   .     S
H590   O792    1.014   .     S
H591   O608    1.013   .     S
H592   O610    1.012   .     S
H596   C690    1.083   1_455 S
H598   C625    1.084   .     S
H600   N601    1.029   .     S
N601   N602    1.283   .     D
N601   Zn620   2.019   .     S
N602   Zn619   2.019   .     S
O603   Zn619   1.961   .     S
O603   C621    1.274   .     S
O606   H962    1.014   1_545 S
O607   C950    1.221   1_545 S
O609   C765    1.224   .     S
O611   Zn620   1.961   .     S
O611   C694    1.273   1_455 S
O612   Zn620   1.988   .     S
O613   Zn619   1.988   .     S
O614   Zn619   1.952   .     S
O614   C648    1.288   .     S
O615   Zn620   1.952   .     S
O615   C684    1.293   1_455 S
O616   Zn620   1.926   .     S
O617   Zn619   1.926   .     S
C621   O674    1.291   .     A
C621   C646    1.406   .     S
C622   C624    1.459   .     S
C622   O679    1.301   .     A
C622   O739    1.293   .     S
C623   C629    1.389   .     A
C623   C648    1.448   .     S
C624   C630    1.387   .     A
C624   C628    1.401   .     A
C625   C634    1.399   .     A
C626   C628    1.396   .     A
C626   C635    1.406   .     A
C626   H661    1.084   .     S
C627   H659    1.083   .     S
C627   C685    1.402   .     S
C627   C687    1.389   .     S
C628   H720    1.083   .     S
C629   C631    1.396   .     A
C629   H657    1.083   .     S
C630   C633    1.399   .     A
C630   H656    1.080   .     S
C631   C636    1.413   .     A
C631   C634    1.416   .     A
C632   O675    1.293   .     A
C632   C647    1.410   .     S
C632   O735    1.273   .     S
C633   C637    1.419   .     A
C633   C635    1.416   .     A
C634   C86     1.386   1_556 S
C636   C643    1.427   .     A
C636   C79     1.411   1_556 S
C637   C642    1.429   .     A
C638   O680    1.219   .     D
C638   O666    1.397   .     S
C638   C642    1.469   .     S
C639   O667    1.224   .     D
C639   C643    1.491   .     S
C639   O668    1.397   .     S
C640   O670    1.397   .     S
C640   C646    1.496   .     S
C640   O855    1.221   .     S
C641   C647    1.495   .     S
C641   O672    1.397   .     S
C641   O1043   1.224   1_545 S
C642   C644    1.393   .     A
C643   C645    1.401   .     A
C644   H649    1.085   .     S
C645   H655    1.085   .     S
C645   C77     1.395   1_556 S
C646   C771    1.364   .     S
C647   C1080   1.364   1_545 S
C648   O678    1.300   .     A
H650   N664    1.029   .     S
H651   O666    1.012   .     S
H652   O854    1.014   .     S
H653   O670    1.013   .     S
H654   O672    1.012   .     S
H660   C687    1.084   .     S
H662   N663    1.029   .     S
N663   N664    1.283   .     D
N663   Zn682   2.019   .     S
N664   Zn681   2.019   .     S
O665   Zn681   1.961   .     S
O665   C683    1.274   .     S
O668   H1024   1.014   1_545 S
O669   C1012   1.221   1_545 S
O671   C827    1.224   .     S
O673   Zn682   1.961   .     S
O674   Zn682   1.988   .     S
O675   Zn681   1.988   .     S
O676   Zn681   1.952   .     S
O676   C710    1.288   .     S
O677   Zn682   1.952   .     S
O678   Zn682   1.926   .     S
O679   Zn681   1.926   .     S
C683   O736    1.291   .     A
C683   C708    1.406   .     S
C684   C686    1.459   .     S
C684   O741    1.301   .     A
C684   O615    1.293   1_655 S
C685   C691    1.389   .     A
C685   C710    1.448   .     S
C686   C692    1.387   .     A
C686   C690    1.401   .     A
C687   C696    1.399   .     A
C688   C690    1.396   .     A
C688   C697    1.406   .     A
C688   H723    1.084   .     S
C689   H721    1.083   .     S
C689   C561    1.402   1_655 S
C689   C563    1.389   1_655 S
C690   H596    1.083   1_655 S
C691   C693    1.396   .     A
C691   H719    1.083   .     S
C692   C695    1.399   .     A
C692   H718    1.080   .     S
C693   C698    1.413   .     A
C693   C696    1.416   .     A
C694   O737    1.293   .     A
C694   C709    1.410   .     S
C694   O611    1.273   1_655 S
C695   C699    1.419   .     A
C695   C697    1.416   .     A
C696   C148    1.386   1_556 S
C698   C705    1.427   .     A
C698   C141    1.411   1_556 S
C699   C704    1.429   .     A
C700   O742    1.219   .     D
C700   O728    1.397   .     S
C700   C704    1.469   .     S
C701   O729    1.224   .     D
C701   C705    1.491   .     S
C701   O730    1.397   .     S
C702   O732    1.397   .     S
C702   C708    1.496   .     S
C702   O917    1.221   .     S
C703   C709    1.495   .     S
C703   O734    1.397   .     S
C703   O1105   1.224   1_545 S
C704   C706    1.393   .     A
C705   C707    1.401   .     A
C706   H711    1.085   .     S
C707   H717    1.085   .     S
C707   C139    1.395   1_556 S
C708   C833    1.364   .     S
C709   C956    1.364   1_645 S
C710   O740    1.300   .     A
H712   N726    1.029   .     S
H713   O728    1.012   .     S
H714   O916    1.014   .     S
H715   O732    1.013   .     S
H716   O734    1.012   .     S
H722   C563    1.084   1_655 S
H724   N725    1.029   .     S
N725   N726    1.283   .     D
N725   Zn744   2.019   .     S
N726   Zn743   2.019   .     S
O727   Zn743   1.961   .     S
O727   C559    1.274   1_655 S
O730   H1086   1.014   1_545 S
O731   C1074   1.221   1_545 S
O733   C889    1.224   .     S
O735   Zn744   1.961   .     S
O736   Zn744   1.988   .     S
O737   Zn743   1.988   .     S
O738   Zn743   1.952   .     S
O738   C586    1.288   1_655 S
O739   Zn744   1.952   .     S
O740   Zn744   1.926   .     S
O741   Zn743   1.926   .     S
C745   O798    1.291   .     A
C745   C770    1.406   .     S
C745   O913    1.274   1_455 S
C746   C748    1.459   .     S
C746   O803    1.301   .     A
C746   O863    1.293   .     S
C747   C753    1.389   .     A
C747   C772    1.448   .     S
C747   C875    1.402   1_455 S
C748   C754    1.387   .     A
C748   C752    1.401   .     A
C749   C758    1.399   .     A
C749   C875    1.389   1_455 S
C749   H908    1.084   1_455 S
C750   C752    1.396   .     A
C750   C759    1.406   .     A
C750   H785    1.084   .     S
C751   H783    1.083   .     S
C751   C809    1.402   .     S
C751   C811    1.389   .     S
C752   H844    1.083   .     S
C753   C755    1.396   .     A
C753   H781    1.083   .     S
C754   C757    1.399   .     A
C754   H780    1.080   .     S
C755   C760    1.413   .     A
C755   C758    1.416   .     A
C756   O799    1.293   .     A
C756   C771    1.410   .     S
C756   O859    1.273   .     S
C757   C761    1.419   .     A
C757   C759    1.416   .     A
C758   C210    1.386   1_556 S
C760   C767    1.427   .     A
C760   C203    1.411   1_556 S
C761   C766    1.429   .     A
C762   O804    1.219   .     D
C762   O790    1.397   .     S
C762   C766    1.469   .     S
C763   O791    1.224   .     D
C763   C767    1.491   .     S
C763   O792    1.397   .     S
C764   O794    1.397   .     S
C764   C770    1.496   .     S
C764   O979    1.221   .     S
C765   C771    1.495   .     S
C765   O796    1.397   .     S
C766   C768    1.393   .     A
C767   C769    1.401   .     A
C768   H773    1.085   .     S
C769   H779    1.085   .     S
C769   C201    1.395   1_556 S
C770   C1081   1.364   1_455 S
C772   O802    1.300   .     A
C772   O924    1.288   1_455 S
H774   N788    1.029   .     S
H775   O790    1.012   .     S
H776   O978    1.014   .     S
H777   O794    1.013   .     S
H778   O796    1.012   .     S
H782   C876    1.083   1_455 S
H784   C811    1.084   .     S
H786   N787    1.029   .     S
N787   N788    1.283   .     D
N787   Zn806   2.019   .     S
N788   Zn805   2.019   .     S
O789   Zn805   1.961   .     S
O789   C807    1.274   .     S
O795   C951    1.224   .     S
O797   Zn806   1.961   .     S
O797   C880    1.273   1_455 S
O798   Zn806   1.988   .     S
O799   Zn805   1.988   .     S
O800   Zn805   1.952   .     S
O800   C834    1.288   .     S
O801   Zn806   1.952   .     S
O801   C870    1.293   1_455 S
O802   Zn806   1.926   .     S
O803   Zn805   1.926   .     S
C807   O860    1.291   .     A
C807   C832    1.406   .     S
C808   C810    1.459   .     S
C808   O865    1.301   .     A
C808   O925    1.293   .     S
C809   C815    1.389   .     A
C809   C834    1.448   .     S
C810   C816    1.387   .     A
C810   C814    1.401   .     A
C811   C820    1.399   .     A
C812   C814    1.396   .     A
C812   C821    1.406   .     A
C812   H847    1.084   .     S
C813   H845    1.083   .     S
C813   C871    1.402   .     S
C813   C873    1.389   .     S
C814   H906    1.083   .     S
C815   C817    1.396   .     A
C815   H843    1.083   .     S
C816   C819    1.399   .     A
C816   H842    1.080   .     S
C817   C822    1.413   .     A
C817   C820    1.416   .     A
C818   O861    1.293   .     A
C818   C833    1.410   .     S
C818   O921    1.273   .     S
C819   C823    1.419   .     A
C819   C821    1.416   .     A
C820   C272    1.386   1_556 S
C822   C829    1.427   .     A
C822   C265    1.411   1_556 S
C823   C828    1.429   .     A
C824   O866    1.219   .     D
C824   O852    1.397   .     S
C824   C828    1.469   .     S
C825   O853    1.224   .     D
C825   C829    1.491   .     S
C825   O854    1.397   .     S
C826   O856    1.397   .     S
C826   C832    1.496   .     S
C826   O1041   1.221   .     S
C827   C833    1.495   .     S
C827   O858    1.397   .     S
C828   C830    1.393   .     A
C829   C831    1.401   .     A
C830   H835    1.085   .     S
C831   H841    1.085   .     S
C831   C263    1.395   1_556 S
C832   C957    1.364   .     S
C834   O864    1.300   .     A
H836   N850    1.029   .     S
H837   O852    1.012   .     S
H838   O1040   1.014   .     S
H839   O856    1.013   .     S
H840   O858    1.012   .     S
H846   C873    1.084   .     S
H848   N849    1.029   .     S
N849   N850    1.283   .     D
N849   Zn868   2.019   .     S
N850   Zn867   2.019   .     S
O851   Zn867   1.961   .     S
O851   C869    1.274   .     S
O857   C1013   1.224   .     S
O859   Zn868   1.961   .     S
O860   Zn868   1.988   .     S
O861   Zn867   1.988   .     S
O862   Zn867   1.952   .     S
O862   C896    1.288   .     S
O863   Zn868   1.952   .     S
O864   Zn868   1.926   .     S
O865   Zn867   1.926   .     S
C869   O922    1.291   .     A
C869   C894    1.406   .     S
C870   C872    1.459   .     S
C870   O927    1.301   .     A
C870   O801    1.293   1_655 S
C871   C877    1.389   .     A
C871   C896    1.448   .     S
C872   C878    1.387   .     A
C872   C876    1.401   .     A
C873   C882    1.399   .     A
C874   C876    1.396   .     A
C874   C883    1.406   .     A
C874   H909    1.084   .     S
C875   H907    1.083   .     S
C875   C747    1.402   1_655 S
C875   C749    1.389   1_655 S
C876   H782    1.083   1_655 S
C877   C879    1.396   .     A
C877   H905    1.083   .     S
C878   C881    1.399   .     A
C878   H904    1.080   .     S
C879   C884    1.413   .     A
C879   C882    1.416   .     A
C880   O923    1.293   .     A
C880   C895    1.410   .     S
C880   O797    1.273   1_655 S
C881   C885    1.419   .     A
C881   C883    1.416   .     A
C882   C334    1.386   1_556 S
C884   C891    1.427   .     A
C884   C327    1.411   1_556 S
C885   C890    1.429   .     A
C886   O928    1.219   .     D
C886   O914    1.397   .     S
C886   C890    1.469   .     S
C887   O915    1.224   .     D
C887   C891    1.491   .     S
C887   O916    1.397   .     S
C888   O918    1.397   .     S
C888   C894    1.496   .     S
C888   O1103   1.221   .     S
C889   C895    1.495   .     S
C889   O920    1.397   .     S
C890   C892    1.393   .     A
C891   C893    1.401   .     A
C892   H897    1.085   .     S
C893   H903    1.085   .     S
C893   C325    1.395   1_556 S
C894   C1019   1.364   .     S
C895   C584    1.364   1_655 S
C896   O926    1.300   .     A
H898   N912    1.029   .     S
H899   O914    1.012   .     S
H900   O1102   1.014   .     S
H901   O918    1.013   .     S
H902   O920    1.012   .     S
H908   C749    1.084   1_655 S
H910   N911    1.029   .     S
N911   N912    1.283   .     D
N911   Zn930   2.019   .     S
N912   Zn929   2.019   .     S
O913   Zn929   1.961   .     S
O913   C745    1.274   1_655 S
O919   C1075   1.224   .     S
O921   Zn930   1.961   .     S
O922   Zn930   1.988   .     S
O923   Zn929   1.988   .     S
O924   Zn929   1.952   .     S
O924   C772    1.288   1_655 S
O925   Zn930   1.952   .     S
O926   Zn930   1.926   .     S
O927   Zn929   1.926   .     S
C931   O984    1.291   .     A
C931   C956    1.406   .     S
C931   O1099   1.274   1_455 S
C932   C934    1.459   .     S
C932   O989    1.301   .     A
C932   O1049   1.293   .     S
C933   C939    1.389   .     A
C933   C958    1.448   .     S
C933   C1061   1.402   1_455 S
C934   C940    1.387   .     A
C934   C938    1.401   .     A
C935   C944    1.399   .     A
C935   C1061   1.389   1_455 S
C935   H1094   1.084   1_455 S
C936   C938    1.396   .     A
C936   C945    1.406   .     A
C936   H971    1.084   .     S
C937   H969    1.083   .     S
C937   C995    1.402   .     S
C937   C997    1.389   .     S
C938   H1030   1.083   .     S
C939   C941    1.396   .     A
C939   H967    1.083   .     S
C940   C943    1.399   .     A
C940   H966    1.080   .     S
C941   C946    1.413   .     A
C941   C944    1.416   .     A
C942   O985    1.293   .     A
C942   C957    1.410   .     S
C942   O1045   1.273   .     S
C943   C947    1.419   .     A
C943   C945    1.416   .     A
C944   C396    1.386   1_556 S
C946   C953    1.427   .     A
C946   C389    1.411   1_556 S
C947   C952    1.429   .     A
C948   O990    1.219   .     D
C948   O976    1.397   .     S
C948   C952    1.469   .     S
C949   O977    1.224   .     D
C949   C953    1.491   .     S
C949   O978    1.397   .     S
C950   O980    1.397   .     S
C950   C956    1.496   .     S
C950   O607    1.221   1_565 S
C951   C957    1.495   .     S
C951   O982    1.397   .     S
C952   C954    1.393   .     A
C953   C955    1.401   .     A
C954   H959    1.085   .     S
C955   H965    1.085   .     S
C955   C387    1.395   1_556 S
C956   C709    1.364   1_465 S
C958   O988    1.300   .     A
C958   O1110   1.288   1_455 S
H960   N974    1.029   .     S
H961   O976    1.012   .     S
H962   O606    1.014   1_565 S
H963   O980    1.013   .     S
H964   O982    1.012   .     S
H968   C1062   1.083   1_455 S
H970   C997    1.084   .     S
H972   N973    1.029   .     S
N973   N974    1.283   .     D
N973   Zn992   2.019   .     S
N974   Zn991   2.019   .     S
O975   Zn991   1.961   .     S
O975   C993    1.274   .     S
O981   C579    1.224   1_565 S
O983   Zn992   1.961   .     S
O983   C1066   1.273   1_455 S
O984   Zn992   1.988   .     S
O985   Zn991   1.988   .     S
O986   Zn991   1.952   .     S
O986   C1020   1.288   .     S
O987   Zn992   1.952   .     S
O987   C1056   1.293   1_455 S
O988   Zn992   1.926   .     S
O989   Zn991   1.926   .     S
C993   O1046   1.291   .     A
C993   C1018   1.406   .     S
C994   C996    1.459   .     S
C994   O1051   1.301   .     A
C994   O1111   1.293   .     S
C995   C1001   1.389   .     A
C995   C1020   1.448   .     S
C996   C1002   1.387   .     A
C996   C1000   1.401   .     A
C997   C1006   1.399   .     A
C998   C1000   1.396   .     A
C998   C1007   1.406   .     A
C998   H1033   1.084   .     S
C999   H1031   1.083   .     S
C999   C1057   1.402   .     S
C999   C1059   1.389   .     S
C1000  H1092   1.083   .     S
C1001  C1003   1.396   .     A
C1001  H1029   1.083   .     S
C1002  C1005   1.399   .     A
C1002  H1028   1.080   .     S
C1003  C1008   1.413   .     A
C1003  C1006   1.416   .     A
C1004  O1047   1.293   .     A
C1004  C1019   1.410   .     S
C1004  O1107   1.273   .     S
C1005  C1009   1.419   .     A
C1005  C1007   1.416   .     A
C1006  C458    1.386   1_556 S
C1008  C1015   1.427   .     A
C1008  C451    1.411   1_556 S
C1009  C1014   1.429   .     A
C1010  O1052   1.219   .     D
C1010  O1038   1.397   .     S
C1010  C1014   1.469   .     S
C1011  O1039   1.224   .     D
C1011  C1015   1.491   .     S
C1011  O1040   1.397   .     S
C1012  O1042   1.397   .     S
C1012  C1018   1.496   .     S
C1012  O669    1.221   1_565 S
C1013  C1019   1.495   .     S
C1013  O1044   1.397   .     S
C1014  C1016   1.393   .     A
C1015  C1017   1.401   .     A
C1016  H1021   1.085   .     S
C1017  H1027   1.085   .     S
C1017  C449    1.395   1_556 S
C1018  C585    1.364   1_565 S
C1020  O1050   1.300   .     A
H1022  N1036   1.029   .     S
H1023  O1038   1.012   .     S
H1024  O668    1.014   1_565 S
H1025  O1042   1.013   .     S
H1026  O1044   1.012   .     S
H1032  C1059   1.084   .     S
H1034  N1035   1.029   .     S
N1035  N1036   1.283   .     D
N1035  Zn1054  2.019   .     S
N1036  Zn1053  2.019   .     S
O1037  Zn1053  1.961   .     S
O1037  C1055   1.274   .     S
O1043  C641    1.224   1_565 S
O1045  Zn1054  1.961   .     S
O1046  Zn1054  1.988   .     S
O1047  Zn1053  1.988   .     S
O1048  Zn1053  1.952   .     S
O1048  C1082   1.288   .     S
O1049  Zn1054  1.952   .     S
O1050  Zn1054  1.926   .     S
O1051  Zn1053  1.926   .     S
C1055  O1108   1.291   .     A
C1055  C1080   1.406   .     S
C1056  C1058   1.459   .     S
C1056  O1113   1.301   .     A
C1056  O987    1.293   1_655 S
C1057  C1063   1.389   .     A
C1057  C1082   1.448   .     S
C1058  C1064   1.387   .     A
C1058  C1062   1.401   .     A
C1059  C1068   1.399   .     A
C1060  C1062   1.396   .     A
C1060  C1069   1.406   .     A
C1060  H1095   1.084   .     S
C1061  H1093   1.083   .     S
C1061  C933    1.402   1_655 S
C1061  C935    1.389   1_655 S
C1062  H968    1.083   1_655 S
C1063  C1065   1.396   .     A
C1063  H1091   1.083   .     S
C1064  C1067   1.399   .     A
C1064  H1090   1.080   .     S
C1065  C1070   1.413   .     A
C1065  C1068   1.416   .     A
C1066  O1109   1.293   .     A
C1066  C1081   1.410   .     S
C1066  O983    1.273   1_655 S
C1067  C1071   1.419   .     A
C1067  C1069   1.416   .     A
C1068  C520    1.386   1_556 S
C1070  C1077   1.427   .     A
C1070  C513    1.411   1_556 S
C1071  C1076   1.429   .     A
C1072  O1114   1.219   .     D
C1072  O1100   1.397   .     S
C1072  C1076   1.469   .     S
C1073  O1101   1.224   .     D
C1073  C1077   1.491   .     S
C1073  O1102   1.397   .     S
C1074  O1104   1.397   .     S
C1074  C1080   1.496   .     S
C1074  O731    1.221   1_565 S
C1075  C1081   1.495   .     S
C1075  O1106   1.397   .     S
C1076  C1078   1.393   .     A
C1077  C1079   1.401   .     A
C1078  H1083   1.085   .     S
C1079  H1089   1.085   .     S
C1079  C511    1.395   1_556 S
C1080  C647    1.364   1_565 S
C1081  C770    1.364   1_655 S
C1082  O1112   1.300   .     A
H1084  N1098   1.029   .     S
H1085  O1100   1.012   .     S
H1086  O730    1.014   1_565 S
H1087  O1104   1.013   .     S
H1088  O1106   1.012   .     S
H1094  C935    1.084   1_655 S
H1096  N1097   1.029   .     S
N1097  N1098   1.283   .     D
N1097  Zn1116  2.019   .     S
N1098  Zn1115  2.019   .     S
O1099  Zn1115  1.961   .     S
O1099  C931    1.274   1_655 S
O1105  C703    1.224   1_565 S
O1107  Zn1116  1.961   .     S
O1108  Zn1116  1.988   .     S
O1109  Zn1115  1.988   .     S
O1110  Zn1115  1.952   .     S
O1110  C958    1.288   1_655 S
O1111  Zn1116  1.952   .     S
O1112  Zn1116  1.926   .     S
O1113  Zn1115  1.926   .     S
