data_str_m3_o1_o2_pcu_sym.123
_audit_creation_date              2020-01-03
_audit_creation_method            'Materials Studio'
_symmetry_space_group_name_H-M    'P1'
_symmetry_Int_Tables_number       1
_symmetry_cell_setting            triclinic
loop_
_symmetry_equiv_pos_as_xyz
  x,y,z
_cell_length_a                    31.8905
_cell_length_b                    29.8442
_cell_length_c                    30.0701
_cell_angle_alpha                 90.0011
_cell_angle_beta                  93.4216
_cell_angle_gamma                 89.9996
loop_
_atom_site_label
_atom_site_type_symbol
_atom_site_fract_x
_atom_site_fract_y
_atom_site_fract_z
_atom_site_U_iso_or_equiv
_atom_site_adp_type
_atom_site_occupancy
C1     C     0.08710   0.16669   0.25544   0.00000  Uiso   1.00
C2     C     0.24623   0.16669   0.24456   0.00000  Uiso   1.00
C3     C     0.16696   0.16672   0.16404   0.00000  Uiso   1.00
C4     C     0.16638   0.16672   0.33596   0.00000  Uiso   1.00
C5     C     0.19356   0.02387   0.27871   0.00000  Uiso   1.00
C6     C     0.14015   0.30939   0.22089   0.00000  Uiso   1.00
C7     C     0.13977   0.02387   0.22129   0.00000  Uiso   1.00
C8     C     0.19318   0.30939   0.27911   0.00000  Uiso   1.00
C9     C     0.02069   0.12597   0.25815   0.00000  Uiso   1.00
C10    C     0.31258   0.20776   0.24201   0.00000  Uiso   1.00
C11    C     0.31265   0.12597   0.24186   0.00000  Uiso   1.00
C12    C     0.02075   0.20776   0.25799   0.00000  Uiso   1.00
C13    C     0.18013   0.20619   0.04829   0.00000  Uiso   1.00
C14    C     0.17945   0.12967   0.45389   0.00000  Uiso   1.00
C15    C     0.15333   0.20622   0.45173   0.00000  Uiso   1.00
C16    C     0.15387   0.12969   0.04610   0.00000  Uiso   1.00
C17    C     0.18013   0.20578   0.09426   0.00000  Uiso   1.00
C18    C     0.17824   0.12885   0.40803   0.00000  Uiso   1.00
C19    C     0.15331   0.20581   0.40576   0.00000  Uiso   1.00
C20    C     0.15506   0.12887   0.09196   0.00000  Uiso   1.00
C21    C     0.16753   0.16706   0.11615   0.00000  Uiso   1.00
C22    C     0.16583   0.16706   0.38386   0.00000  Uiso   1.00
C23    C     0.16673   0.16819   0.02410   0.00000  Uiso   1.00
C24    C     0.16667   0.16819   0.47591   0.00000  Uiso   1.00
C25    C     0.29088   0.16682   0.23897   0.00000  Uiso   1.00
C26    C     0.04246   0.16682   0.26103   0.00000  Uiso   1.00
H27    H     0.19095   0.23590   0.03175   0.00000  Uiso   1.00
H28    H     0.19054   0.10023   0.47209   0.00000  Uiso   1.00
H29    H     0.14257   0.23596   0.46828   0.00000  Uiso   1.00
H30    H     0.14273   0.10028   0.02790   0.00000  Uiso   1.00
H31    H     0.19044   0.23543   0.11262   0.00000  Uiso   1.00
H32    H     0.18750   0.09852   0.39175   0.00000  Uiso   1.00
H33    H     0.14304   0.23548   0.38740   0.00000  Uiso   1.00
H34    H     0.14573   0.09857   0.10824   0.00000  Uiso   1.00
N35    N     0.16667   0.28573   0.25000   0.00000  Uiso   1.00
N36    N     0.16667   0.04760   0.25000   0.00000  Uiso   1.00
O37    O     0.10559   0.20487   0.24999   0.00000  Uiso   1.00
O38    O     0.22774   0.12846   0.25001   0.00000  Uiso   1.00
O39    O     0.22774   0.20487   0.25001   0.00000  Uiso   1.00
O40    O     0.10559   0.12846   0.24999   0.00000  Uiso   1.00
O41    O     0.16666   0.20489   0.18453   0.00000  Uiso   1.00
O42    O     0.16667   0.12845   0.31547   0.00000  Uiso   1.00
O43    O     0.16667   0.20489   0.31547   0.00000  Uiso   1.00
O44    O     0.16666   0.12845   0.18453   0.00000  Uiso   1.00
Zn45   Zn    0.16667   0.21771   0.25000   0.00000  Uiso   1.00
Zn46   Zn    0.16667   0.11563   0.25000   0.00000  Uiso   1.00
I47    I     0.23732   0.05816   0.32324   0.00000  Uiso   1.00
I48    I     0.09880   0.27477   0.17389   0.00000  Uiso   1.00
I49    I     0.09601   0.05815   0.17676   0.00000  Uiso   1.00
I50    I     0.23453   0.27478   0.32611   0.00000  Uiso   1.00
I51    I     0.04484   0.06667   0.29052   0.00000  Uiso   1.00
I52    I     0.28781   0.26756   0.21096   0.00000  Uiso   1.00
I53    I     0.28850   0.06666   0.20950   0.00000  Uiso   1.00
I54    I     0.04552   0.26756   0.28902   0.00000  Uiso   1.00
C55    C     0.42044   0.16669   0.25544   0.00000  Uiso   1.00
C56    C     0.57956   0.16669   0.24456   0.00000  Uiso   1.00
C57    C     0.50029   0.16672   0.16404   0.00000  Uiso   1.00
C58    C     0.49971   0.16672   0.33596   0.00000  Uiso   1.00
C59    C     0.52690   0.02387   0.27871   0.00000  Uiso   1.00
C60    C     0.47349   0.30939   0.22089   0.00000  Uiso   1.00
C61    C     0.47310   0.02387   0.22129   0.00000  Uiso   1.00
C62    C     0.52651   0.30939   0.27911   0.00000  Uiso   1.00
C63    C     0.35402   0.12597   0.25815   0.00000  Uiso   1.00
C64    C     0.64592   0.20776   0.24201   0.00000  Uiso   1.00
C65    C     0.64598   0.12597   0.24186   0.00000  Uiso   1.00
C66    C     0.35408   0.20776   0.25799   0.00000  Uiso   1.00
C67    C     0.51346   0.20619   0.04829   0.00000  Uiso   1.00
C68    C     0.51278   0.12967   0.45389   0.00000  Uiso   1.00
C69    C     0.48666   0.20622   0.45173   0.00000  Uiso   1.00
C70    C     0.48720   0.12969   0.04610   0.00000  Uiso   1.00
C71    C     0.51346   0.20578   0.09426   0.00000  Uiso   1.00
C72    C     0.51157   0.12885   0.40803   0.00000  Uiso   1.00
C73    C     0.48664   0.20581   0.40576   0.00000  Uiso   1.00
C74    C     0.48840   0.12887   0.09196   0.00000  Uiso   1.00
C75    C     0.50086   0.16706   0.11615   0.00000  Uiso   1.00
C76    C     0.49916   0.16706   0.38386   0.00000  Uiso   1.00
C77    C     0.50006   0.16819   0.02410   0.00000  Uiso   1.00
C78    C     0.50000   0.16819   0.47591   0.00000  Uiso   1.00
C79    C     0.62421   0.16682   0.23897   0.00000  Uiso   1.00
C80    C     0.37579   0.16682   0.26103   0.00000  Uiso   1.00
H81    H     0.52428   0.23590   0.03175   0.00000  Uiso   1.00
H82    H     0.52388   0.10023   0.47209   0.00000  Uiso   1.00
H83    H     0.47590   0.23596   0.46828   0.00000  Uiso   1.00
H84    H     0.47606   0.10028   0.02790   0.00000  Uiso   1.00
H85    H     0.52377   0.23543   0.11262   0.00000  Uiso   1.00
H86    H     0.52084   0.09852   0.39175   0.00000  Uiso   1.00
H87    H     0.47638   0.23548   0.38740   0.00000  Uiso   1.00
H88    H     0.47906   0.09857   0.10824   0.00000  Uiso   1.00
N89    N     0.50000   0.28573   0.25000   0.00000  Uiso   1.00
N90    N     0.50000   0.04760   0.25000   0.00000  Uiso   1.00
O91    O     0.43892   0.20487   0.24999   0.00000  Uiso   1.00
O92    O     0.56108   0.12846   0.25001   0.00000  Uiso   1.00
O93    O     0.56108   0.20487   0.25001   0.00000  Uiso   1.00
O94    O     0.43892   0.12846   0.24999   0.00000  Uiso   1.00
O95    O     0.50000   0.20489   0.18453   0.00000  Uiso   1.00
O96    O     0.50000   0.12845   0.31547   0.00000  Uiso   1.00
O97    O     0.50000   0.20489   0.31547   0.00000  Uiso   1.00
O98    O     0.50000   0.12845   0.18453   0.00000  Uiso   1.00
Zn99   Zn    0.50000   0.21771   0.25000   0.00000  Uiso   1.00
Zn100  Zn    0.50000   0.11563   0.25000   0.00000  Uiso   1.00
I101   I     0.57065   0.05816   0.32324   0.00000  Uiso   1.00
I102   I     0.43213   0.27477   0.17389   0.00000  Uiso   1.00
I103   I     0.42934   0.05815   0.17676   0.00000  Uiso   1.00
I104   I     0.56787   0.27478   0.32611   0.00000  Uiso   1.00
I105   I     0.37817   0.06667   0.29052   0.00000  Uiso   1.00
I106   I     0.62114   0.26756   0.21096   0.00000  Uiso   1.00
I107   I     0.62183   0.06666   0.20950   0.00000  Uiso   1.00
I108   I     0.37885   0.26756   0.28902   0.00000  Uiso   1.00
C109   C     0.75377   0.16669   0.25544   0.00000  Uiso   1.00
C110   C     0.91290   0.16669   0.24456   0.00000  Uiso   1.00
C111   C     0.83363   0.16672   0.16404   0.00000  Uiso   1.00
C112   C     0.83304   0.16672   0.33596   0.00000  Uiso   1.00
C113   C     0.86023   0.02387   0.27871   0.00000  Uiso   1.00
C114   C     0.80682   0.30939   0.22089   0.00000  Uiso   1.00
C115   C     0.80644   0.02387   0.22129   0.00000  Uiso   1.00
C116   C     0.85985   0.30939   0.27911   0.00000  Uiso   1.00
C117   C     0.68735   0.12597   0.25815   0.00000  Uiso   1.00
C118   C     0.97925   0.20776   0.24201   0.00000  Uiso   1.00
C119   C     0.97931   0.12597   0.24186   0.00000  Uiso   1.00
C120   C     0.68742   0.20776   0.25799   0.00000  Uiso   1.00
C121   C     0.84679   0.20619   0.04829   0.00000  Uiso   1.00
C122   C     0.84612   0.12967   0.45389   0.00000  Uiso   1.00
C123   C     0.82000   0.20622   0.45173   0.00000  Uiso   1.00
C124   C     0.82054   0.12969   0.04610   0.00000  Uiso   1.00
C125   C     0.84679   0.20578   0.09426   0.00000  Uiso   1.00
C126   C     0.84490   0.12885   0.40803   0.00000  Uiso   1.00
C127   C     0.81998   0.20581   0.40576   0.00000  Uiso   1.00
C128   C     0.82173   0.12887   0.09196   0.00000  Uiso   1.00
C129   C     0.83420   0.16706   0.11615   0.00000  Uiso   1.00
C130   C     0.83249   0.16706   0.38386   0.00000  Uiso   1.00
C131   C     0.83340   0.16819   0.02410   0.00000  Uiso   1.00
C132   C     0.83333   0.16819   0.47591   0.00000  Uiso   1.00
C133   C     0.95754   0.16682   0.23897   0.00000  Uiso   1.00
C134   C     0.70912   0.16682   0.26103   0.00000  Uiso   1.00
H135   H     0.85761   0.23590   0.03175   0.00000  Uiso   1.00
H136   H     0.85721   0.10023   0.47209   0.00000  Uiso   1.00
H137   H     0.80924   0.23596   0.46828   0.00000  Uiso   1.00
H138   H     0.80939   0.10028   0.02790   0.00000  Uiso   1.00
H139   H     0.85710   0.23543   0.11262   0.00000  Uiso   1.00
H140   H     0.85417   0.09852   0.39175   0.00000  Uiso   1.00
H141   H     0.80971   0.23548   0.38740   0.00000  Uiso   1.00
H142   H     0.81240   0.09857   0.10824   0.00000  Uiso   1.00
N143   N     0.83333   0.28573   0.25000   0.00000  Uiso   1.00
N144   N     0.83333   0.04760   0.25000   0.00000  Uiso   1.00
O145   O     0.77226   0.20487   0.24999   0.00000  Uiso   1.00
O146   O     0.89441   0.12846   0.25001   0.00000  Uiso   1.00
O147   O     0.89441   0.20487   0.25001   0.00000  Uiso   1.00
O148   O     0.77226   0.12846   0.24999   0.00000  Uiso   1.00
O149   O     0.83333   0.20489   0.18453   0.00000  Uiso   1.00
O150   O     0.83334   0.12845   0.31547   0.00000  Uiso   1.00
O151   O     0.83334   0.20489   0.31547   0.00000  Uiso   1.00
O152   O     0.83333   0.12845   0.18453   0.00000  Uiso   1.00
Zn153  Zn    0.83333   0.21771   0.25000   0.00000  Uiso   1.00
Zn154  Zn    0.83333   0.11563   0.25000   0.00000  Uiso   1.00
I155   I     0.90399   0.05816   0.32324   0.00000  Uiso   1.00
I156   I     0.76547   0.27477   0.17389   0.00000  Uiso   1.00
I157   I     0.76267   0.05815   0.17676   0.00000  Uiso   1.00
I158   I     0.90120   0.27478   0.32611   0.00000  Uiso   1.00
I159   I     0.71151   0.06667   0.29052   0.00000  Uiso   1.00
I160   I     0.95448   0.26756   0.21096   0.00000  Uiso   1.00
I161   I     0.95516   0.06666   0.20950   0.00000  Uiso   1.00
I162   I     0.71219   0.26756   0.28902   0.00000  Uiso   1.00
C163   C     0.08710   0.50003   0.25544   0.00000  Uiso   1.00
C164   C     0.24623   0.50003   0.24456   0.00000  Uiso   1.00
C165   C     0.16696   0.50005   0.16404   0.00000  Uiso   1.00
C166   C     0.16638   0.50005   0.33596   0.00000  Uiso   1.00
C167   C     0.19356   0.35720   0.27871   0.00000  Uiso   1.00
C168   C     0.14015   0.64272   0.22089   0.00000  Uiso   1.00
C169   C     0.13977   0.35720   0.22129   0.00000  Uiso   1.00
C170   C     0.19318   0.64272   0.27911   0.00000  Uiso   1.00
C171   C     0.02069   0.45930   0.25815   0.00000  Uiso   1.00
C172   C     0.31258   0.54109   0.24201   0.00000  Uiso   1.00
C173   C     0.31265   0.45930   0.24186   0.00000  Uiso   1.00
C174   C     0.02075   0.54109   0.25799   0.00000  Uiso   1.00
C175   C     0.18013   0.53953   0.04829   0.00000  Uiso   1.00
C176   C     0.17945   0.46300   0.45389   0.00000  Uiso   1.00
C177   C     0.15333   0.53956   0.45173   0.00000  Uiso   1.00
C178   C     0.15387   0.46302   0.04610   0.00000  Uiso   1.00
C179   C     0.18013   0.53912   0.09426   0.00000  Uiso   1.00
C180   C     0.17824   0.46218   0.40803   0.00000  Uiso   1.00
C181   C     0.15331   0.53915   0.40576   0.00000  Uiso   1.00
C182   C     0.15506   0.46221   0.09196   0.00000  Uiso   1.00
C183   C     0.16753   0.50040   0.11615   0.00000  Uiso   1.00
C184   C     0.16583   0.50040   0.38386   0.00000  Uiso   1.00
C185   C     0.16673   0.50153   0.02410   0.00000  Uiso   1.00
C186   C     0.16667   0.50153   0.47591   0.00000  Uiso   1.00
C187   C     0.29088   0.50015   0.23897   0.00000  Uiso   1.00
C188   C     0.04246   0.50015   0.26103   0.00000  Uiso   1.00
H189   H     0.19095   0.56924   0.03175   0.00000  Uiso   1.00
H190   H     0.19054   0.43356   0.47209   0.00000  Uiso   1.00
H191   H     0.14257   0.56929   0.46828   0.00000  Uiso   1.00
H192   H     0.14273   0.43361   0.02790   0.00000  Uiso   1.00
H193   H     0.19044   0.56876   0.11262   0.00000  Uiso   1.00
H194   H     0.18750   0.43186   0.39175   0.00000  Uiso   1.00
H195   H     0.14304   0.56881   0.38740   0.00000  Uiso   1.00
H196   H     0.14573   0.43190   0.10824   0.00000  Uiso   1.00
N197   N     0.16667   0.61907   0.25000   0.00000  Uiso   1.00
N198   N     0.16667   0.38093   0.25000   0.00000  Uiso   1.00
O199   O     0.10559   0.53821   0.24999   0.00000  Uiso   1.00
O200   O     0.22774   0.46179   0.25001   0.00000  Uiso   1.00
O201   O     0.22774   0.53821   0.25001   0.00000  Uiso   1.00
O202   O     0.10559   0.46179   0.24999   0.00000  Uiso   1.00
O203   O     0.16666   0.53822   0.18453   0.00000  Uiso   1.00
O204   O     0.16667   0.46178   0.31547   0.00000  Uiso   1.00
O205   O     0.16667   0.53822   0.31547   0.00000  Uiso   1.00
O206   O     0.16666   0.46178   0.18453   0.00000  Uiso   1.00
Zn207  Zn    0.16667   0.55104   0.25000   0.00000  Uiso   1.00
Zn208  Zn    0.16667   0.44896   0.25000   0.00000  Uiso   1.00
I209   I     0.23732   0.39149   0.32324   0.00000  Uiso   1.00
I210   I     0.09880   0.60811   0.17389   0.00000  Uiso   1.00
I211   I     0.09601   0.39149   0.17676   0.00000  Uiso   1.00
I212   I     0.23453   0.60811   0.32611   0.00000  Uiso   1.00
I213   I     0.04484   0.40000   0.29052   0.00000  Uiso   1.00
I214   I     0.28781   0.60089   0.21096   0.00000  Uiso   1.00
I215   I     0.28850   0.39999   0.20950   0.00000  Uiso   1.00
I216   I     0.04552   0.60090   0.28902   0.00000  Uiso   1.00
C217   C     0.42044   0.50003   0.25544   0.00000  Uiso   1.00
C218   C     0.57956   0.50003   0.24456   0.00000  Uiso   1.00
C219   C     0.50029   0.50005   0.16404   0.00000  Uiso   1.00
C220   C     0.49971   0.50005   0.33596   0.00000  Uiso   1.00
C221   C     0.52690   0.35720   0.27871   0.00000  Uiso   1.00
C222   C     0.47349   0.64272   0.22089   0.00000  Uiso   1.00
C223   C     0.47310   0.35720   0.22129   0.00000  Uiso   1.00
C224   C     0.52651   0.64272   0.27911   0.00000  Uiso   1.00
C225   C     0.35402   0.45930   0.25815   0.00000  Uiso   1.00
C226   C     0.64592   0.54109   0.24201   0.00000  Uiso   1.00
C227   C     0.64598   0.45930   0.24186   0.00000  Uiso   1.00
C228   C     0.35408   0.54109   0.25799   0.00000  Uiso   1.00
C229   C     0.51346   0.53953   0.04829   0.00000  Uiso   1.00
C230   C     0.51278   0.46300   0.45389   0.00000  Uiso   1.00
C231   C     0.48666   0.53956   0.45173   0.00000  Uiso   1.00
C232   C     0.48720   0.46302   0.04610   0.00000  Uiso   1.00
C233   C     0.51346   0.53912   0.09426   0.00000  Uiso   1.00
C234   C     0.51157   0.46218   0.40803   0.00000  Uiso   1.00
C235   C     0.48664   0.53915   0.40576   0.00000  Uiso   1.00
C236   C     0.48840   0.46221   0.09196   0.00000  Uiso   1.00
C237   C     0.50086   0.50040   0.11615   0.00000  Uiso   1.00
C238   C     0.49916   0.50040   0.38386   0.00000  Uiso   1.00
C239   C     0.50006   0.50153   0.02410   0.00000  Uiso   1.00
C240   C     0.50000   0.50153   0.47591   0.00000  Uiso   1.00
C241   C     0.62421   0.50015   0.23897   0.00000  Uiso   1.00
C242   C     0.37579   0.50015   0.26103   0.00000  Uiso   1.00
H243   H     0.52428   0.56924   0.03175   0.00000  Uiso   1.00
H244   H     0.52388   0.43356   0.47209   0.00000  Uiso   1.00
H245   H     0.47590   0.56929   0.46828   0.00000  Uiso   1.00
H246   H     0.47606   0.43361   0.02790   0.00000  Uiso   1.00
H247   H     0.52377   0.56876   0.11262   0.00000  Uiso   1.00
H248   H     0.52084   0.43186   0.39175   0.00000  Uiso   1.00
H249   H     0.47638   0.56881   0.38740   0.00000  Uiso   1.00
H250   H     0.47906   0.43190   0.10824   0.00000  Uiso   1.00
N251   N     0.50000   0.61907   0.25000   0.00000  Uiso   1.00
N252   N     0.50000   0.38093   0.25000   0.00000  Uiso   1.00
O253   O     0.43892   0.53821   0.24999   0.00000  Uiso   1.00
O254   O     0.56108   0.46179   0.25001   0.00000  Uiso   1.00
O255   O     0.56108   0.53821   0.25001   0.00000  Uiso   1.00
O256   O     0.43892   0.46179   0.24999   0.00000  Uiso   1.00
O257   O     0.50000   0.53822   0.18453   0.00000  Uiso   1.00
O258   O     0.50000   0.46178   0.31547   0.00000  Uiso   1.00
O259   O     0.50000   0.53822   0.31547   0.00000  Uiso   1.00
O260   O     0.50000   0.46178   0.18453   0.00000  Uiso   1.00
Zn261  Zn    0.50000   0.55104   0.25000   0.00000  Uiso   1.00
Zn262  Zn    0.50000   0.44896   0.25000   0.00000  Uiso   1.00
I263   I     0.57065   0.39149   0.32324   0.00000  Uiso   1.00
I264   I     0.43213   0.60811   0.17389   0.00000  Uiso   1.00
I265   I     0.42934   0.39149   0.17676   0.00000  Uiso   1.00
I266   I     0.56787   0.60811   0.32611   0.00000  Uiso   1.00
I267   I     0.37817   0.40000   0.29052   0.00000  Uiso   1.00
I268   I     0.62114   0.60089   0.21096   0.00000  Uiso   1.00
I269   I     0.62183   0.39999   0.20950   0.00000  Uiso   1.00
I270   I     0.37885   0.60090   0.28902   0.00000  Uiso   1.00
C271   C     0.75377   0.50003   0.25544   0.00000  Uiso   1.00
C272   C     0.91290   0.50003   0.24456   0.00000  Uiso   1.00
C273   C     0.83363   0.50005   0.16404   0.00000  Uiso   1.00
C274   C     0.83304   0.50005   0.33596   0.00000  Uiso   1.00
C275   C     0.86023   0.35720   0.27871   0.00000  Uiso   1.00
C276   C     0.80682   0.64272   0.22089   0.00000  Uiso   1.00
C277   C     0.80644   0.35720   0.22129   0.00000  Uiso   1.00
C278   C     0.85985   0.64272   0.27911   0.00000  Uiso   1.00
C279   C     0.68735   0.45930   0.25815   0.00000  Uiso   1.00
C280   C     0.97925   0.54109   0.24201   0.00000  Uiso   1.00
C281   C     0.97931   0.45930   0.24186   0.00000  Uiso   1.00
C282   C     0.68742   0.54109   0.25799   0.00000  Uiso   1.00
C283   C     0.84679   0.53953   0.04829   0.00000  Uiso   1.00
C284   C     0.84612   0.46300   0.45389   0.00000  Uiso   1.00
C285   C     0.82000   0.53956   0.45173   0.00000  Uiso   1.00
C286   C     0.82054   0.46302   0.04610   0.00000  Uiso   1.00
C287   C     0.84679   0.53912   0.09426   0.00000  Uiso   1.00
C288   C     0.84490   0.46218   0.40803   0.00000  Uiso   1.00
C289   C     0.81998   0.53915   0.40576   0.00000  Uiso   1.00
C290   C     0.82173   0.46221   0.09196   0.00000  Uiso   1.00
C291   C     0.83420   0.50040   0.11615   0.00000  Uiso   1.00
C292   C     0.83249   0.50040   0.38386   0.00000  Uiso   1.00
C293   C     0.83340   0.50153   0.02410   0.00000  Uiso   1.00
C294   C     0.83333   0.50153   0.47591   0.00000  Uiso   1.00
C295   C     0.95754   0.50015   0.23897   0.00000  Uiso   1.00
C296   C     0.70912   0.50015   0.26103   0.00000  Uiso   1.00
H297   H     0.85761   0.56924   0.03175   0.00000  Uiso   1.00
H298   H     0.85721   0.43356   0.47209   0.00000  Uiso   1.00
H299   H     0.80924   0.56929   0.46828   0.00000  Uiso   1.00
H300   H     0.80939   0.43361   0.02790   0.00000  Uiso   1.00
H301   H     0.85710   0.56876   0.11262   0.00000  Uiso   1.00
H302   H     0.85417   0.43186   0.39175   0.00000  Uiso   1.00
H303   H     0.80971   0.56881   0.38740   0.00000  Uiso   1.00
H304   H     0.81240   0.43190   0.10824   0.00000  Uiso   1.00
N305   N     0.83333   0.61907   0.25000   0.00000  Uiso   1.00
N306   N     0.83333   0.38093   0.25000   0.00000  Uiso   1.00
O307   O     0.77226   0.53821   0.24999   0.00000  Uiso   1.00
O308   O     0.89441   0.46179   0.25001   0.00000  Uiso   1.00
O309   O     0.89441   0.53821   0.25001   0.00000  Uiso   1.00
O310   O     0.77226   0.46179   0.24999   0.00000  Uiso   1.00
O311   O     0.83333   0.53822   0.18453   0.00000  Uiso   1.00
O312   O     0.83334   0.46178   0.31547   0.00000  Uiso   1.00
O313   O     0.83334   0.53822   0.31547   0.00000  Uiso   1.00
O314   O     0.83333   0.46178   0.18453   0.00000  Uiso   1.00
Zn315  Zn    0.83333   0.55104   0.25000   0.00000  Uiso   1.00
Zn316  Zn    0.83333   0.44896   0.25000   0.00000  Uiso   1.00
I317   I     0.90399   0.39149   0.32324   0.00000  Uiso   1.00
I318   I     0.76547   0.60811   0.17389   0.00000  Uiso   1.00
I319   I     0.76267   0.39149   0.17676   0.00000  Uiso   1.00
I320   I     0.90120   0.60811   0.32611   0.00000  Uiso   1.00
I321   I     0.71151   0.40000   0.29052   0.00000  Uiso   1.00
I322   I     0.95448   0.60089   0.21096   0.00000  Uiso   1.00
I323   I     0.95516   0.39999   0.20950   0.00000  Uiso   1.00
I324   I     0.71219   0.60090   0.28902   0.00000  Uiso   1.00
C325   C     0.08710   0.83336   0.25544   0.00000  Uiso   1.00
C326   C     0.24623   0.83336   0.24456   0.00000  Uiso   1.00
C327   C     0.16696   0.83339   0.16404   0.00000  Uiso   1.00
C328   C     0.16638   0.83339   0.33596   0.00000  Uiso   1.00
C329   C     0.19356   0.69054   0.27871   0.00000  Uiso   1.00
C330   C     0.14015   0.97606   0.22089   0.00000  Uiso   1.00
C331   C     0.13977   0.69054   0.22129   0.00000  Uiso   1.00
C332   C     0.19318   0.97606   0.27911   0.00000  Uiso   1.00
C333   C     0.02069   0.79263   0.25815   0.00000  Uiso   1.00
C334   C     0.31258   0.87443   0.24201   0.00000  Uiso   1.00
C335   C     0.31265   0.79263   0.24186   0.00000  Uiso   1.00
C336   C     0.02075   0.87443   0.25799   0.00000  Uiso   1.00
C337   C     0.18013   0.87286   0.04829   0.00000  Uiso   1.00
C338   C     0.17945   0.79633   0.45389   0.00000  Uiso   1.00
C339   C     0.15333   0.87289   0.45173   0.00000  Uiso   1.00
C340   C     0.15387   0.79636   0.04610   0.00000  Uiso   1.00
C341   C     0.18013   0.87245   0.09426   0.00000  Uiso   1.00
C342   C     0.17824   0.79551   0.40803   0.00000  Uiso   1.00
C343   C     0.15331   0.87248   0.40576   0.00000  Uiso   1.00
C344   C     0.15506   0.79554   0.09196   0.00000  Uiso   1.00
C345   C     0.16753   0.83373   0.11615   0.00000  Uiso   1.00
C346   C     0.16583   0.83373   0.38386   0.00000  Uiso   1.00
C347   C     0.16673   0.83486   0.02410   0.00000  Uiso   1.00
C348   C     0.16667   0.83486   0.47591   0.00000  Uiso   1.00
C349   C     0.29088   0.83349   0.23897   0.00000  Uiso   1.00
C350   C     0.04246   0.83349   0.26103   0.00000  Uiso   1.00
H351   H     0.19095   0.90257   0.03175   0.00000  Uiso   1.00
H352   H     0.19054   0.76689   0.47209   0.00000  Uiso   1.00
H353   H     0.14257   0.90262   0.46828   0.00000  Uiso   1.00
H354   H     0.14273   0.76694   0.02790   0.00000  Uiso   1.00
H355   H     0.19044   0.90209   0.11262   0.00000  Uiso   1.00
H356   H     0.18750   0.76519   0.39175   0.00000  Uiso   1.00
H357   H     0.14304   0.90214   0.38740   0.00000  Uiso   1.00
H358   H     0.14573   0.76524   0.10824   0.00000  Uiso   1.00
N359   N     0.16667   0.95240   0.25000   0.00000  Uiso   1.00
N360   N     0.16667   0.71427   0.25000   0.00000  Uiso   1.00
O361   O     0.10559   0.87154   0.24999   0.00000  Uiso   1.00
O362   O     0.22774   0.79513   0.25001   0.00000  Uiso   1.00
O363   O     0.22774   0.87154   0.25001   0.00000  Uiso   1.00
O364   O     0.10559   0.79513   0.24999   0.00000  Uiso   1.00
O365   O     0.16666   0.87155   0.18453   0.00000  Uiso   1.00
O366   O     0.16667   0.79511   0.31547   0.00000  Uiso   1.00
O367   O     0.16667   0.87155   0.31547   0.00000  Uiso   1.00
O368   O     0.16666   0.79511   0.18453   0.00000  Uiso   1.00
Zn369  Zn    0.16667   0.88437   0.25000   0.00000  Uiso   1.00
Zn370  Zn    0.16667   0.78229   0.25000   0.00000  Uiso   1.00
I371   I     0.23732   0.72482   0.32324   0.00000  Uiso   1.00
I372   I     0.09880   0.94144   0.17389   0.00000  Uiso   1.00
I373   I     0.09601   0.72482   0.17676   0.00000  Uiso   1.00
I374   I     0.23453   0.94144   0.32611   0.00000  Uiso   1.00
I375   I     0.04484   0.73333   0.29052   0.00000  Uiso   1.00
I376   I     0.28781   0.93422   0.21096   0.00000  Uiso   1.00
I377   I     0.28850   0.73333   0.20950   0.00000  Uiso   1.00
I378   I     0.04552   0.93423   0.28902   0.00000  Uiso   1.00
C379   C     0.42044   0.83336   0.25544   0.00000  Uiso   1.00
C380   C     0.57956   0.83336   0.24456   0.00000  Uiso   1.00
C381   C     0.50029   0.83339   0.16404   0.00000  Uiso   1.00
C382   C     0.49971   0.83339   0.33596   0.00000  Uiso   1.00
C383   C     0.52690   0.69054   0.27871   0.00000  Uiso   1.00
C384   C     0.47349   0.97606   0.22089   0.00000  Uiso   1.00
C385   C     0.47310   0.69054   0.22129   0.00000  Uiso   1.00
C386   C     0.52651   0.97606   0.27911   0.00000  Uiso   1.00
C387   C     0.35402   0.79263   0.25815   0.00000  Uiso   1.00
C388   C     0.64592   0.87443   0.24201   0.00000  Uiso   1.00
C389   C     0.64598   0.79263   0.24186   0.00000  Uiso   1.00
C390   C     0.35408   0.87443   0.25799   0.00000  Uiso   1.00
C391   C     0.51346   0.87286   0.04829   0.00000  Uiso   1.00
C392   C     0.51278   0.79633   0.45389   0.00000  Uiso   1.00
C393   C     0.48666   0.87289   0.45173   0.00000  Uiso   1.00
C394   C     0.48720   0.79636   0.04610   0.00000  Uiso   1.00
C395   C     0.51346   0.87245   0.09426   0.00000  Uiso   1.00
C396   C     0.51157   0.79551   0.40803   0.00000  Uiso   1.00
C397   C     0.48664   0.87248   0.40576   0.00000  Uiso   1.00
C398   C     0.48840   0.79554   0.09196   0.00000  Uiso   1.00
C399   C     0.50086   0.83373   0.11615   0.00000  Uiso   1.00
C400   C     0.49916   0.83373   0.38386   0.00000  Uiso   1.00
C401   C     0.50006   0.83486   0.02410   0.00000  Uiso   1.00
C402   C     0.50000   0.83486   0.47591   0.00000  Uiso   1.00
C403   C     0.62421   0.83349   0.23897   0.00000  Uiso   1.00
C404   C     0.37579   0.83349   0.26103   0.00000  Uiso   1.00
H405   H     0.52428   0.90257   0.03175   0.00000  Uiso   1.00
H406   H     0.52388   0.76689   0.47209   0.00000  Uiso   1.00
H407   H     0.47590   0.90262   0.46828   0.00000  Uiso   1.00
H408   H     0.47606   0.76694   0.02790   0.00000  Uiso   1.00
H409   H     0.52377   0.90209   0.11262   0.00000  Uiso   1.00
H410   H     0.52084   0.76519   0.39175   0.00000  Uiso   1.00
H411   H     0.47638   0.90214   0.38740   0.00000  Uiso   1.00
H412   H     0.47906   0.76524   0.10824   0.00000  Uiso   1.00
N413   N     0.50000   0.95240   0.25000   0.00000  Uiso   1.00
N414   N     0.50000   0.71427   0.25000   0.00000  Uiso   1.00
O415   O     0.43892   0.87154   0.24999   0.00000  Uiso   1.00
O416   O     0.56108   0.79513   0.25001   0.00000  Uiso   1.00
O417   O     0.56108   0.87154   0.25001   0.00000  Uiso   1.00
O418   O     0.43892   0.79513   0.24999   0.00000  Uiso   1.00
O419   O     0.50000   0.87155   0.18453   0.00000  Uiso   1.00
O420   O     0.50000   0.79511   0.31547   0.00000  Uiso   1.00
O421   O     0.50000   0.87155   0.31547   0.00000  Uiso   1.00
O422   O     0.50000   0.79511   0.18453   0.00000  Uiso   1.00
Zn423  Zn    0.50000   0.88437   0.25000   0.00000  Uiso   1.00
Zn424  Zn    0.50000   0.78229   0.25000   0.00000  Uiso   1.00
I425   I     0.57065   0.72482   0.32324   0.00000  Uiso   1.00
I426   I     0.43213   0.94144   0.17389   0.00000  Uiso   1.00
I427   I     0.42934   0.72482   0.17676   0.00000  Uiso   1.00
I428   I     0.56787   0.94144   0.32611   0.00000  Uiso   1.00
I429   I     0.37817   0.73333   0.29052   0.00000  Uiso   1.00
I430   I     0.62114   0.93422   0.21096   0.00000  Uiso   1.00
I431   I     0.62183   0.73333   0.20950   0.00000  Uiso   1.00
I432   I     0.37885   0.93423   0.28902   0.00000  Uiso   1.00
C433   C     0.75377   0.83336   0.25544   0.00000  Uiso   1.00
C434   C     0.91290   0.83336   0.24456   0.00000  Uiso   1.00
C435   C     0.83363   0.83339   0.16404   0.00000  Uiso   1.00
C436   C     0.83304   0.83339   0.33596   0.00000  Uiso   1.00
C437   C     0.86023   0.69054   0.27871   0.00000  Uiso   1.00
C438   C     0.80682   0.97606   0.22089   0.00000  Uiso   1.00
C439   C     0.80644   0.69054   0.22129   0.00000  Uiso   1.00
C440   C     0.85985   0.97606   0.27911   0.00000  Uiso   1.00
C441   C     0.68735   0.79263   0.25815   0.00000  Uiso   1.00
C442   C     0.97925   0.87443   0.24201   0.00000  Uiso   1.00
C443   C     0.97931   0.79263   0.24186   0.00000  Uiso   1.00
C444   C     0.68742   0.87443   0.25799   0.00000  Uiso   1.00
C445   C     0.84679   0.87286   0.04829   0.00000  Uiso   1.00
C446   C     0.84612   0.79633   0.45389   0.00000  Uiso   1.00
C447   C     0.82000   0.87289   0.45173   0.00000  Uiso   1.00
C448   C     0.82054   0.79636   0.04610   0.00000  Uiso   1.00
C449   C     0.84679   0.87245   0.09426   0.00000  Uiso   1.00
C450   C     0.84490   0.79551   0.40803   0.00000  Uiso   1.00
C451   C     0.81998   0.87248   0.40576   0.00000  Uiso   1.00
C452   C     0.82173   0.79554   0.09196   0.00000  Uiso   1.00
C453   C     0.83420   0.83373   0.11615   0.00000  Uiso   1.00
C454   C     0.83249   0.83373   0.38386   0.00000  Uiso   1.00
C455   C     0.83340   0.83486   0.02410   0.00000  Uiso   1.00
C456   C     0.83333   0.83486   0.47591   0.00000  Uiso   1.00
C457   C     0.95754   0.83349   0.23897   0.00000  Uiso   1.00
C458   C     0.70912   0.83349   0.26103   0.00000  Uiso   1.00
H459   H     0.85761   0.90257   0.03175   0.00000  Uiso   1.00
H460   H     0.85721   0.76689   0.47209   0.00000  Uiso   1.00
H461   H     0.80924   0.90262   0.46828   0.00000  Uiso   1.00
H462   H     0.80939   0.76694   0.02790   0.00000  Uiso   1.00
H463   H     0.85710   0.90209   0.11262   0.00000  Uiso   1.00
H464   H     0.85417   0.76519   0.39175   0.00000  Uiso   1.00
H465   H     0.80971   0.90214   0.38740   0.00000  Uiso   1.00
H466   H     0.81240   0.76524   0.10824   0.00000  Uiso   1.00
N467   N     0.83333   0.95240   0.25000   0.00000  Uiso   1.00
N468   N     0.83333   0.71427   0.25000   0.00000  Uiso   1.00
O469   O     0.77226   0.87154   0.24999   0.00000  Uiso   1.00
O470   O     0.89441   0.79513   0.25001   0.00000  Uiso   1.00
O471   O     0.89441   0.87154   0.25001   0.00000  Uiso   1.00
O472   O     0.77226   0.79513   0.24999   0.00000  Uiso   1.00
O473   O     0.83333   0.87155   0.18453   0.00000  Uiso   1.00
O474   O     0.83334   0.79511   0.31547   0.00000  Uiso   1.00
O475   O     0.83334   0.87155   0.31547   0.00000  Uiso   1.00
O476   O     0.83333   0.79511   0.18453   0.00000  Uiso   1.00
Zn477  Zn    0.83333   0.88437   0.25000   0.00000  Uiso   1.00
Zn478  Zn    0.83333   0.78229   0.25000   0.00000  Uiso   1.00
I479   I     0.90399   0.72482   0.32324   0.00000  Uiso   1.00
I480   I     0.76547   0.94144   0.17389   0.00000  Uiso   1.00
I481   I     0.76267   0.72482   0.17676   0.00000  Uiso   1.00
I482   I     0.90120   0.94144   0.32611   0.00000  Uiso   1.00
I483   I     0.71151   0.73333   0.29052   0.00000  Uiso   1.00
I484   I     0.95448   0.93422   0.21096   0.00000  Uiso   1.00
I485   I     0.95516   0.73333   0.20950   0.00000  Uiso   1.00
I486   I     0.71219   0.93423   0.28902   0.00000  Uiso   1.00
C487   C     0.08710   0.16669   0.75544   0.00000  Uiso   1.00
C488   C     0.24623   0.16669   0.74456   0.00000  Uiso   1.00
C489   C     0.16696   0.16672   0.66404   0.00000  Uiso   1.00
C490   C     0.16638   0.16672   0.83596   0.00000  Uiso   1.00
C491   C     0.19356   0.02387   0.77871   0.00000  Uiso   1.00
C492   C     0.14015   0.30939   0.72089   0.00000  Uiso   1.00
C493   C     0.13977   0.02387   0.72129   0.00000  Uiso   1.00
C494   C     0.19318   0.30939   0.77911   0.00000  Uiso   1.00
C495   C     0.02069   0.12597   0.75815   0.00000  Uiso   1.00
C496   C     0.31258   0.20776   0.74201   0.00000  Uiso   1.00
C497   C     0.31265   0.12597   0.74186   0.00000  Uiso   1.00
C498   C     0.02075   0.20776   0.75799   0.00000  Uiso   1.00
C499   C     0.18013   0.20619   0.54829   0.00000  Uiso   1.00
C500   C     0.17945   0.12967   0.95389   0.00000  Uiso   1.00
C501   C     0.15333   0.20622   0.95173   0.00000  Uiso   1.00
C502   C     0.15387   0.12969   0.54610   0.00000  Uiso   1.00
C503   C     0.18013   0.20578   0.59426   0.00000  Uiso   1.00
C504   C     0.17824   0.12885   0.90803   0.00000  Uiso   1.00
C505   C     0.15331   0.20581   0.90576   0.00000  Uiso   1.00
C506   C     0.15506   0.12887   0.59196   0.00000  Uiso   1.00
C507   C     0.16753   0.16706   0.61615   0.00000  Uiso   1.00
C508   C     0.16583   0.16706   0.88386   0.00000  Uiso   1.00
C509   C     0.16673   0.16819   0.52410   0.00000  Uiso   1.00
C510   C     0.16667   0.16819   0.97591   0.00000  Uiso   1.00
C511   C     0.29088   0.16682   0.73897   0.00000  Uiso   1.00
C512   C     0.04246   0.16682   0.76103   0.00000  Uiso   1.00
H513   H     0.19095   0.23590   0.53175   0.00000  Uiso   1.00
H514   H     0.19054   0.10023   0.97209   0.00000  Uiso   1.00
H515   H     0.14257   0.23596   0.96828   0.00000  Uiso   1.00
H516   H     0.14273   0.10028   0.52790   0.00000  Uiso   1.00
H517   H     0.19044   0.23543   0.61262   0.00000  Uiso   1.00
H518   H     0.18750   0.09852   0.89175   0.00000  Uiso   1.00
H519   H     0.14304   0.23548   0.88740   0.00000  Uiso   1.00
H520   H     0.14573   0.09857   0.60824   0.00000  Uiso   1.00
N521   N     0.16667   0.28573   0.75000   0.00000  Uiso   1.00
N522   N     0.16667   0.04760   0.75000   0.00000  Uiso   1.00
O523   O     0.10559   0.20487   0.74999   0.00000  Uiso   1.00
O524   O     0.22774   0.12846   0.75001   0.00000  Uiso   1.00
O525   O     0.22774   0.20487   0.75001   0.00000  Uiso   1.00
O526   O     0.10559   0.12846   0.74999   0.00000  Uiso   1.00
O527   O     0.16666   0.20489   0.68453   0.00000  Uiso   1.00
O528   O     0.16667   0.12845   0.81547   0.00000  Uiso   1.00
O529   O     0.16667   0.20489   0.81547   0.00000  Uiso   1.00
O530   O     0.16666   0.12845   0.68453   0.00000  Uiso   1.00
Zn531  Zn    0.16667   0.21771   0.75000   0.00000  Uiso   1.00
Zn532  Zn    0.16667   0.11563   0.75000   0.00000  Uiso   1.00
I533   I     0.23732   0.05816   0.82324   0.00000  Uiso   1.00
I534   I     0.09880   0.27477   0.67389   0.00000  Uiso   1.00
I535   I     0.09601   0.05815   0.67676   0.00000  Uiso   1.00
I536   I     0.23453   0.27478   0.82611   0.00000  Uiso   1.00
I537   I     0.04484   0.06667   0.79052   0.00000  Uiso   1.00
I538   I     0.28781   0.26756   0.71096   0.00000  Uiso   1.00
I539   I     0.28850   0.06666   0.70950   0.00000  Uiso   1.00
I540   I     0.04552   0.26756   0.78902   0.00000  Uiso   1.00
C541   C     0.42044   0.16669   0.75544   0.00000  Uiso   1.00
C542   C     0.57956   0.16669   0.74456   0.00000  Uiso   1.00
C543   C     0.50029   0.16672   0.66404   0.00000  Uiso   1.00
C544   C     0.49971   0.16672   0.83596   0.00000  Uiso   1.00
C545   C     0.52690   0.02387   0.77871   0.00000  Uiso   1.00
C546   C     0.47349   0.30939   0.72089   0.00000  Uiso   1.00
C547   C     0.47310   0.02387   0.72129   0.00000  Uiso   1.00
C548   C     0.52651   0.30939   0.77911   0.00000  Uiso   1.00
C549   C     0.35402   0.12597   0.75815   0.00000  Uiso   1.00
C550   C     0.64592   0.20776   0.74201   0.00000  Uiso   1.00
C551   C     0.64598   0.12597   0.74186   0.00000  Uiso   1.00
C552   C     0.35408   0.20776   0.75799   0.00000  Uiso   1.00
C553   C     0.51346   0.20619   0.54829   0.00000  Uiso   1.00
C554   C     0.51278   0.12967   0.95389   0.00000  Uiso   1.00
C555   C     0.48666   0.20622   0.95173   0.00000  Uiso   1.00
C556   C     0.48720   0.12969   0.54610   0.00000  Uiso   1.00
C557   C     0.51346   0.20578   0.59426   0.00000  Uiso   1.00
C558   C     0.51157   0.12885   0.90803   0.00000  Uiso   1.00
C559   C     0.48664   0.20581   0.90576   0.00000  Uiso   1.00
C560   C     0.48840   0.12887   0.59196   0.00000  Uiso   1.00
C561   C     0.50086   0.16706   0.61615   0.00000  Uiso   1.00
C562   C     0.49916   0.16706   0.88386   0.00000  Uiso   1.00
C563   C     0.50006   0.16819   0.52410   0.00000  Uiso   1.00
C564   C     0.50000   0.16819   0.97591   0.00000  Uiso   1.00
C565   C     0.62421   0.16682   0.73897   0.00000  Uiso   1.00
C566   C     0.37579   0.16682   0.76103   0.00000  Uiso   1.00
H567   H     0.52428   0.23590   0.53175   0.00000  Uiso   1.00
H568   H     0.52388   0.10023   0.97209   0.00000  Uiso   1.00
H569   H     0.47590   0.23596   0.96828   0.00000  Uiso   1.00
H570   H     0.47606   0.10028   0.52790   0.00000  Uiso   1.00
H571   H     0.52377   0.23543   0.61262   0.00000  Uiso   1.00
H572   H     0.52084   0.09852   0.89175   0.00000  Uiso   1.00
H573   H     0.47638   0.23548   0.88740   0.00000  Uiso   1.00
H574   H     0.47906   0.09857   0.60824   0.00000  Uiso   1.00
N575   N     0.50000   0.28573   0.75000   0.00000  Uiso   1.00
N576   N     0.50000   0.04760   0.75000   0.00000  Uiso   1.00
O577   O     0.43892   0.20487   0.74999   0.00000  Uiso   1.00
O578   O     0.56108   0.12846   0.75001   0.00000  Uiso   1.00
O579   O     0.56108   0.20487   0.75001   0.00000  Uiso   1.00
O580   O     0.43892   0.12846   0.74999   0.00000  Uiso   1.00
O581   O     0.50000   0.20489   0.68453   0.00000  Uiso   1.00
O582   O     0.50000   0.12845   0.81547   0.00000  Uiso   1.00
O583   O     0.50000   0.20489   0.81547   0.00000  Uiso   1.00
O584   O     0.50000   0.12845   0.68453   0.00000  Uiso   1.00
Zn585  Zn    0.50000   0.21771   0.75000   0.00000  Uiso   1.00
Zn586  Zn    0.50000   0.11563   0.75000   0.00000  Uiso   1.00
I587   I     0.57065   0.05816   0.82324   0.00000  Uiso   1.00
I588   I     0.43213   0.27477   0.67389   0.00000  Uiso   1.00
I589   I     0.42934   0.05815   0.67676   0.00000  Uiso   1.00
I590   I     0.56787   0.27478   0.82611   0.00000  Uiso   1.00
I591   I     0.37817   0.06667   0.79052   0.00000  Uiso   1.00
I592   I     0.62114   0.26756   0.71096   0.00000  Uiso   1.00
I593   I     0.62183   0.06666   0.70950   0.00000  Uiso   1.00
I594   I     0.37885   0.26756   0.78902   0.00000  Uiso   1.00
C595   C     0.75377   0.16669   0.75544   0.00000  Uiso   1.00
C596   C     0.91290   0.16669   0.74456   0.00000  Uiso   1.00
C597   C     0.83363   0.16672   0.66404   0.00000  Uiso   1.00
C598   C     0.83304   0.16672   0.83596   0.00000  Uiso   1.00
C599   C     0.86023   0.02387   0.77871   0.00000  Uiso   1.00
C600   C     0.80682   0.30939   0.72089   0.00000  Uiso   1.00
C601   C     0.80644   0.02387   0.72129   0.00000  Uiso   1.00
C602   C     0.85985   0.30939   0.77911   0.00000  Uiso   1.00
C603   C     0.68735   0.12597   0.75815   0.00000  Uiso   1.00
C604   C     0.97925   0.20776   0.74201   0.00000  Uiso   1.00
C605   C     0.97931   0.12597   0.74186   0.00000  Uiso   1.00
C606   C     0.68742   0.20776   0.75799   0.00000  Uiso   1.00
C607   C     0.84679   0.20619   0.54829   0.00000  Uiso   1.00
C608   C     0.84612   0.12967   0.95389   0.00000  Uiso   1.00
C609   C     0.82000   0.20622   0.95173   0.00000  Uiso   1.00
C610   C     0.82054   0.12969   0.54610   0.00000  Uiso   1.00
C611   C     0.84679   0.20578   0.59426   0.00000  Uiso   1.00
C612   C     0.84490   0.12885   0.90803   0.00000  Uiso   1.00
C613   C     0.81998   0.20581   0.90576   0.00000  Uiso   1.00
C614   C     0.82173   0.12887   0.59196   0.00000  Uiso   1.00
C615   C     0.83420   0.16706   0.61615   0.00000  Uiso   1.00
C616   C     0.83249   0.16706   0.88386   0.00000  Uiso   1.00
C617   C     0.83340   0.16819   0.52410   0.00000  Uiso   1.00
C618   C     0.83333   0.16819   0.97591   0.00000  Uiso   1.00
C619   C     0.95754   0.16682   0.73897   0.00000  Uiso   1.00
C620   C     0.70912   0.16682   0.76103   0.00000  Uiso   1.00
H621   H     0.85761   0.23590   0.53175   0.00000  Uiso   1.00
H622   H     0.85721   0.10023   0.97209   0.00000  Uiso   1.00
H623   H     0.80924   0.23596   0.96828   0.00000  Uiso   1.00
H624   H     0.80939   0.10028   0.52790   0.00000  Uiso   1.00
H625   H     0.85710   0.23543   0.61262   0.00000  Uiso   1.00
H626   H     0.85417   0.09852   0.89175   0.00000  Uiso   1.00
H627   H     0.80971   0.23548   0.88740   0.00000  Uiso   1.00
H628   H     0.81240   0.09857   0.60824   0.00000  Uiso   1.00
N629   N     0.83333   0.28573   0.75000   0.00000  Uiso   1.00
N630   N     0.83333   0.04760   0.75000   0.00000  Uiso   1.00
O631   O     0.77226   0.20487   0.74999   0.00000  Uiso   1.00
O632   O     0.89441   0.12846   0.75001   0.00000  Uiso   1.00
O633   O     0.89441   0.20487   0.75001   0.00000  Uiso   1.00
O634   O     0.77226   0.12846   0.74999   0.00000  Uiso   1.00
O635   O     0.83333   0.20489   0.68453   0.00000  Uiso   1.00
O636   O     0.83334   0.12845   0.81547   0.00000  Uiso   1.00
O637   O     0.83334   0.20489   0.81547   0.00000  Uiso   1.00
O638   O     0.83333   0.12845   0.68453   0.00000  Uiso   1.00
Zn639  Zn    0.83333   0.21771   0.75000   0.00000  Uiso   1.00
Zn640  Zn    0.83333   0.11563   0.75000   0.00000  Uiso   1.00
I641   I     0.90399   0.05816   0.82324   0.00000  Uiso   1.00
I642   I     0.76547   0.27477   0.67389   0.00000  Uiso   1.00
I643   I     0.76267   0.05815   0.67676   0.00000  Uiso   1.00
I644   I     0.90120   0.27478   0.82611   0.00000  Uiso   1.00
I645   I     0.71151   0.06667   0.79052   0.00000  Uiso   1.00
I646   I     0.95448   0.26756   0.71096   0.00000  Uiso   1.00
I647   I     0.95516   0.06666   0.70950   0.00000  Uiso   1.00
I648   I     0.71219   0.26756   0.78902   0.00000  Uiso   1.00
C649   C     0.08710   0.50003   0.75544   0.00000  Uiso   1.00
C650   C     0.24623   0.50003   0.74456   0.00000  Uiso   1.00
C651   C     0.16696   0.50005   0.66404   0.00000  Uiso   1.00
C652   C     0.16638   0.50005   0.83596   0.00000  Uiso   1.00
C653   C     0.19356   0.35720   0.77871   0.00000  Uiso   1.00
C654   C     0.14015   0.64272   0.72089   0.00000  Uiso   1.00
C655   C     0.13977   0.35720   0.72129   0.00000  Uiso   1.00
C656   C     0.19318   0.64272   0.77911   0.00000  Uiso   1.00
C657   C     0.02069   0.45930   0.75815   0.00000  Uiso   1.00
C658   C     0.31258   0.54109   0.74201   0.00000  Uiso   1.00
C659   C     0.31265   0.45930   0.74186   0.00000  Uiso   1.00
C660   C     0.02075   0.54109   0.75799   0.00000  Uiso   1.00
C661   C     0.18013   0.53953   0.54829   0.00000  Uiso   1.00
C662   C     0.17945   0.46300   0.95389   0.00000  Uiso   1.00
C663   C     0.15333   0.53956   0.95173   0.00000  Uiso   1.00
C664   C     0.15387   0.46302   0.54610   0.00000  Uiso   1.00
C665   C     0.18013   0.53912   0.59426   0.00000  Uiso   1.00
C666   C     0.17824   0.46218   0.90803   0.00000  Uiso   1.00
C667   C     0.15331   0.53915   0.90576   0.00000  Uiso   1.00
C668   C     0.15506   0.46221   0.59196   0.00000  Uiso   1.00
C669   C     0.16753   0.50040   0.61615   0.00000  Uiso   1.00
C670   C     0.16583   0.50040   0.88386   0.00000  Uiso   1.00
C671   C     0.16673   0.50153   0.52410   0.00000  Uiso   1.00
C672   C     0.16667   0.50153   0.97591   0.00000  Uiso   1.00
C673   C     0.29088   0.50015   0.73897   0.00000  Uiso   1.00
C674   C     0.04246   0.50015   0.76103   0.00000  Uiso   1.00
H675   H     0.19095   0.56924   0.53175   0.00000  Uiso   1.00
H676   H     0.19054   0.43356   0.97209   0.00000  Uiso   1.00
H677   H     0.14257   0.56929   0.96828   0.00000  Uiso   1.00
H678   H     0.14273   0.43361   0.52790   0.00000  Uiso   1.00
H679   H     0.19044   0.56876   0.61262   0.00000  Uiso   1.00
H680   H     0.18750   0.43186   0.89175   0.00000  Uiso   1.00
H681   H     0.14304   0.56881   0.88740   0.00000  Uiso   1.00
H682   H     0.14573   0.43190   0.60824   0.00000  Uiso   1.00
N683   N     0.16667   0.61907   0.75000   0.00000  Uiso   1.00
N684   N     0.16667   0.38093   0.75000   0.00000  Uiso   1.00
O685   O     0.10559   0.53821   0.74999   0.00000  Uiso   1.00
O686   O     0.22774   0.46179   0.75001   0.00000  Uiso   1.00
O687   O     0.22774   0.53821   0.75001   0.00000  Uiso   1.00
O688   O     0.10559   0.46179   0.74999   0.00000  Uiso   1.00
O689   O     0.16666   0.53822   0.68453   0.00000  Uiso   1.00
O690   O     0.16667   0.46178   0.81547   0.00000  Uiso   1.00
O691   O     0.16667   0.53822   0.81547   0.00000  Uiso   1.00
O692   O     0.16666   0.46178   0.68453   0.00000  Uiso   1.00
Zn693  Zn    0.16667   0.55104   0.75000   0.00000  Uiso   1.00
Zn694  Zn    0.16667   0.44896   0.75000   0.00000  Uiso   1.00
I695   I     0.23732   0.39149   0.82324   0.00000  Uiso   1.00
I696   I     0.09880   0.60811   0.67389   0.00000  Uiso   1.00
I697   I     0.09601   0.39149   0.67676   0.00000  Uiso   1.00
I698   I     0.23453   0.60811   0.82611   0.00000  Uiso   1.00
I699   I     0.04484   0.40000   0.79052   0.00000  Uiso   1.00
I700   I     0.28781   0.60089   0.71096   0.00000  Uiso   1.00
I701   I     0.28850   0.39999   0.70950   0.00000  Uiso   1.00
I702   I     0.04552   0.60090   0.78902   0.00000  Uiso   1.00
C703   C     0.42044   0.50003   0.75544   0.00000  Uiso   1.00
C704   C     0.57956   0.50003   0.74456   0.00000  Uiso   1.00
C705   C     0.50029   0.50005   0.66404   0.00000  Uiso   1.00
C706   C     0.49971   0.50005   0.83596   0.00000  Uiso   1.00
C707   C     0.52690   0.35720   0.77871   0.00000  Uiso   1.00
C708   C     0.47349   0.64272   0.72089   0.00000  Uiso   1.00
C709   C     0.47310   0.35720   0.72129   0.00000  Uiso   1.00
C710   C     0.52651   0.64272   0.77911   0.00000  Uiso   1.00
C711   C     0.35402   0.45930   0.75815   0.00000  Uiso   1.00
C712   C     0.64592   0.54109   0.74201   0.00000  Uiso   1.00
C713   C     0.64598   0.45930   0.74186   0.00000  Uiso   1.00
C714   C     0.35408   0.54109   0.75799   0.00000  Uiso   1.00
C715   C     0.51346   0.53953   0.54829   0.00000  Uiso   1.00
C716   C     0.51278   0.46300   0.95389   0.00000  Uiso   1.00
C717   C     0.48666   0.53956   0.95173   0.00000  Uiso   1.00
C718   C     0.48720   0.46302   0.54610   0.00000  Uiso   1.00
C719   C     0.51346   0.53912   0.59426   0.00000  Uiso   1.00
C720   C     0.51157   0.46218   0.90803   0.00000  Uiso   1.00
C721   C     0.48664   0.53915   0.90576   0.00000  Uiso   1.00
C722   C     0.48840   0.46221   0.59196   0.00000  Uiso   1.00
C723   C     0.50086   0.50040   0.61615   0.00000  Uiso   1.00
C724   C     0.49916   0.50040   0.88386   0.00000  Uiso   1.00
C725   C     0.50006   0.50153   0.52410   0.00000  Uiso   1.00
C726   C     0.50000   0.50153   0.97591   0.00000  Uiso   1.00
C727   C     0.62421   0.50015   0.73897   0.00000  Uiso   1.00
C728   C     0.37579   0.50015   0.76103   0.00000  Uiso   1.00
H729   H     0.52428   0.56924   0.53175   0.00000  Uiso   1.00
H730   H     0.52388   0.43356   0.97209   0.00000  Uiso   1.00
H731   H     0.47590   0.56929   0.96828   0.00000  Uiso   1.00
H732   H     0.47606   0.43361   0.52790   0.00000  Uiso   1.00
H733   H     0.52377   0.56876   0.61262   0.00000  Uiso   1.00
H734   H     0.52084   0.43186   0.89175   0.00000  Uiso   1.00
H735   H     0.47638   0.56881   0.88740   0.00000  Uiso   1.00
H736   H     0.47906   0.43190   0.60824   0.00000  Uiso   1.00
N737   N     0.50000   0.61907   0.75000   0.00000  Uiso   1.00
N738   N     0.50000   0.38093   0.75000   0.00000  Uiso   1.00
O739   O     0.43892   0.53821   0.74999   0.00000  Uiso   1.00
O740   O     0.56108   0.46179   0.75001   0.00000  Uiso   1.00
O741   O     0.56108   0.53821   0.75001   0.00000  Uiso   1.00
O742   O     0.43892   0.46179   0.74999   0.00000  Uiso   1.00
O743   O     0.50000   0.53822   0.68453   0.00000  Uiso   1.00
O744   O     0.50000   0.46178   0.81547   0.00000  Uiso   1.00
O745   O     0.50000   0.53822   0.81547   0.00000  Uiso   1.00
O746   O     0.50000   0.46178   0.68453   0.00000  Uiso   1.00
Zn747  Zn    0.50000   0.55104   0.75000   0.00000  Uiso   1.00
Zn748  Zn    0.50000   0.44896   0.75000   0.00000  Uiso   1.00
I749   I     0.57065   0.39149   0.82324   0.00000  Uiso   1.00
I750   I     0.43213   0.60811   0.67389   0.00000  Uiso   1.00
I751   I     0.42934   0.39149   0.67676   0.00000  Uiso   1.00
I752   I     0.56787   0.60811   0.82611   0.00000  Uiso   1.00
I753   I     0.37817   0.40000   0.79052   0.00000  Uiso   1.00
I754   I     0.62114   0.60089   0.71096   0.00000  Uiso   1.00
I755   I     0.62183   0.39999   0.70950   0.00000  Uiso   1.00
I756   I     0.37885   0.60090   0.78902   0.00000  Uiso   1.00
C757   C     0.75377   0.50003   0.75544   0.00000  Uiso   1.00
C758   C     0.91290   0.50003   0.74456   0.00000  Uiso   1.00
C759   C     0.83363   0.50005   0.66404   0.00000  Uiso   1.00
C760   C     0.83304   0.50005   0.83596   0.00000  Uiso   1.00
C761   C     0.86023   0.35720   0.77871   0.00000  Uiso   1.00
C762   C     0.80682   0.64272   0.72089   0.00000  Uiso   1.00
C763   C     0.80644   0.35720   0.72129   0.00000  Uiso   1.00
C764   C     0.85985   0.64272   0.77911   0.00000  Uiso   1.00
C765   C     0.68735   0.45930   0.75815   0.00000  Uiso   1.00
C766   C     0.97925   0.54109   0.74201   0.00000  Uiso   1.00
C767   C     0.97931   0.45930   0.74186   0.00000  Uiso   1.00
C768   C     0.68742   0.54109   0.75799   0.00000  Uiso   1.00
C769   C     0.84679   0.53953   0.54829   0.00000  Uiso   1.00
C770   C     0.84612   0.46300   0.95389   0.00000  Uiso   1.00
C771   C     0.82000   0.53956   0.95173   0.00000  Uiso   1.00
C772   C     0.82054   0.46302   0.54610   0.00000  Uiso   1.00
C773   C     0.84679   0.53912   0.59426   0.00000  Uiso   1.00
C774   C     0.84490   0.46218   0.90803   0.00000  Uiso   1.00
C775   C     0.81998   0.53915   0.90576   0.00000  Uiso   1.00
C776   C     0.82173   0.46221   0.59196   0.00000  Uiso   1.00
C777   C     0.83420   0.50040   0.61615   0.00000  Uiso   1.00
C778   C     0.83249   0.50040   0.88386   0.00000  Uiso   1.00
C779   C     0.83340   0.50153   0.52410   0.00000  Uiso   1.00
C780   C     0.83333   0.50153   0.97591   0.00000  Uiso   1.00
C781   C     0.95754   0.50015   0.73897   0.00000  Uiso   1.00
C782   C     0.70912   0.50015   0.76103   0.00000  Uiso   1.00
H783   H     0.85761   0.56924   0.53175   0.00000  Uiso   1.00
H784   H     0.85721   0.43356   0.97209   0.00000  Uiso   1.00
H785   H     0.80924   0.56929   0.96828   0.00000  Uiso   1.00
H786   H     0.80939   0.43361   0.52790   0.00000  Uiso   1.00
H787   H     0.85710   0.56876   0.61262   0.00000  Uiso   1.00
H788   H     0.85417   0.43186   0.89175   0.00000  Uiso   1.00
H789   H     0.80971   0.56881   0.88740   0.00000  Uiso   1.00
H790   H     0.81240   0.43190   0.60824   0.00000  Uiso   1.00
N791   N     0.83333   0.61907   0.75000   0.00000  Uiso   1.00
N792   N     0.83333   0.38093   0.75000   0.00000  Uiso   1.00
O793   O     0.77226   0.53821   0.74999   0.00000  Uiso   1.00
O794   O     0.89441   0.46179   0.75001   0.00000  Uiso   1.00
O795   O     0.89441   0.53821   0.75001   0.00000  Uiso   1.00
O796   O     0.77226   0.46179   0.74999   0.00000  Uiso   1.00
O797   O     0.83333   0.53822   0.68453   0.00000  Uiso   1.00
O798   O     0.83334   0.46178   0.81547   0.00000  Uiso   1.00
O799   O     0.83334   0.53822   0.81547   0.00000  Uiso   1.00
O800   O     0.83333   0.46178   0.68453   0.00000  Uiso   1.00
Zn801  Zn    0.83333   0.55104   0.75000   0.00000  Uiso   1.00
Zn802  Zn    0.83333   0.44896   0.75000   0.00000  Uiso   1.00
I803   I     0.90399   0.39149   0.82324   0.00000  Uiso   1.00
I804   I     0.76547   0.60811   0.67389   0.00000  Uiso   1.00
I805   I     0.76267   0.39149   0.67676   0.00000  Uiso   1.00
I806   I     0.90120   0.60811   0.82611   0.00000  Uiso   1.00
I807   I     0.71151   0.40000   0.79052   0.00000  Uiso   1.00
I808   I     0.95448   0.60089   0.71096   0.00000  Uiso   1.00
I809   I     0.95516   0.39999   0.70950   0.00000  Uiso   1.00
I810   I     0.71219   0.60090   0.78902   0.00000  Uiso   1.00
C811   C     0.08710   0.83336   0.75544   0.00000  Uiso   1.00
C812   C     0.24623   0.83336   0.74456   0.00000  Uiso   1.00
C813   C     0.16696   0.83339   0.66404   0.00000  Uiso   1.00
C814   C     0.16638   0.83339   0.83596   0.00000  Uiso   1.00
C815   C     0.19356   0.69054   0.77871   0.00000  Uiso   1.00
C816   C     0.14015   0.97606   0.72089   0.00000  Uiso   1.00
C817   C     0.13977   0.69054   0.72129   0.00000  Uiso   1.00
C818   C     0.19318   0.97606   0.77911   0.00000  Uiso   1.00
C819   C     0.02069   0.79263   0.75815   0.00000  Uiso   1.00
C820   C     0.31258   0.87443   0.74201   0.00000  Uiso   1.00
C821   C     0.31265   0.79263   0.74186   0.00000  Uiso   1.00
C822   C     0.02075   0.87443   0.75799   0.00000  Uiso   1.00
C823   C     0.18013   0.87286   0.54829   0.00000  Uiso   1.00
C824   C     0.17945   0.79633   0.95389   0.00000  Uiso   1.00
C825   C     0.15333   0.87289   0.95173   0.00000  Uiso   1.00
C826   C     0.15387   0.79636   0.54610   0.00000  Uiso   1.00
C827   C     0.18013   0.87245   0.59426   0.00000  Uiso   1.00
C828   C     0.17824   0.79551   0.90803   0.00000  Uiso   1.00
C829   C     0.15331   0.87248   0.90576   0.00000  Uiso   1.00
C830   C     0.15506   0.79554   0.59196   0.00000  Uiso   1.00
C831   C     0.16753   0.83373   0.61615   0.00000  Uiso   1.00
C832   C     0.16583   0.83373   0.88386   0.00000  Uiso   1.00
C833   C     0.16673   0.83486   0.52410   0.00000  Uiso   1.00
C834   C     0.16667   0.83486   0.97591   0.00000  Uiso   1.00
C835   C     0.29088   0.83349   0.73897   0.00000  Uiso   1.00
C836   C     0.04246   0.83349   0.76103   0.00000  Uiso   1.00
H837   H     0.19095   0.90257   0.53175   0.00000  Uiso   1.00
H838   H     0.19054   0.76689   0.97209   0.00000  Uiso   1.00
H839   H     0.14257   0.90262   0.96828   0.00000  Uiso   1.00
H840   H     0.14273   0.76694   0.52790   0.00000  Uiso   1.00
H841   H     0.19044   0.90209   0.61262   0.00000  Uiso   1.00
H842   H     0.18750   0.76519   0.89175   0.00000  Uiso   1.00
H843   H     0.14304   0.90214   0.88740   0.00000  Uiso   1.00
H844   H     0.14573   0.76524   0.60824   0.00000  Uiso   1.00
N845   N     0.16667   0.95240   0.75000   0.00000  Uiso   1.00
N846   N     0.16667   0.71427   0.75000   0.00000  Uiso   1.00
O847   O     0.10559   0.87154   0.74999   0.00000  Uiso   1.00
O848   O     0.22774   0.79513   0.75001   0.00000  Uiso   1.00
O849   O     0.22774   0.87154   0.75001   0.00000  Uiso   1.00
O850   O     0.10559   0.79513   0.74999   0.00000  Uiso   1.00
O851   O     0.16666   0.87155   0.68453   0.00000  Uiso   1.00
O852   O     0.16667   0.79511   0.81547   0.00000  Uiso   1.00
O853   O     0.16667   0.87155   0.81547   0.00000  Uiso   1.00
O854   O     0.16666   0.79511   0.68453   0.00000  Uiso   1.00
Zn855  Zn    0.16667   0.88437   0.75000   0.00000  Uiso   1.00
Zn856  Zn    0.16667   0.78229   0.75000   0.00000  Uiso   1.00
I857   I     0.23732   0.72482   0.82324   0.00000  Uiso   1.00
I858   I     0.09880   0.94144   0.67389   0.00000  Uiso   1.00
I859   I     0.09601   0.72482   0.67676   0.00000  Uiso   1.00
I860   I     0.23453   0.94144   0.82611   0.00000  Uiso   1.00
I861   I     0.04484   0.73333   0.79052   0.00000  Uiso   1.00
I862   I     0.28781   0.93422   0.71096   0.00000  Uiso   1.00
I863   I     0.28850   0.73333   0.70950   0.00000  Uiso   1.00
I864   I     0.04552   0.93423   0.78902   0.00000  Uiso   1.00
C865   C     0.42044   0.83336   0.75544   0.00000  Uiso   1.00
C866   C     0.57956   0.83336   0.74456   0.00000  Uiso   1.00
C867   C     0.50029   0.83339   0.66404   0.00000  Uiso   1.00
C868   C     0.49971   0.83339   0.83596   0.00000  Uiso   1.00
C869   C     0.52690   0.69054   0.77871   0.00000  Uiso   1.00
C870   C     0.47349   0.97606   0.72089   0.00000  Uiso   1.00
C871   C     0.47310   0.69054   0.72129   0.00000  Uiso   1.00
C872   C     0.52651   0.97606   0.77911   0.00000  Uiso   1.00
C873   C     0.35402   0.79263   0.75815   0.00000  Uiso   1.00
C874   C     0.64592   0.87443   0.74201   0.00000  Uiso   1.00
C875   C     0.64598   0.79263   0.74186   0.00000  Uiso   1.00
C876   C     0.35408   0.87443   0.75799   0.00000  Uiso   1.00
C877   C     0.51346   0.87286   0.54829   0.00000  Uiso   1.00
C878   C     0.51278   0.79633   0.95389   0.00000  Uiso   1.00
C879   C     0.48666   0.87289   0.95173   0.00000  Uiso   1.00
C880   C     0.48720   0.79636   0.54610   0.00000  Uiso   1.00
C881   C     0.51346   0.87245   0.59426   0.00000  Uiso   1.00
C882   C     0.51157   0.79551   0.90803   0.00000  Uiso   1.00
C883   C     0.48664   0.87248   0.90576   0.00000  Uiso   1.00
C884   C     0.48840   0.79554   0.59196   0.00000  Uiso   1.00
C885   C     0.50086   0.83373   0.61615   0.00000  Uiso   1.00
C886   C     0.49916   0.83373   0.88386   0.00000  Uiso   1.00
C887   C     0.50006   0.83486   0.52410   0.00000  Uiso   1.00
C888   C     0.50000   0.83486   0.97591   0.00000  Uiso   1.00
C889   C     0.62421   0.83349   0.73897   0.00000  Uiso   1.00
C890   C     0.37579   0.83349   0.76103   0.00000  Uiso   1.00
H891   H     0.52428   0.90257   0.53175   0.00000  Uiso   1.00
H892   H     0.52388   0.76689   0.97209   0.00000  Uiso   1.00
H893   H     0.47590   0.90262   0.96828   0.00000  Uiso   1.00
H894   H     0.47606   0.76694   0.52790   0.00000  Uiso   1.00
H895   H     0.52377   0.90209   0.61262   0.00000  Uiso   1.00
H896   H     0.52084   0.76519   0.89175   0.00000  Uiso   1.00
H897   H     0.47638   0.90214   0.88740   0.00000  Uiso   1.00
H898   H     0.47906   0.76524   0.60824   0.00000  Uiso   1.00
N899   N     0.50000   0.95240   0.75000   0.00000  Uiso   1.00
N900   N     0.50000   0.71427   0.75000   0.00000  Uiso   1.00
O901   O     0.43892   0.87154   0.74999   0.00000  Uiso   1.00
O902   O     0.56108   0.79513   0.75001   0.00000  Uiso   1.00
O903   O     0.56108   0.87154   0.75001   0.00000  Uiso   1.00
O904   O     0.43892   0.79513   0.74999   0.00000  Uiso   1.00
O905   O     0.50000   0.87155   0.68453   0.00000  Uiso   1.00
O906   O     0.50000   0.79511   0.81547   0.00000  Uiso   1.00
O907   O     0.50000   0.87155   0.81547   0.00000  Uiso   1.00
O908   O     0.50000   0.79511   0.68453   0.00000  Uiso   1.00
Zn909  Zn    0.50000   0.88437   0.75000   0.00000  Uiso   1.00
Zn910  Zn    0.50000   0.78229   0.75000   0.00000  Uiso   1.00
I911   I     0.57065   0.72482   0.82324   0.00000  Uiso   1.00
I912   I     0.43213   0.94144   0.67389   0.00000  Uiso   1.00
I913   I     0.42934   0.72482   0.67676   0.00000  Uiso   1.00
I914   I     0.56787   0.94144   0.82611   0.00000  Uiso   1.00
I915   I     0.37817   0.73333   0.79052   0.00000  Uiso   1.00
I916   I     0.62114   0.93422   0.71096   0.00000  Uiso   1.00
I917   I     0.62183   0.73333   0.70950   0.00000  Uiso   1.00
I918   I     0.37885   0.93423   0.78902   0.00000  Uiso   1.00
C919   C     0.75377   0.83336   0.75544   0.00000  Uiso   1.00
C920   C     0.91290   0.83336   0.74456   0.00000  Uiso   1.00
C921   C     0.83363   0.83339   0.66404   0.00000  Uiso   1.00
C922   C     0.83304   0.83339   0.83596   0.00000  Uiso   1.00
C923   C     0.86023   0.69054   0.77871   0.00000  Uiso   1.00
C924   C     0.80682   0.97606   0.72089   0.00000  Uiso   1.00
C925   C     0.80644   0.69054   0.72129   0.00000  Uiso   1.00
C926   C     0.85985   0.97606   0.77911   0.00000  Uiso   1.00
C927   C     0.68735   0.79263   0.75815   0.00000  Uiso   1.00
C928   C     0.97925   0.87443   0.74201   0.00000  Uiso   1.00
C929   C     0.97931   0.79263   0.74186   0.00000  Uiso   1.00
C930   C     0.68742   0.87443   0.75799   0.00000  Uiso   1.00
C931   C     0.84679   0.87286   0.54829   0.00000  Uiso   1.00
C932   C     0.84612   0.79633   0.95389   0.00000  Uiso   1.00
C933   C     0.82000   0.87289   0.95173   0.00000  Uiso   1.00
C934   C     0.82054   0.79636   0.54610   0.00000  Uiso   1.00
C935   C     0.84679   0.87245   0.59426   0.00000  Uiso   1.00
C936   C     0.84490   0.79551   0.90803   0.00000  Uiso   1.00
C937   C     0.81998   0.87248   0.90576   0.00000  Uiso   1.00
C938   C     0.82173   0.79554   0.59196   0.00000  Uiso   1.00
C939   C     0.83420   0.83373   0.61615   0.00000  Uiso   1.00
C940   C     0.83249   0.83373   0.88386   0.00000  Uiso   1.00
C941   C     0.83340   0.83486   0.52410   0.00000  Uiso   1.00
C942   C     0.83333   0.83486   0.97591   0.00000  Uiso   1.00
C943   C     0.95754   0.83349   0.73897   0.00000  Uiso   1.00
C944   C     0.70912   0.83349   0.76103   0.00000  Uiso   1.00
H945   H     0.85761   0.90257   0.53175   0.00000  Uiso   1.00
H946   H     0.85721   0.76689   0.97209   0.00000  Uiso   1.00
H947   H     0.80924   0.90262   0.96828   0.00000  Uiso   1.00
H948   H     0.80939   0.76694   0.52790   0.00000  Uiso   1.00
H949   H     0.85710   0.90209   0.61262   0.00000  Uiso   1.00
H950   H     0.85417   0.76519   0.89175   0.00000  Uiso   1.00
H951   H     0.80971   0.90214   0.88740   0.00000  Uiso   1.00
H952   H     0.81240   0.76524   0.60824   0.00000  Uiso   1.00
N953   N     0.83333   0.95240   0.75000   0.00000  Uiso   1.00
N954   N     0.83333   0.71427   0.75000   0.00000  Uiso   1.00
O955   O     0.77226   0.87154   0.74999   0.00000  Uiso   1.00
O956   O     0.89441   0.79513   0.75001   0.00000  Uiso   1.00
O957   O     0.89441   0.87154   0.75001   0.00000  Uiso   1.00
O958   O     0.77226   0.79513   0.74999   0.00000  Uiso   1.00
O959   O     0.83333   0.87155   0.68453   0.00000  Uiso   1.00
O960   O     0.83334   0.79511   0.81547   0.00000  Uiso   1.00
O961   O     0.83334   0.87155   0.81547   0.00000  Uiso   1.00
O962   O     0.83333   0.79511   0.68453   0.00000  Uiso   1.00
Zn963  Zn    0.83333   0.88437   0.75000   0.00000  Uiso   1.00
Zn964  Zn    0.83333   0.78229   0.75000   0.00000  Uiso   1.00
I965   I     0.90399   0.72482   0.82324   0.00000  Uiso   1.00
I966   I     0.76547   0.94144   0.67389   0.00000  Uiso   1.00
I967   I     0.76267   0.72482   0.67676   0.00000  Uiso   1.00
I968   I     0.90120   0.94144   0.82611   0.00000  Uiso   1.00
I969   I     0.71151   0.73333   0.79052   0.00000  Uiso   1.00
I970   I     0.95448   0.93422   0.71096   0.00000  Uiso   1.00
I971   I     0.95516   0.73333   0.70950   0.00000  Uiso   1.00
I972   I     0.71219   0.93423   0.78902   0.00000  Uiso   1.00
loop_
_geom_bond_atom_site_label_1
_geom_bond_atom_site_label_2
_geom_bond_distance
_geom_bond_site_symmetry_2
_ccdc_geom_bond_type
C1     O37     1.298   .     A
C1     C26     1.444   .     S
C1     O40     1.299   .     A
C2     O38     1.299   .     A
C2     C25     1.444   .     S
C2     O39     1.298   .     A
C3     O44     1.298   .     A
C3     C21     1.441   .     S
C3     O41     1.295   .     A
C4     O43     1.295   .     A
C4     C22     1.441   .     S
C4     O42     1.298   .     A
C5     I47     2.137   .     S
C5     N36     1.376   .     A
C5     C332    1.427   1_545 S
C6     N35     1.375   .     A
C6     I48     2.140   .     S
C6     C169    1.427   .     S
C7     N36     1.376   .     A
C7     I49     2.137   .     S
C7     C330    1.427   1_545 S
C8     I50     2.140   .     S
C8     N35     1.375   .     A
C8     C167    1.427   .     S
C9     C26     1.403   .     A
C9     I51     2.141   .     S
C9     C119    1.380   1_455 S
C10    I52     2.143   .     S
C10    C25     1.405   .     A
C10    C66     1.381   .     S
C11    I53     2.141   .     S
C11    C25     1.403   .     A
C11    C63     1.380   .     S
C12    I54     2.143   .     S
C12    C26     1.405   .     A
C12    C118    1.381   1_455 S
C13    C17     1.382   .     A
C13    C23     1.400   .     A
C13    H27     1.083   .     S
C14    C24     1.400   .     A
C14    C18     1.377   .     A
C14    H28     1.083   .     S
C15    C24     1.400   .     A
C15    C19     1.382   .     A
C15    H29     1.083   .     S
C16    C23     1.400   .     A
C16    C20     1.377   .     A
C16    H30     1.083   .     S
C17    H31     1.084   .     S
C17    C21     1.401   .     A
C18    H32     1.079   .     S
C18    C22     1.397   .     A
C19    H33     1.084   .     S
C19    C22     1.401   .     A
C20    H34     1.079   .     S
C20    C21     1.397   .     A
C23    C510    1.449   1_554 S
C24    C509    1.449   .     S
N35    Zn45    2.030   .     S
N36    Zn46    2.030   .     S
O37    Zn45    1.985   .     S
O38    Zn46    1.985   .     S
O39    Zn45    1.985   .     S
O40    Zn46    1.985   .     S
O41    Zn45    2.006   .     S
O42    Zn46    2.006   .     S
O43    Zn45    2.006   .     S
O44    Zn46    2.006   .     S
C55    O91     1.298   .     A
C55    C80     1.444   .     S
C55    O94     1.299   .     A
C56    O92     1.299   .     A
C56    C79     1.444   .     S
C56    O93     1.298   .     A
C57    O98     1.298   .     A
C57    C75     1.441   .     S
C57    O95     1.295   .     A
C58    O97     1.295   .     A
C58    C76     1.441   .     S
C58    O96     1.298   .     A
C59    I101    2.137   .     S
C59    N90     1.376   .     A
C59    C386    1.427   1_545 S
C60    N89     1.375   .     A
C60    I102    2.140   .     S
C60    C223    1.427   .     S
C61    N90     1.376   .     A
C61    I103    2.137   .     S
C61    C384    1.427   1_545 S
C62    I104    2.140   .     S
C62    N89     1.375   .     A
C62    C221    1.427   .     S
C63    C80     1.403   .     A
C63    I105    2.141   .     S
C64    I106    2.143   .     S
C64    C79     1.405   .     A
C64    C120    1.381   .     S
C65    I107    2.141   .     S
C65    C79     1.403   .     A
C65    C117    1.380   .     S
C66    I108    2.143   .     S
C66    C80     1.405   .     A
C67    C71     1.382   .     A
C67    C77     1.400   .     A
C67    H81     1.083   .     S
C68    C78     1.400   .     A
C68    C72     1.377   .     A
C68    H82     1.083   .     S
C69    C78     1.400   .     A
C69    C73     1.382   .     A
C69    H83     1.083   .     S
C70    C77     1.400   .     A
C70    C74     1.377   .     A
C70    H84     1.083   .     S
C71    H85     1.084   .     S
C71    C75     1.401   .     A
C72    H86     1.079   .     S
C72    C76     1.397   .     A
C73    H87     1.084   .     S
C73    C76     1.401   .     A
C74    H88     1.079   .     S
C74    C75     1.397   .     A
C77    C564    1.449   1_554 S
C78    C563    1.449   .     S
N89    Zn99    2.030   .     S
N90    Zn100   2.030   .     S
O91    Zn99    1.985   .     S
O92    Zn100   1.985   .     S
O93    Zn99    1.985   .     S
O94    Zn100   1.985   .     S
O95    Zn99    2.006   .     S
O96    Zn100   2.006   .     S
O97    Zn99    2.006   .     S
O98    Zn100   2.006   .     S
C109   O145    1.298   .     A
C109   C134    1.444   .     S
C109   O148    1.299   .     A
C110   O146    1.299   .     A
C110   C133    1.444   .     S
C110   O147    1.298   .     A
C111   O152    1.298   .     A
C111   C129    1.441   .     S
C111   O149    1.295   .     A
C112   O151    1.295   .     A
C112   C130    1.441   .     S
C112   O150    1.298   .     A
C113   I155    2.137   .     S
C113   N144    1.376   .     A
C113   C440    1.427   1_545 S
C114   N143    1.375   .     A
C114   I156    2.140   .     S
C114   C277    1.427   .     S
C115   N144    1.376   .     A
C115   I157    2.137   .     S
C115   C438    1.427   1_545 S
C116   I158    2.140   .     S
C116   N143    1.375   .     A
C116   C275    1.427   .     S
C117   C134    1.403   .     A
C117   I159    2.141   .     S
C118   I160    2.143   .     S
C118   C133    1.405   .     A
C118   C12     1.381   1_655 S
C119   I161    2.141   .     S
C119   C133    1.403   .     A
C119   C9      1.380   1_655 S
C120   I162    2.143   .     S
C120   C134    1.405   .     A
C121   C125    1.382   .     A
C121   C131    1.400   .     A
C121   H135    1.083   .     S
C122   C132    1.400   .     A
C122   C126    1.377   .     A
C122   H136    1.083   .     S
C123   C132    1.400   .     A
C123   C127    1.382   .     A
C123   H137    1.083   .     S
C124   C131    1.400   .     A
C124   C128    1.377   .     A
C124   H138    1.083   .     S
C125   H139    1.084   .     S
C125   C129    1.401   .     A
C126   H140    1.079   .     S
C126   C130    1.397   .     A
C127   H141    1.084   .     S
C127   C130    1.401   .     A
C128   H142    1.079   .     S
C128   C129    1.397   .     A
C131   C618    1.449   1_554 S
C132   C617    1.449   .     S
N143   Zn153   2.030   .     S
N144   Zn154   2.030   .     S
O145   Zn153   1.985   .     S
O146   Zn154   1.985   .     S
O147   Zn153   1.985   .     S
O148   Zn154   1.985   .     S
O149   Zn153   2.006   .     S
O150   Zn154   2.006   .     S
O151   Zn153   2.006   .     S
O152   Zn154   2.006   .     S
C163   O199    1.298   .     A
C163   C188    1.444   .     S
C163   O202    1.299   .     A
C164   O200    1.299   .     A
C164   C187    1.444   .     S
C164   O201    1.298   .     A
C165   O206    1.298   .     A
C165   C183    1.441   .     S
C165   O203    1.295   .     A
C166   O205    1.295   .     A
C166   C184    1.441   .     S
C166   O204    1.298   .     A
C167   I209    2.137   .     S
C167   N198    1.376   .     A
C168   N197    1.375   .     A
C168   I210    2.140   .     S
C168   C331    1.427   .     S
C169   N198    1.376   .     A
C169   I211    2.137   .     S
C170   I212    2.140   .     S
C170   N197    1.375   .     A
C170   C329    1.427   .     S
C171   C188    1.403   .     A
C171   I213    2.141   .     S
C171   C281    1.380   1_455 S
C172   I214    2.143   .     S
C172   C187    1.405   .     A
C172   C228    1.381   .     S
C173   I215    2.141   .     S
C173   C187    1.403   .     A
C173   C225    1.380   .     S
C174   I216    2.143   .     S
C174   C188    1.405   .     A
C174   C280    1.381   1_455 S
C175   C179    1.382   .     A
C175   C185    1.400   .     A
C175   H189    1.083   .     S
C176   C186    1.400   .     A
C176   C180    1.377   .     A
C176   H190    1.083   .     S
C177   C186    1.400   .     A
C177   C181    1.382   .     A
C177   H191    1.083   .     S
C178   C185    1.400   .     A
C178   C182    1.377   .     A
C178   H192    1.083   .     S
C179   H193    1.084   .     S
C179   C183    1.401   .     A
C180   H194    1.079   .     S
C180   C184    1.397   .     A
C181   H195    1.084   .     S
C181   C184    1.401   .     A
C182   H196    1.079   .     S
C182   C183    1.397   .     A
C185   C672    1.449   1_554 S
C186   C671    1.449   .     S
N197   Zn207   2.030   .     S
N198   Zn208   2.030   .     S
O199   Zn207   1.985   .     S
O200   Zn208   1.985   .     S
O201   Zn207   1.985   .     S
O202   Zn208   1.985   .     S
O203   Zn207   2.006   .     S
O204   Zn208   2.006   .     S
O205   Zn207   2.006   .     S
O206   Zn208   2.006   .     S
C217   O253    1.298   .     A
C217   C242    1.444   .     S
C217   O256    1.299   .     A
C218   O254    1.299   .     A
C218   C241    1.444   .     S
C218   O255    1.298   .     A
C219   O260    1.298   .     A
C219   C237    1.441   .     S
C219   O257    1.295   .     A
C220   O259    1.295   .     A
C220   C238    1.441   .     S
C220   O258    1.298   .     A
C221   I263    2.137   .     S
C221   N252    1.376   .     A
C222   N251    1.375   .     A
C222   I264    2.140   .     S
C222   C385    1.427   .     S
C223   N252    1.376   .     A
C223   I265    2.137   .     S
C224   I266    2.140   .     S
C224   N251    1.375   .     A
C224   C383    1.427   .     S
C225   C242    1.403   .     A
C225   I267    2.141   .     S
C226   I268    2.143   .     S
C226   C241    1.405   .     A
C226   C282    1.381   .     S
C227   I269    2.141   .     S
C227   C241    1.403   .     A
C227   C279    1.380   .     S
C228   I270    2.143   .     S
C228   C242    1.405   .     A
C229   C233    1.382   .     A
C229   C239    1.400   .     A
C229   H243    1.083   .     S
C230   C240    1.400   .     A
C230   C234    1.377   .     A
C230   H244    1.083   .     S
C231   C240    1.400   .     A
C231   C235    1.382   .     A
C231   H245    1.083   .     S
C232   C239    1.400   .     A
C232   C236    1.377   .     A
C232   H246    1.083   .     S
C233   H247    1.084   .     S
C233   C237    1.401   .     A
C234   H248    1.079   .     S
C234   C238    1.397   .     A
C235   H249    1.084   .     S
C235   C238    1.401   .     A
C236   H250    1.079   .     S
C236   C237    1.397   .     A
C239   C726    1.449   1_554 S
C240   C725    1.449   .     S
N251   Zn261   2.030   .     S
N252   Zn262   2.030   .     S
O253   Zn261   1.985   .     S
O254   Zn262   1.985   .     S
O255   Zn261   1.985   .     S
O256   Zn262   1.985   .     S
O257   Zn261   2.006   .     S
O258   Zn262   2.006   .     S
O259   Zn261   2.006   .     S
O260   Zn262   2.006   .     S
C271   O307    1.298   .     A
C271   C296    1.444   .     S
C271   O310    1.299   .     A
C272   O308    1.299   .     A
C272   C295    1.444   .     S
C272   O309    1.298   .     A
C273   O314    1.298   .     A
C273   C291    1.441   .     S
C273   O311    1.295   .     A
C274   O313    1.295   .     A
C274   C292    1.441   .     S
C274   O312    1.298   .     A
C275   I317    2.137   .     S
C275   N306    1.376   .     A
C276   N305    1.375   .     A
C276   I318    2.140   .     S
C276   C439    1.427   .     S
C277   N306    1.376   .     A
C277   I319    2.137   .     S
C278   I320    2.140   .     S
C278   N305    1.375   .     A
C278   C437    1.427   .     S
C279   C296    1.403   .     A
C279   I321    2.141   .     S
C280   I322    2.143   .     S
C280   C295    1.405   .     A
C280   C174    1.381   1_655 S
C281   I323    2.141   .     S
C281   C295    1.403   .     A
C281   C171    1.380   1_655 S
C282   I324    2.143   .     S
C282   C296    1.405   .     A
C283   C287    1.382   .     A
C283   C293    1.400   .     A
C283   H297    1.083   .     S
C284   C294    1.400   .     A
C284   C288    1.377   .     A
C284   H298    1.083   .     S
C285   C294    1.400   .     A
C285   C289    1.382   .     A
C285   H299    1.083   .     S
C286   C293    1.400   .     A
C286   C290    1.377   .     A
C286   H300    1.083   .     S
C287   H301    1.084   .     S
C287   C291    1.401   .     A
C288   H302    1.079   .     S
C288   C292    1.397   .     A
C289   H303    1.084   .     S
C289   C292    1.401   .     A
C290   H304    1.079   .     S
C290   C291    1.397   .     A
C293   C780    1.449   1_554 S
C294   C779    1.449   .     S
N305   Zn315   2.030   .     S
N306   Zn316   2.030   .     S
O307   Zn315   1.985   .     S
O308   Zn316   1.985   .     S
O309   Zn315   1.985   .     S
O310   Zn316   1.985   .     S
O311   Zn315   2.006   .     S
O312   Zn316   2.006   .     S
O313   Zn315   2.006   .     S
O314   Zn316   2.006   .     S
C325   O361    1.298   .     A
C325   C350    1.444   .     S
C325   O364    1.299   .     A
C326   O362    1.299   .     A
C326   C349    1.444   .     S
C326   O363    1.298   .     A
C327   O368    1.298   .     A
C327   C345    1.441   .     S
C327   O365    1.295   .     A
C328   O367    1.295   .     A
C328   C346    1.441   .     S
C328   O366    1.298   .     A
C329   I371    2.137   .     S
C329   N360    1.376   .     A
C330   N359    1.375   .     A
C330   I372    2.140   .     S
C330   C7      1.427   1_565 S
C331   N360    1.376   .     A
C331   I373    2.137   .     S
C332   I374    2.140   .     S
C332   N359    1.375   .     A
C332   C5      1.427   1_565 S
C333   C350    1.403   .     A
C333   I375    2.141   .     S
C333   C443    1.380   1_455 S
C334   I376    2.143   .     S
C334   C349    1.405   .     A
C334   C390    1.381   .     S
C335   I377    2.141   .     S
C335   C349    1.403   .     A
C335   C387    1.380   .     S
C336   I378    2.143   .     S
C336   C350    1.405   .     A
C336   C442    1.381   1_455 S
C337   C341    1.382   .     A
C337   C347    1.400   .     A
C337   H351    1.083   .     S
C338   C348    1.400   .     A
C338   C342    1.377   .     A
C338   H352    1.083   .     S
C339   C348    1.400   .     A
C339   C343    1.382   .     A
C339   H353    1.083   .     S
C340   C347    1.400   .     A
C340   C344    1.377   .     A
C340   H354    1.083   .     S
C341   H355    1.084   .     S
C341   C345    1.401   .     A
C342   H356    1.079   .     S
C342   C346    1.397   .     A
C343   H357    1.084   .     S
C343   C346    1.401   .     A
C344   H358    1.079   .     S
C344   C345    1.397   .     A
C347   C834    1.449   1_554 S
C348   C833    1.449   .     S
N359   Zn369   2.030   .     S
N360   Zn370   2.030   .     S
O361   Zn369   1.985   .     S
O362   Zn370   1.985   .     S
O363   Zn369   1.985   .     S
O364   Zn370   1.985   .     S
O365   Zn369   2.006   .     S
O366   Zn370   2.006   .     S
O367   Zn369   2.006   .     S
O368   Zn370   2.006   .     S
C379   O415    1.298   .     A
C379   C404    1.444   .     S
C379   O418    1.299   .     A
C380   O416    1.299   .     A
C380   C403    1.444   .     S
C380   O417    1.298   .     A
C381   O422    1.298   .     A
C381   C399    1.441   .     S
C381   O419    1.295   .     A
C382   O421    1.295   .     A
C382   C400    1.441   .     S
C382   O420    1.298   .     A
C383   I425    2.137   .     S
C383   N414    1.376   .     A
C384   N413    1.375   .     A
C384   I426    2.140   .     S
C384   C61     1.427   1_565 S
C385   N414    1.376   .     A
C385   I427    2.137   .     S
C386   I428    2.140   .     S
C386   N413    1.375   .     A
C386   C59     1.427   1_565 S
C387   C404    1.403   .     A
C387   I429    2.141   .     S
C388   I430    2.143   .     S
C388   C403    1.405   .     A
C388   C444    1.381   .     S
C389   I431    2.141   .     S
C389   C403    1.403   .     A
C389   C441    1.380   .     S
C390   I432    2.143   .     S
C390   C404    1.405   .     A
C391   C395    1.382   .     A
C391   C401    1.400   .     A
C391   H405    1.083   .     S
C392   C402    1.400   .     A
C392   C396    1.377   .     A
C392   H406    1.083   .     S
C393   C402    1.400   .     A
C393   C397    1.382   .     A
C393   H407    1.083   .     S
C394   C401    1.400   .     A
C394   C398    1.377   .     A
C394   H408    1.083   .     S
C395   H409    1.084   .     S
C395   C399    1.401   .     A
C396   H410    1.079   .     S
C396   C400    1.397   .     A
C397   H411    1.084   .     S
C397   C400    1.401   .     A
C398   H412    1.079   .     S
C398   C399    1.397   .     A
C401   C888    1.449   1_554 S
C402   C887    1.449   .     S
N413   Zn423   2.030   .     S
N414   Zn424   2.030   .     S
O415   Zn423   1.985   .     S
O416   Zn424   1.985   .     S
O417   Zn423   1.985   .     S
O418   Zn424   1.985   .     S
O419   Zn423   2.006   .     S
O420   Zn424   2.006   .     S
O421   Zn423   2.006   .     S
O422   Zn424   2.006   .     S
C433   O469    1.298   .     A
C433   C458    1.444   .     S
C433   O472    1.299   .     A
C434   O470    1.299   .     A
C434   C457    1.444   .     S
C434   O471    1.298   .     A
C435   O476    1.298   .     A
C435   C453    1.441   .     S
C435   O473    1.295   .     A
C436   O475    1.295   .     A
C436   C454    1.441   .     S
C436   O474    1.298   .     A
C437   I479    2.137   .     S
C437   N468    1.376   .     A
C438   N467    1.375   .     A
C438   I480    2.140   .     S
C438   C115    1.427   1_565 S
C439   N468    1.376   .     A
C439   I481    2.137   .     S
C440   I482    2.140   .     S
C440   N467    1.375   .     A
C440   C113    1.427   1_565 S
C441   C458    1.403   .     A
C441   I483    2.141   .     S
C442   I484    2.143   .     S
C442   C457    1.405   .     A
C442   C336    1.381   1_655 S
C443   I485    2.141   .     S
C443   C457    1.403   .     A
C443   C333    1.380   1_655 S
C444   I486    2.143   .     S
C444   C458    1.405   .     A
C445   C449    1.382   .     A
C445   C455    1.400   .     A
C445   H459    1.083   .     S
C446   C456    1.400   .     A
C446   C450    1.377   .     A
C446   H460    1.083   .     S
C447   C456    1.400   .     A
C447   C451    1.382   .     A
C447   H461    1.083   .     S
C448   C455    1.400   .     A
C448   C452    1.377   .     A
C448   H462    1.083   .     S
C449   H463    1.084   .     S
C449   C453    1.401   .     A
C450   H464    1.079   .     S
C450   C454    1.397   .     A
C451   H465    1.084   .     S
C451   C454    1.401   .     A
C452   H466    1.079   .     S
C452   C453    1.397   .     A
C455   C942    1.449   1_554 S
C456   C941    1.449   .     S
N467   Zn477   2.030   .     S
N468   Zn478   2.030   .     S
O469   Zn477   1.985   .     S
O470   Zn478   1.985   .     S
O471   Zn477   1.985   .     S
O472   Zn478   1.985   .     S
O473   Zn477   2.006   .     S
O474   Zn478   2.006   .     S
O475   Zn477   2.006   .     S
O476   Zn478   2.006   .     S
C487   O523    1.298   .     A
C487   C512    1.444   .     S
C487   O526    1.299   .     A
C488   O524    1.299   .     A
C488   C511    1.444   .     S
C488   O525    1.298   .     A
C489   O530    1.298   .     A
C489   C507    1.441   .     S
C489   O527    1.295   .     A
C490   O529    1.295   .     A
C490   C508    1.441   .     S
C490   O528    1.298   .     A
C491   I533    2.137   .     S
C491   N522    1.376   .     A
C491   C818    1.427   1_545 S
C492   N521    1.375   .     A
C492   I534    2.140   .     S
C492   C655    1.427   .     S
C493   N522    1.376   .     A
C493   I535    2.137   .     S
C493   C816    1.427   1_545 S
C494   I536    2.140   .     S
C494   N521    1.375   .     A
C494   C653    1.427   .     S
C495   C512    1.403   .     A
C495   I537    2.141   .     S
C495   C605    1.380   1_455 S
C496   I538    2.143   .     S
C496   C511    1.405   .     A
C496   C552    1.381   .     S
C497   I539    2.141   .     S
C497   C511    1.403   .     A
C497   C549    1.380   .     S
C498   I540    2.143   .     S
C498   C512    1.405   .     A
C498   C604    1.381   1_455 S
C499   C503    1.382   .     A
C499   C509    1.400   .     A
C499   H513    1.083   .     S
C500   C510    1.400   .     A
C500   C504    1.377   .     A
C500   H514    1.083   .     S
C501   C510    1.400   .     A
C501   C505    1.382   .     A
C501   H515    1.083   .     S
C502   C509    1.400   .     A
C502   C506    1.377   .     A
C502   H516    1.083   .     S
C503   H517    1.084   .     S
C503   C507    1.401   .     A
C504   H518    1.079   .     S
C504   C508    1.397   .     A
C505   H519    1.084   .     S
C505   C508    1.401   .     A
C506   H520    1.079   .     S
C506   C507    1.397   .     A
C510   C23     1.449   1_556 S
N521   Zn531   2.030   .     S
N522   Zn532   2.030   .     S
O523   Zn531   1.985   .     S
O524   Zn532   1.985   .     S
O525   Zn531   1.985   .     S
O526   Zn532   1.985   .     S
O527   Zn531   2.006   .     S
O528   Zn532   2.006   .     S
O529   Zn531   2.006   .     S
O530   Zn532   2.006   .     S
C541   O577    1.298   .     A
C541   C566    1.444   .     S
C541   O580    1.299   .     A
C542   O578    1.299   .     A
C542   C565    1.444   .     S
C542   O579    1.298   .     A
C543   O584    1.298   .     A
C543   C561    1.441   .     S
C543   O581    1.295   .     A
C544   O583    1.295   .     A
C544   C562    1.441   .     S
C544   O582    1.298   .     A
C545   I587    2.137   .     S
C545   N576    1.376   .     A
C545   C872    1.427   1_545 S
C546   N575    1.375   .     A
C546   I588    2.140   .     S
C546   C709    1.427   .     S
C547   N576    1.376   .     A
C547   I589    2.137   .     S
C547   C870    1.427   1_545 S
C548   I590    2.140   .     S
C548   N575    1.375   .     A
C548   C707    1.427   .     S
C549   C566    1.403   .     A
C549   I591    2.141   .     S
C550   I592    2.143   .     S
C550   C565    1.405   .     A
C550   C606    1.381   .     S
C551   I593    2.141   .     S
C551   C565    1.403   .     A
C551   C603    1.380   .     S
C552   I594    2.143   .     S
C552   C566    1.405   .     A
C553   C557    1.382   .     A
C553   C563    1.400   .     A
C553   H567    1.083   .     S
C554   C564    1.400   .     A
C554   C558    1.377   .     A
C554   H568    1.083   .     S
C555   C564    1.400   .     A
C555   C559    1.382   .     A
C555   H569    1.083   .     S
C556   C563    1.400   .     A
C556   C560    1.377   .     A
C556   H570    1.083   .     S
C557   H571    1.084   .     S
C557   C561    1.401   .     A
C558   H572    1.079   .     S
C558   C562    1.397   .     A
C559   H573    1.084   .     S
C559   C562    1.401   .     A
C560   H574    1.079   .     S
C560   C561    1.397   .     A
C564   C77     1.449   1_556 S
N575   Zn585   2.030   .     S
N576   Zn586   2.030   .     S
O577   Zn585   1.985   .     S
O578   Zn586   1.985   .     S
O579   Zn585   1.985   .     S
O580   Zn586   1.985   .     S
O581   Zn585   2.006   .     S
O582   Zn586   2.006   .     S
O583   Zn585   2.006   .     S
O584   Zn586   2.006   .     S
C595   O631    1.298   .     A
C595   C620    1.444   .     S
C595   O634    1.299   .     A
C596   O632    1.299   .     A
C596   C619    1.444   .     S
C596   O633    1.298   .     A
C597   O638    1.298   .     A
C597   C615    1.441   .     S
C597   O635    1.295   .     A
C598   O637    1.295   .     A
C598   C616    1.441   .     S
C598   O636    1.298   .     A
C599   I641    2.137   .     S
C599   N630    1.376   .     A
C599   C926    1.427   1_545 S
C600   N629    1.375   .     A
C600   I642    2.140   .     S
C600   C763    1.427   .     S
C601   N630    1.376   .     A
C601   I643    2.137   .     S
C601   C924    1.427   1_545 S
C602   I644    2.140   .     S
C602   N629    1.375   .     A
C602   C761    1.427   .     S
C603   C620    1.403   .     A
C603   I645    2.141   .     S
C604   I646    2.143   .     S
C604   C619    1.405   .     A
C604   C498    1.381   1_655 S
C605   I647    2.141   .     S
C605   C619    1.403   .     A
C605   C495    1.380   1_655 S
C606   I648    2.143   .     S
C606   C620    1.405   .     A
C607   C611    1.382   .     A
C607   C617    1.400   .     A
C607   H621    1.083   .     S
C608   C618    1.400   .     A
C608   C612    1.377   .     A
C608   H622    1.083   .     S
C609   C618    1.400   .     A
C609   C613    1.382   .     A
C609   H623    1.083   .     S
C610   C617    1.400   .     A
C610   C614    1.377   .     A
C610   H624    1.083   .     S
C611   H625    1.084   .     S
C611   C615    1.401   .     A
C612   H626    1.079   .     S
C612   C616    1.397   .     A
C613   H627    1.084   .     S
C613   C616    1.401   .     A
C614   H628    1.079   .     S
C614   C615    1.397   .     A
C618   C131    1.449   1_556 S
N629   Zn639   2.030   .     S
N630   Zn640   2.030   .     S
O631   Zn639   1.985   .     S
O632   Zn640   1.985   .     S
O633   Zn639   1.985   .     S
O634   Zn640   1.985   .     S
O635   Zn639   2.006   .     S
O636   Zn640   2.006   .     S
O637   Zn639   2.006   .     S
O638   Zn640   2.006   .     S
C649   O685    1.298   .     A
C649   C674    1.444   .     S
C649   O688    1.299   .     A
C650   O686    1.299   .     A
C650   C673    1.444   .     S
C650   O687    1.298   .     A
C651   O692    1.298   .     A
C651   C669    1.441   .     S
C651   O689    1.295   .     A
C652   O691    1.295   .     A
C652   C670    1.441   .     S
C652   O690    1.298   .     A
C653   I695    2.137   .     S
C653   N684    1.376   .     A
C654   N683    1.375   .     A
C654   I696    2.140   .     S
C654   C817    1.427   .     S
C655   N684    1.376   .     A
C655   I697    2.137   .     S
C656   I698    2.140   .     S
C656   N683    1.375   .     A
C656   C815    1.427   .     S
C657   C674    1.403   .     A
C657   I699    2.141   .     S
C657   C767    1.380   1_455 S
C658   I700    2.143   .     S
C658   C673    1.405   .     A
C658   C714    1.381   .     S
C659   I701    2.141   .     S
C659   C673    1.403   .     A
C659   C711    1.380   .     S
C660   I702    2.143   .     S
C660   C674    1.405   .     A
C660   C766    1.381   1_455 S
C661   C665    1.382   .     A
C661   C671    1.400   .     A
C661   H675    1.083   .     S
C662   C672    1.400   .     A
C662   C666    1.377   .     A
C662   H676    1.083   .     S
C663   C672    1.400   .     A
C663   C667    1.382   .     A
C663   H677    1.083   .     S
C664   C671    1.400   .     A
C664   C668    1.377   .     A
C664   H678    1.083   .     S
C665   H679    1.084   .     S
C665   C669    1.401   .     A
C666   H680    1.079   .     S
C666   C670    1.397   .     A
C667   H681    1.084   .     S
C667   C670    1.401   .     A
C668   H682    1.079   .     S
C668   C669    1.397   .     A
C672   C185    1.449   1_556 S
N683   Zn693   2.030   .     S
N684   Zn694   2.030   .     S
O685   Zn693   1.985   .     S
O686   Zn694   1.985   .     S
O687   Zn693   1.985   .     S
O688   Zn694   1.985   .     S
O689   Zn693   2.006   .     S
O690   Zn694   2.006   .     S
O691   Zn693   2.006   .     S
O692   Zn694   2.006   .     S
C703   O739    1.298   .     A
C703   C728    1.444   .     S
C703   O742    1.299   .     A
C704   O740    1.299   .     A
C704   C727    1.444   .     S
C704   O741    1.298   .     A
C705   O746    1.298   .     A
C705   C723    1.441   .     S
C705   O743    1.295   .     A
C706   O745    1.295   .     A
C706   C724    1.441   .     S
C706   O744    1.298   .     A
C707   I749    2.137   .     S
C707   N738    1.376   .     A
C708   N737    1.375   .     A
C708   I750    2.140   .     S
C708   C871    1.427   .     S
C709   N738    1.376   .     A
C709   I751    2.137   .     S
C710   I752    2.140   .     S
C710   N737    1.375   .     A
C710   C869    1.427   .     S
C711   C728    1.403   .     A
C711   I753    2.141   .     S
C712   I754    2.143   .     S
C712   C727    1.405   .     A
C712   C768    1.381   .     S
C713   I755    2.141   .     S
C713   C727    1.403   .     A
C713   C765    1.380   .     S
C714   I756    2.143   .     S
C714   C728    1.405   .     A
C715   C719    1.382   .     A
C715   C725    1.400   .     A
C715   H729    1.083   .     S
C716   C726    1.400   .     A
C716   C720    1.377   .     A
C716   H730    1.083   .     S
C717   C726    1.400   .     A
C717   C721    1.382   .     A
C717   H731    1.083   .     S
C718   C725    1.400   .     A
C718   C722    1.377   .     A
C718   H732    1.083   .     S
C719   H733    1.084   .     S
C719   C723    1.401   .     A
C720   H734    1.079   .     S
C720   C724    1.397   .     A
C721   H735    1.084   .     S
C721   C724    1.401   .     A
C722   H736    1.079   .     S
C722   C723    1.397   .     A
C726   C239    1.449   1_556 S
N737   Zn747   2.030   .     S
N738   Zn748   2.030   .     S
O739   Zn747   1.985   .     S
O740   Zn748   1.985   .     S
O741   Zn747   1.985   .     S
O742   Zn748   1.985   .     S
O743   Zn747   2.006   .     S
O744   Zn748   2.006   .     S
O745   Zn747   2.006   .     S
O746   Zn748   2.006   .     S
C757   O793    1.298   .     A
C757   C782    1.444   .     S
C757   O796    1.299   .     A
C758   O794    1.299   .     A
C758   C781    1.444   .     S
C758   O795    1.298   .     A
C759   O800    1.298   .     A
C759   C777    1.441   .     S
C759   O797    1.295   .     A
C760   O799    1.295   .     A
C760   C778    1.441   .     S
C760   O798    1.298   .     A
C761   I803    2.137   .     S
C761   N792    1.376   .     A
C762   N791    1.375   .     A
C762   I804    2.140   .     S
C762   C925    1.427   .     S
C763   N792    1.376   .     A
C763   I805    2.137   .     S
C764   I806    2.140   .     S
C764   N791    1.375   .     A
C764   C923    1.427   .     S
C765   C782    1.403   .     A
C765   I807    2.141   .     S
C766   I808    2.143   .     S
C766   C781    1.405   .     A
C766   C660    1.381   1_655 S
C767   I809    2.141   .     S
C767   C781    1.403   .     A
C767   C657    1.380   1_655 S
C768   I810    2.143   .     S
C768   C782    1.405   .     A
C769   C773    1.382   .     A
C769   C779    1.400   .     A
C769   H783    1.083   .     S
C770   C780    1.400   .     A
C770   C774    1.377   .     A
C770   H784    1.083   .     S
C771   C780    1.400   .     A
C771   C775    1.382   .     A
C771   H785    1.083   .     S
C772   C779    1.400   .     A
C772   C776    1.377   .     A
C772   H786    1.083   .     S
C773   H787    1.084   .     S
C773   C777    1.401   .     A
C774   H788    1.079   .     S
C774   C778    1.397   .     A
C775   H789    1.084   .     S
C775   C778    1.401   .     A
C776   H790    1.079   .     S
C776   C777    1.397   .     A
C780   C293    1.449   1_556 S
N791   Zn801   2.030   .     S
N792   Zn802   2.030   .     S
O793   Zn801   1.985   .     S
O794   Zn802   1.985   .     S
O795   Zn801   1.985   .     S
O796   Zn802   1.985   .     S
O797   Zn801   2.006   .     S
O798   Zn802   2.006   .     S
O799   Zn801   2.006   .     S
O800   Zn802   2.006   .     S
C811   O847    1.298   .     A
C811   C836    1.444   .     S
C811   O850    1.299   .     A
C812   O848    1.299   .     A
C812   C835    1.444   .     S
C812   O849    1.298   .     A
C813   O854    1.298   .     A
C813   C831    1.441   .     S
C813   O851    1.295   .     A
C814   O853    1.295   .     A
C814   C832    1.441   .     S
C814   O852    1.298   .     A
C815   I857    2.137   .     S
C815   N846    1.376   .     A
C816   N845    1.375   .     A
C816   I858    2.140   .     S
C816   C493    1.427   1_565 S
C817   N846    1.376   .     A
C817   I859    2.137   .     S
C818   I860    2.140   .     S
C818   N845    1.375   .     A
C818   C491    1.427   1_565 S
C819   C836    1.403   .     A
C819   I861    2.141   .     S
C819   C929    1.380   1_455 S
C820   I862    2.143   .     S
C820   C835    1.405   .     A
C820   C876    1.381   .     S
C821   I863    2.141   .     S
C821   C835    1.403   .     A
C821   C873    1.380   .     S
C822   I864    2.143   .     S
C822   C836    1.405   .     A
C822   C928    1.381   1_455 S
C823   C827    1.382   .     A
C823   C833    1.400   .     A
C823   H837    1.083   .     S
C824   C834    1.400   .     A
C824   C828    1.377   .     A
C824   H838    1.083   .     S
C825   C834    1.400   .     A
C825   C829    1.382   .     A
C825   H839    1.083   .     S
C826   C833    1.400   .     A
C826   C830    1.377   .     A
C826   H840    1.083   .     S
C827   H841    1.084   .     S
C827   C831    1.401   .     A
C828   H842    1.079   .     S
C828   C832    1.397   .     A
C829   H843    1.084   .     S
C829   C832    1.401   .     A
C830   H844    1.079   .     S
C830   C831    1.397   .     A
C834   C347    1.449   1_556 S
N845   Zn855   2.030   .     S
N846   Zn856   2.030   .     S
O847   Zn855   1.985   .     S
O848   Zn856   1.985   .     S
O849   Zn855   1.985   .     S
O850   Zn856   1.985   .     S
O851   Zn855   2.006   .     S
O852   Zn856   2.006   .     S
O853   Zn855   2.006   .     S
O854   Zn856   2.006   .     S
C865   O901    1.298   .     A
C865   C890    1.444   .     S
C865   O904    1.299   .     A
C866   O902    1.299   .     A
C866   C889    1.444   .     S
C866   O903    1.298   .     A
C867   O908    1.298   .     A
C867   C885    1.441   .     S
C867   O905    1.295   .     A
C868   O907    1.295   .     A
C868   C886    1.441   .     S
C868   O906    1.298   .     A
C869   I911    2.137   .     S
C869   N900    1.376   .     A
C870   N899    1.375   .     A
C870   I912    2.140   .     S
C870   C547    1.427   1_565 S
C871   N900    1.376   .     A
C871   I913    2.137   .     S
C872   I914    2.140   .     S
C872   N899    1.375   .     A
C872   C545    1.427   1_565 S
C873   C890    1.403   .     A
C873   I915    2.141   .     S
C874   I916    2.143   .     S
C874   C889    1.405   .     A
C874   C930    1.381   .     S
C875   I917    2.141   .     S
C875   C889    1.403   .     A
C875   C927    1.380   .     S
C876   I918    2.143   .     S
C876   C890    1.405   .     A
C877   C881    1.382   .     A
C877   C887    1.400   .     A
C877   H891    1.083   .     S
C878   C888    1.400   .     A
C878   C882    1.377   .     A
C878   H892    1.083   .     S
C879   C888    1.400   .     A
C879   C883    1.382   .     A
C879   H893    1.083   .     S
C880   C887    1.400   .     A
C880   C884    1.377   .     A
C880   H894    1.083   .     S
C881   H895    1.084   .     S
C881   C885    1.401   .     A
C882   H896    1.079   .     S
C882   C886    1.397   .     A
C883   H897    1.084   .     S
C883   C886    1.401   .     A
C884   H898    1.079   .     S
C884   C885    1.397   .     A
C888   C401    1.449   1_556 S
N899   Zn909   2.030   .     S
N900   Zn910   2.030   .     S
O901   Zn909   1.985   .     S
O902   Zn910   1.985   .     S
O903   Zn909   1.985   .     S
O904   Zn910   1.985   .     S
O905   Zn909   2.006   .     S
O906   Zn910   2.006   .     S
O907   Zn909   2.006   .     S
O908   Zn910   2.006   .     S
C919   O955    1.298   .     A
C919   C944    1.444   .     S
C919   O958    1.299   .     A
C920   O956    1.299   .     A
C920   C943    1.444   .     S
C920   O957    1.298   .     A
C921   O962    1.298   .     A
C921   C939    1.441   .     S
C921   O959    1.295   .     A
C922   O961    1.295   .     A
C922   C940    1.441   .     S
C922   O960    1.298   .     A
C923   I965    2.137   .     S
C923   N954    1.376   .     A
C924   N953    1.375   .     A
C924   I966    2.140   .     S
C924   C601    1.427   1_565 S
C925   N954    1.376   .     A
C925   I967    2.137   .     S
C926   I968    2.140   .     S
C926   N953    1.375   .     A
C926   C599    1.427   1_565 S
C927   C944    1.403   .     A
C927   I969    2.141   .     S
C928   I970    2.143   .     S
C928   C943    1.405   .     A
C928   C822    1.381   1_655 S
C929   I971    2.141   .     S
C929   C943    1.403   .     A
C929   C819    1.380   1_655 S
C930   I972    2.143   .     S
C930   C944    1.405   .     A
C931   C935    1.382   .     A
C931   C941    1.400   .     A
C931   H945    1.083   .     S
C932   C942    1.400   .     A
C932   C936    1.377   .     A
C932   H946    1.083   .     S
C933   C942    1.400   .     A
C933   C937    1.382   .     A
C933   H947    1.083   .     S
C934   C941    1.400   .     A
C934   C938    1.377   .     A
C934   H948    1.083   .     S
C935   H949    1.084   .     S
C935   C939    1.401   .     A
C936   H950    1.079   .     S
C936   C940    1.397   .     A
C937   H951    1.084   .     S
C937   C940    1.401   .     A
C938   H952    1.079   .     S
C938   C939    1.397   .     A
C942   C455    1.449   1_556 S
N953   Zn963   2.030   .     S
N954   Zn964   2.030   .     S
O955   Zn963   1.985   .     S
O956   Zn964   1.985   .     S
O957   Zn963   1.985   .     S
O958   Zn964   1.985   .     S
O959   Zn963   2.006   .     S
O960   Zn964   2.006   .     S
O961   Zn963   2.006   .     S
O962   Zn964   2.006   .     S
