data_str_m3_o1_o16_pcu_sym.133
_audit_creation_date              2020-01-03
_audit_creation_method            'Materials Studio'
_symmetry_space_group_name_H-M    'P1'
_symmetry_Int_Tables_number       1
_symmetry_cell_setting            triclinic
loop_
_symmetry_equiv_pos_as_xyz
  x,y,z
_cell_length_a                    29.6524
_cell_length_b                    31.9769
_cell_length_c                    25.9763
_cell_angle_alpha                 90.3242
_cell_angle_beta                  71.6026
_cell_angle_gamma                 89.7608
loop_
_atom_site_label
_atom_site_type_symbol
_atom_site_fract_x
_atom_site_fract_y
_atom_site_fract_z
_atom_site_U_iso_or_equiv
_atom_site_adp_type
_atom_site_occupancy
O1     O     0.12846   0.22775   0.25001   0.00000  Uiso   1.00
O2     O     0.20490   0.22774   0.25001   0.00000  Uiso   1.00
C3     C     0.16662   0.24659   0.25003   0.00000  Uiso   1.00
O4     O     0.10947   0.16666   0.32681   0.00000  Uiso   1.00
O5     O     0.18591   0.16665   0.32681   0.00000  Uiso   1.00
C6     C     0.14127   0.17376   0.35090   0.00000  Uiso   1.00
Zn7    Zn    0.11562   0.16667   0.25000   0.00000  Uiso   1.00
Zn8    Zn    0.21771   0.16666   0.25000   0.00000  Uiso   1.00
O9     O     0.12843   0.10559   0.25000   0.00000  Uiso   1.00
O10    O     0.20488   0.10558   0.25000   0.00000  Uiso   1.00
O11    O     0.14742   0.16668   0.17319   0.00000  Uiso   1.00
O12    O     0.22387   0.16667   0.17319   0.00000  Uiso   1.00
C13    C     0.16623   0.08675   0.25172   0.00000  Uiso   1.00
C14    C     0.19262   0.16673   0.14776   0.00000  Uiso   1.00
C15    C     0.26826   0.18281   0.00318   0.00000  Uiso   1.00
H16    H     0.28316   0.16539   0.07570   0.00000  Uiso   1.00
H17    H     0.28291   0.20822   0.40145   0.00000  Uiso   1.00
H18    H     0.30523   0.18110   0.47861   0.00000  Uiso   1.00
C19    C     0.20764   0.17265   0.08929   0.00000  Uiso   1.00
C20    C     0.08029   0.20164   0.43464   0.00000  Uiso   1.00
C21    C     0.06761   0.21788   0.48772   0.00000  Uiso   1.00
C22    C     0.10117   0.21589   0.01640   0.00000  Uiso   1.00
C23    C     0.14899   0.20390   0.48769   0.00000  Uiso   1.00
C24    C     0.16268   0.20145   0.43096   0.00000  Uiso   1.00
C25    C     0.18450   0.19470   0.01202   0.00000  Uiso   1.00
C26    C     0.23322   0.19439   0.48024   0.00000  Uiso   1.00
C27    C     0.24594   0.20498   0.42574   0.00000  Uiso   1.00
C28    C     0.21077   0.20887   0.40138   0.00000  Uiso   1.00
C29    C     0.17263   0.18132   0.06537   0.00000  Uiso   1.00
C30    C     0.25563   0.17293   0.05799   0.00000  Uiso   1.00
C31    C     0.12776   0.19193   0.40625   0.00000  Uiso   1.00
H32    H     0.13593   0.17626   0.08834   0.00000  Uiso   1.00
H33    H     0.05361   0.19925   0.41434   0.00000  Uiso   1.00
H34    H     0.22138   0.21830   0.35960   0.00000  Uiso   1.00
C35    C     0.19032   0.31112   0.28235   0.00000  Uiso   1.00
H36    H     0.20823   0.29345   0.30577   0.00000  Uiso   1.00
C37    C     0.18919   0.02090   0.28534   0.00000  Uiso   1.00
C38    C     0.16530   0.04255   0.25442   0.00000  Uiso   1.00
C39    C     0.14098   0.02164   0.22392   0.00000  Uiso   1.00
H40    H     0.12266   0.03845   0.20020   0.00000  Uiso   1.00
C41    C     0.14109   0.31217   0.22280   0.00000  Uiso   1.00
H42    H     0.12258   0.29588   0.19881   0.00000  Uiso   1.00
C43    C     0.16623   0.29066   0.25144   0.00000  Uiso   1.00
C44    C     0.31558   0.13310   0.22972   0.00000  Uiso   1.00
C45    C     0.02981   0.13317   0.23056   0.00000  Uiso   1.00
H46    H     0.05287   0.10673   0.21421   0.00000  Uiso   1.00
N47    N     0.04760   0.16668   0.25002   0.00000  Uiso   1.00
C48    C     0.01851   0.20039   0.26902   0.00000  Uiso   1.00
H49    H     0.03211   0.22748   0.28426   0.00000  Uiso   1.00
C50    C     0.30416   0.20050   0.26862   0.00000  Uiso   1.00
H51    H     0.28247   0.22805   0.28250   0.00000  Uiso   1.00
N52    N     0.28573   0.16665   0.25001   0.00000  Uiso   1.00
N53    N     0.21014   0.04181   0.32137   0.00000  Uiso   1.00
O54    O     0.18771   0.07253   0.35206   0.00000  Uiso   1.00
O55    O     0.24750   0.02593   0.33017   0.00000  Uiso   1.00
N56    N     0.30017   0.09832   0.20494   0.00000  Uiso   1.00
O57    O     0.30968   0.06048   0.21671   0.00000  Uiso   1.00
O58    O     0.28770   0.10420   0.16184   0.00000  Uiso   1.00
N59    N     0.08930   0.23314   0.07023   0.00000  Uiso   1.00
O60    O     0.05868   0.21441   0.11065   0.00000  Uiso   1.00
O61    O     0.11373   0.26417   0.08002   0.00000  Uiso   1.00
N62    N     0.02276   0.23956   0.00912   0.00000  Uiso   1.00
O63    O     0.00454   0.25875   0.47619   0.00000  Uiso   1.00
O64    O     0.00044   0.24175   0.06091   0.00000  Uiso   1.00
O65    O     0.46179   0.22775   0.25001   0.00000  Uiso   1.00
O66    O     0.53823   0.22774   0.25001   0.00000  Uiso   1.00
C67    C     0.49996   0.24659   0.25003   0.00000  Uiso   1.00
O68    O     0.44280   0.16666   0.32681   0.00000  Uiso   1.00
O69    O     0.51924   0.16665   0.32681   0.00000  Uiso   1.00
C70    C     0.47461   0.17376   0.35090   0.00000  Uiso   1.00
Zn71   Zn    0.44896   0.16667   0.25000   0.00000  Uiso   1.00
Zn72   Zn    0.55104   0.16666   0.25000   0.00000  Uiso   1.00
O73    O     0.46177   0.10559   0.25000   0.00000  Uiso   1.00
O74    O     0.53821   0.10558   0.25000   0.00000  Uiso   1.00
O75    O     0.48076   0.16668   0.17319   0.00000  Uiso   1.00
O76    O     0.55720   0.16667   0.17319   0.00000  Uiso   1.00
C77    C     0.49957   0.08675   0.25172   0.00000  Uiso   1.00
C78    C     0.52595   0.16673   0.14776   0.00000  Uiso   1.00
C79    C     0.60159   0.18281   0.00318   0.00000  Uiso   1.00
H80    H     0.61649   0.16539   0.07570   0.00000  Uiso   1.00
H81    H     0.61624   0.20822   0.40145   0.00000  Uiso   1.00
H82    H     0.63856   0.18110   0.47861   0.00000  Uiso   1.00
C83    C     0.54097   0.17265   0.08929   0.00000  Uiso   1.00
C84    C     0.41363   0.20164   0.43464   0.00000  Uiso   1.00
C85    C     0.40094   0.21788   0.48772   0.00000  Uiso   1.00
C86    C     0.43450   0.21589   0.01640   0.00000  Uiso   1.00
C87    C     0.48233   0.20390   0.48769   0.00000  Uiso   1.00
C88    C     0.49601   0.20145   0.43096   0.00000  Uiso   1.00
C89    C     0.51783   0.19470   0.01202   0.00000  Uiso   1.00
C90    C     0.56656   0.19439   0.48024   0.00000  Uiso   1.00
C91    C     0.57928   0.20498   0.42574   0.00000  Uiso   1.00
C92    C     0.54410   0.20887   0.40138   0.00000  Uiso   1.00
C93    C     0.50596   0.18132   0.06537   0.00000  Uiso   1.00
C94    C     0.58897   0.17293   0.05799   0.00000  Uiso   1.00
C95    C     0.46109   0.19193   0.40625   0.00000  Uiso   1.00
H96    H     0.46927   0.17626   0.08834   0.00000  Uiso   1.00
H97    H     0.38694   0.19925   0.41434   0.00000  Uiso   1.00
H98    H     0.55472   0.21830   0.35960   0.00000  Uiso   1.00
C99    C     0.52366   0.31112   0.28235   0.00000  Uiso   1.00
H100   H     0.54156   0.29345   0.30577   0.00000  Uiso   1.00
C101   C     0.52252   0.02090   0.28534   0.00000  Uiso   1.00
C102   C     0.49863   0.04255   0.25442   0.00000  Uiso   1.00
C103   C     0.47431   0.02164   0.22392   0.00000  Uiso   1.00
H104   H     0.45599   0.03845   0.20020   0.00000  Uiso   1.00
C105   C     0.47443   0.31217   0.22280   0.00000  Uiso   1.00
H106   H     0.45591   0.29588   0.19881   0.00000  Uiso   1.00
C107   C     0.49956   0.29066   0.25144   0.00000  Uiso   1.00
C108   C     0.64891   0.13310   0.22972   0.00000  Uiso   1.00
C109   C     0.36314   0.13317   0.23056   0.00000  Uiso   1.00
H110   H     0.38620   0.10673   0.21421   0.00000  Uiso   1.00
N111   N     0.38093   0.16668   0.25002   0.00000  Uiso   1.00
C112   C     0.35184   0.20039   0.26902   0.00000  Uiso   1.00
H113   H     0.36544   0.22748   0.28426   0.00000  Uiso   1.00
C114   C     0.63750   0.20050   0.26862   0.00000  Uiso   1.00
H115   H     0.61581   0.22805   0.28250   0.00000  Uiso   1.00
N116   N     0.61906   0.16665   0.25001   0.00000  Uiso   1.00
N117   N     0.54347   0.04181   0.32137   0.00000  Uiso   1.00
O118   O     0.52104   0.07253   0.35206   0.00000  Uiso   1.00
O119   O     0.58083   0.02593   0.33017   0.00000  Uiso   1.00
N120   N     0.63351   0.09832   0.20494   0.00000  Uiso   1.00
O121   O     0.64301   0.06048   0.21671   0.00000  Uiso   1.00
O122   O     0.62104   0.10420   0.16184   0.00000  Uiso   1.00
N123   N     0.42263   0.23314   0.07023   0.00000  Uiso   1.00
O124   O     0.39202   0.21441   0.11065   0.00000  Uiso   1.00
O125   O     0.44706   0.26417   0.08002   0.00000  Uiso   1.00
N126   N     0.35609   0.23956   0.00912   0.00000  Uiso   1.00
O127   O     0.33787   0.25875   0.47619   0.00000  Uiso   1.00
O128   O     0.33377   0.24175   0.06091   0.00000  Uiso   1.00
O129   O     0.79512   0.22775   0.25001   0.00000  Uiso   1.00
O130   O     0.87157   0.22774   0.25001   0.00000  Uiso   1.00
C131   C     0.83329   0.24659   0.25003   0.00000  Uiso   1.00
O132   O     0.77613   0.16666   0.32681   0.00000  Uiso   1.00
O133   O     0.85258   0.16665   0.32681   0.00000  Uiso   1.00
C134   C     0.80794   0.17376   0.35090   0.00000  Uiso   1.00
Zn135  Zn    0.78229   0.16667   0.25000   0.00000  Uiso   1.00
Zn136  Zn    0.88438   0.16666   0.25000   0.00000  Uiso   1.00
O137   O     0.79510   0.10559   0.25000   0.00000  Uiso   1.00
O138   O     0.87154   0.10558   0.25000   0.00000  Uiso   1.00
O139   O     0.81409   0.16668   0.17319   0.00000  Uiso   1.00
O140   O     0.89053   0.16667   0.17319   0.00000  Uiso   1.00
C141   C     0.83290   0.08675   0.25172   0.00000  Uiso   1.00
C142   C     0.85929   0.16673   0.14776   0.00000  Uiso   1.00
C143   C     0.93492   0.18281   0.00318   0.00000  Uiso   1.00
H144   H     0.94983   0.16539   0.07570   0.00000  Uiso   1.00
H145   H     0.94958   0.20822   0.40145   0.00000  Uiso   1.00
H146   H     0.97190   0.18110   0.47861   0.00000  Uiso   1.00
C147   C     0.87431   0.17265   0.08929   0.00000  Uiso   1.00
C148   C     0.74696   0.20164   0.43464   0.00000  Uiso   1.00
C149   C     0.73427   0.21788   0.48772   0.00000  Uiso   1.00
C150   C     0.76783   0.21589   0.01640   0.00000  Uiso   1.00
C151   C     0.81566   0.20390   0.48769   0.00000  Uiso   1.00
C152   C     0.82935   0.20145   0.43096   0.00000  Uiso   1.00
C153   C     0.85117   0.19470   0.01202   0.00000  Uiso   1.00
C154   C     0.89989   0.19439   0.48024   0.00000  Uiso   1.00
C155   C     0.91261   0.20498   0.42574   0.00000  Uiso   1.00
C156   C     0.87744   0.20887   0.40138   0.00000  Uiso   1.00
C157   C     0.83929   0.18132   0.06537   0.00000  Uiso   1.00
C158   C     0.92230   0.17293   0.05799   0.00000  Uiso   1.00
C159   C     0.79443   0.19193   0.40625   0.00000  Uiso   1.00
H160   H     0.80260   0.17626   0.08834   0.00000  Uiso   1.00
H161   H     0.72028   0.19925   0.41434   0.00000  Uiso   1.00
H162   H     0.88805   0.21830   0.35960   0.00000  Uiso   1.00
C163   C     0.85699   0.31112   0.28235   0.00000  Uiso   1.00
H164   H     0.87490   0.29345   0.30577   0.00000  Uiso   1.00
C165   C     0.85586   0.02090   0.28534   0.00000  Uiso   1.00
C166   C     0.83196   0.04255   0.25442   0.00000  Uiso   1.00
C167   C     0.80764   0.02164   0.22392   0.00000  Uiso   1.00
H168   H     0.78933   0.03845   0.20020   0.00000  Uiso   1.00
C169   C     0.80776   0.31217   0.22280   0.00000  Uiso   1.00
H170   H     0.78925   0.29588   0.19881   0.00000  Uiso   1.00
C171   C     0.83289   0.29066   0.25144   0.00000  Uiso   1.00
C172   C     0.98225   0.13310   0.22972   0.00000  Uiso   1.00
C173   C     0.69648   0.13317   0.23056   0.00000  Uiso   1.00
H174   H     0.71954   0.10673   0.21421   0.00000  Uiso   1.00
N175   N     0.71426   0.16668   0.25002   0.00000  Uiso   1.00
C176   C     0.68517   0.20039   0.26902   0.00000  Uiso   1.00
H177   H     0.69878   0.22748   0.28426   0.00000  Uiso   1.00
C178   C     0.97083   0.20050   0.26862   0.00000  Uiso   1.00
H179   H     0.94914   0.22805   0.28250   0.00000  Uiso   1.00
N180   N     0.95239   0.16665   0.25001   0.00000  Uiso   1.00
N181   N     0.87680   0.04181   0.32137   0.00000  Uiso   1.00
O182   O     0.85438   0.07253   0.35206   0.00000  Uiso   1.00
O183   O     0.91416   0.02593   0.33017   0.00000  Uiso   1.00
N184   N     0.96684   0.09832   0.20494   0.00000  Uiso   1.00
O185   O     0.97634   0.06048   0.21671   0.00000  Uiso   1.00
O186   O     0.95437   0.10420   0.16184   0.00000  Uiso   1.00
N187   N     0.75596   0.23314   0.07023   0.00000  Uiso   1.00
O188   O     0.72535   0.21441   0.11065   0.00000  Uiso   1.00
O189   O     0.78039   0.26417   0.08002   0.00000  Uiso   1.00
N190   N     0.68942   0.23956   0.00912   0.00000  Uiso   1.00
O191   O     0.67121   0.25875   0.47619   0.00000  Uiso   1.00
O192   O     0.66711   0.24175   0.06091   0.00000  Uiso   1.00
O193   O     0.12846   0.56108   0.25001   0.00000  Uiso   1.00
O194   O     0.20490   0.56107   0.25001   0.00000  Uiso   1.00
C195   C     0.16662   0.57992   0.25003   0.00000  Uiso   1.00
O196   O     0.10947   0.50000   0.32681   0.00000  Uiso   1.00
O197   O     0.18591   0.49999   0.32681   0.00000  Uiso   1.00
C198   C     0.14127   0.50709   0.35090   0.00000  Uiso   1.00
Zn199  Zn    0.11562   0.50001   0.25000   0.00000  Uiso   1.00
Zn200  Zn    0.21771   0.49999   0.25000   0.00000  Uiso   1.00
O201   O     0.12843   0.43893   0.25000   0.00000  Uiso   1.00
O202   O     0.20488   0.43892   0.25000   0.00000  Uiso   1.00
O203   O     0.14742   0.50001   0.17319   0.00000  Uiso   1.00
O204   O     0.22387   0.50000   0.17319   0.00000  Uiso   1.00
C205   C     0.16623   0.42008   0.25172   0.00000  Uiso   1.00
C206   C     0.19262   0.50006   0.14776   0.00000  Uiso   1.00
C207   C     0.26826   0.51614   0.00318   0.00000  Uiso   1.00
H208   H     0.28316   0.49873   0.07570   0.00000  Uiso   1.00
H209   H     0.28291   0.54155   0.40145   0.00000  Uiso   1.00
H210   H     0.30523   0.51443   0.47861   0.00000  Uiso   1.00
C211   C     0.20764   0.50599   0.08929   0.00000  Uiso   1.00
C212   C     0.08029   0.53497   0.43464   0.00000  Uiso   1.00
C213   C     0.06761   0.55122   0.48772   0.00000  Uiso   1.00
C214   C     0.10117   0.54922   0.01640   0.00000  Uiso   1.00
C215   C     0.14899   0.53723   0.48769   0.00000  Uiso   1.00
C216   C     0.16268   0.53478   0.43096   0.00000  Uiso   1.00
C217   C     0.18450   0.52804   0.01202   0.00000  Uiso   1.00
C218   C     0.23322   0.52772   0.48024   0.00000  Uiso   1.00
C219   C     0.24594   0.53832   0.42574   0.00000  Uiso   1.00
C220   C     0.21077   0.54221   0.40138   0.00000  Uiso   1.00
C221   C     0.17263   0.51465   0.06537   0.00000  Uiso   1.00
C222   C     0.25563   0.50627   0.05799   0.00000  Uiso   1.00
C223   C     0.12776   0.52526   0.40625   0.00000  Uiso   1.00
H224   H     0.13593   0.50960   0.08834   0.00000  Uiso   1.00
H225   H     0.05361   0.53258   0.41434   0.00000  Uiso   1.00
H226   H     0.22138   0.55163   0.35960   0.00000  Uiso   1.00
C227   C     0.19032   0.64445   0.28235   0.00000  Uiso   1.00
H228   H     0.20823   0.62678   0.30577   0.00000  Uiso   1.00
C229   C     0.18919   0.35423   0.28534   0.00000  Uiso   1.00
C230   C     0.16530   0.37588   0.25442   0.00000  Uiso   1.00
C231   C     0.14098   0.35498   0.22392   0.00000  Uiso   1.00
H232   H     0.12266   0.37179   0.20020   0.00000  Uiso   1.00
C233   C     0.14109   0.64550   0.22280   0.00000  Uiso   1.00
H234   H     0.12258   0.62922   0.19881   0.00000  Uiso   1.00
C235   C     0.16623   0.62399   0.25144   0.00000  Uiso   1.00
C236   C     0.31558   0.46644   0.22972   0.00000  Uiso   1.00
C237   C     0.02981   0.46650   0.23056   0.00000  Uiso   1.00
H238   H     0.05287   0.44006   0.21421   0.00000  Uiso   1.00
N239   N     0.04760   0.50001   0.25002   0.00000  Uiso   1.00
C240   C     0.01851   0.53372   0.26902   0.00000  Uiso   1.00
H241   H     0.03211   0.56081   0.28426   0.00000  Uiso   1.00
C242   C     0.30416   0.53383   0.26862   0.00000  Uiso   1.00
H243   H     0.28247   0.56139   0.28250   0.00000  Uiso   1.00
N244   N     0.28573   0.49998   0.25001   0.00000  Uiso   1.00
N245   N     0.21014   0.37514   0.32137   0.00000  Uiso   1.00
O246   O     0.18771   0.40586   0.35206   0.00000  Uiso   1.00
O247   O     0.24750   0.35927   0.33017   0.00000  Uiso   1.00
N248   N     0.30017   0.43165   0.20494   0.00000  Uiso   1.00
O249   O     0.30968   0.39381   0.21671   0.00000  Uiso   1.00
O250   O     0.28770   0.43754   0.16184   0.00000  Uiso   1.00
N251   N     0.08930   0.56647   0.07023   0.00000  Uiso   1.00
O252   O     0.05868   0.54774   0.11065   0.00000  Uiso   1.00
O253   O     0.11373   0.59750   0.08002   0.00000  Uiso   1.00
N254   N     0.02276   0.57289   0.00912   0.00000  Uiso   1.00
O255   O     0.00454   0.59209   0.47619   0.00000  Uiso   1.00
O256   O     0.00044   0.57508   0.06091   0.00000  Uiso   1.00
O257   O     0.46179   0.56108   0.25001   0.00000  Uiso   1.00
O258   O     0.53823   0.56107   0.25001   0.00000  Uiso   1.00
C259   C     0.49996   0.57992   0.25003   0.00000  Uiso   1.00
O260   O     0.44280   0.50000   0.32681   0.00000  Uiso   1.00
O261   O     0.51924   0.49999   0.32681   0.00000  Uiso   1.00
C262   C     0.47461   0.50709   0.35090   0.00000  Uiso   1.00
Zn263  Zn    0.44896   0.50001   0.25000   0.00000  Uiso   1.00
Zn264  Zn    0.55104   0.49999   0.25000   0.00000  Uiso   1.00
O265   O     0.46177   0.43893   0.25000   0.00000  Uiso   1.00
O266   O     0.53821   0.43892   0.25000   0.00000  Uiso   1.00
O267   O     0.48076   0.50001   0.17319   0.00000  Uiso   1.00
O268   O     0.55720   0.50000   0.17319   0.00000  Uiso   1.00
C269   C     0.49957   0.42008   0.25172   0.00000  Uiso   1.00
C270   C     0.52595   0.50006   0.14776   0.00000  Uiso   1.00
C271   C     0.60159   0.51614   0.00318   0.00000  Uiso   1.00
H272   H     0.61649   0.49873   0.07570   0.00000  Uiso   1.00
H273   H     0.61624   0.54155   0.40145   0.00000  Uiso   1.00
H274   H     0.63856   0.51443   0.47861   0.00000  Uiso   1.00
C275   C     0.54097   0.50599   0.08929   0.00000  Uiso   1.00
C276   C     0.41363   0.53497   0.43464   0.00000  Uiso   1.00
C277   C     0.40094   0.55122   0.48772   0.00000  Uiso   1.00
C278   C     0.43450   0.54922   0.01640   0.00000  Uiso   1.00
C279   C     0.48233   0.53723   0.48769   0.00000  Uiso   1.00
C280   C     0.49601   0.53478   0.43096   0.00000  Uiso   1.00
C281   C     0.51783   0.52804   0.01202   0.00000  Uiso   1.00
C282   C     0.56656   0.52772   0.48024   0.00000  Uiso   1.00
C283   C     0.57928   0.53832   0.42574   0.00000  Uiso   1.00
C284   C     0.54410   0.54221   0.40138   0.00000  Uiso   1.00
C285   C     0.50596   0.51465   0.06537   0.00000  Uiso   1.00
C286   C     0.58897   0.50627   0.05799   0.00000  Uiso   1.00
C287   C     0.46109   0.52526   0.40625   0.00000  Uiso   1.00
H288   H     0.46927   0.50960   0.08834   0.00000  Uiso   1.00
H289   H     0.38694   0.53258   0.41434   0.00000  Uiso   1.00
H290   H     0.55472   0.55163   0.35960   0.00000  Uiso   1.00
C291   C     0.52366   0.64445   0.28235   0.00000  Uiso   1.00
H292   H     0.54156   0.62678   0.30577   0.00000  Uiso   1.00
C293   C     0.52252   0.35423   0.28534   0.00000  Uiso   1.00
C294   C     0.49863   0.37588   0.25442   0.00000  Uiso   1.00
C295   C     0.47431   0.35498   0.22392   0.00000  Uiso   1.00
H296   H     0.45599   0.37179   0.20020   0.00000  Uiso   1.00
C297   C     0.47443   0.64550   0.22280   0.00000  Uiso   1.00
H298   H     0.45591   0.62922   0.19881   0.00000  Uiso   1.00
C299   C     0.49956   0.62399   0.25144   0.00000  Uiso   1.00
C300   C     0.64891   0.46644   0.22972   0.00000  Uiso   1.00
C301   C     0.36314   0.46650   0.23056   0.00000  Uiso   1.00
H302   H     0.38620   0.44006   0.21421   0.00000  Uiso   1.00
N303   N     0.38093   0.50001   0.25002   0.00000  Uiso   1.00
C304   C     0.35184   0.53372   0.26902   0.00000  Uiso   1.00
H305   H     0.36544   0.56081   0.28426   0.00000  Uiso   1.00
C306   C     0.63750   0.53383   0.26862   0.00000  Uiso   1.00
H307   H     0.61581   0.56139   0.28250   0.00000  Uiso   1.00
N308   N     0.61906   0.49998   0.25001   0.00000  Uiso   1.00
N309   N     0.54347   0.37514   0.32137   0.00000  Uiso   1.00
O310   O     0.52104   0.40586   0.35206   0.00000  Uiso   1.00
O311   O     0.58083   0.35927   0.33017   0.00000  Uiso   1.00
N312   N     0.63351   0.43165   0.20494   0.00000  Uiso   1.00
O313   O     0.64301   0.39381   0.21671   0.00000  Uiso   1.00
O314   O     0.62104   0.43754   0.16184   0.00000  Uiso   1.00
N315   N     0.42263   0.56647   0.07023   0.00000  Uiso   1.00
O316   O     0.39202   0.54774   0.11065   0.00000  Uiso   1.00
O317   O     0.44706   0.59750   0.08002   0.00000  Uiso   1.00
N318   N     0.35609   0.57289   0.00912   0.00000  Uiso   1.00
O319   O     0.33787   0.59209   0.47619   0.00000  Uiso   1.00
O320   O     0.33377   0.57508   0.06091   0.00000  Uiso   1.00
O321   O     0.79512   0.56108   0.25001   0.00000  Uiso   1.00
O322   O     0.87157   0.56107   0.25001   0.00000  Uiso   1.00
C323   C     0.83329   0.57992   0.25003   0.00000  Uiso   1.00
O324   O     0.77613   0.50000   0.32681   0.00000  Uiso   1.00
O325   O     0.85258   0.49999   0.32681   0.00000  Uiso   1.00
C326   C     0.80794   0.50709   0.35090   0.00000  Uiso   1.00
Zn327  Zn    0.78229   0.50001   0.25000   0.00000  Uiso   1.00
Zn328  Zn    0.88438   0.49999   0.25000   0.00000  Uiso   1.00
O329   O     0.79510   0.43893   0.25000   0.00000  Uiso   1.00
O330   O     0.87154   0.43892   0.25000   0.00000  Uiso   1.00
O331   O     0.81409   0.50001   0.17319   0.00000  Uiso   1.00
O332   O     0.89053   0.50000   0.17319   0.00000  Uiso   1.00
C333   C     0.83290   0.42008   0.25172   0.00000  Uiso   1.00
C334   C     0.85929   0.50006   0.14776   0.00000  Uiso   1.00
C335   C     0.93492   0.51614   0.00318   0.00000  Uiso   1.00
H336   H     0.94983   0.49873   0.07570   0.00000  Uiso   1.00
H337   H     0.94958   0.54155   0.40145   0.00000  Uiso   1.00
H338   H     0.97190   0.51443   0.47861   0.00000  Uiso   1.00
C339   C     0.87431   0.50599   0.08929   0.00000  Uiso   1.00
C340   C     0.74696   0.53497   0.43464   0.00000  Uiso   1.00
C341   C     0.73427   0.55122   0.48772   0.00000  Uiso   1.00
C342   C     0.76783   0.54922   0.01640   0.00000  Uiso   1.00
C343   C     0.81566   0.53723   0.48769   0.00000  Uiso   1.00
C344   C     0.82935   0.53478   0.43096   0.00000  Uiso   1.00
C345   C     0.85117   0.52804   0.01202   0.00000  Uiso   1.00
C346   C     0.89989   0.52772   0.48024   0.00000  Uiso   1.00
C347   C     0.91261   0.53832   0.42574   0.00000  Uiso   1.00
C348   C     0.87744   0.54221   0.40138   0.00000  Uiso   1.00
C349   C     0.83929   0.51465   0.06537   0.00000  Uiso   1.00
C350   C     0.92230   0.50627   0.05799   0.00000  Uiso   1.00
C351   C     0.79443   0.52526   0.40625   0.00000  Uiso   1.00
H352   H     0.80260   0.50960   0.08834   0.00000  Uiso   1.00
H353   H     0.72028   0.53258   0.41434   0.00000  Uiso   1.00
H354   H     0.88805   0.55163   0.35960   0.00000  Uiso   1.00
C355   C     0.85699   0.64445   0.28235   0.00000  Uiso   1.00
H356   H     0.87490   0.62678   0.30577   0.00000  Uiso   1.00
C357   C     0.85586   0.35423   0.28534   0.00000  Uiso   1.00
C358   C     0.83196   0.37588   0.25442   0.00000  Uiso   1.00
C359   C     0.80764   0.35498   0.22392   0.00000  Uiso   1.00
H360   H     0.78933   0.37179   0.20020   0.00000  Uiso   1.00
C361   C     0.80776   0.64550   0.22280   0.00000  Uiso   1.00
H362   H     0.78925   0.62922   0.19881   0.00000  Uiso   1.00
C363   C     0.83289   0.62399   0.25144   0.00000  Uiso   1.00
C364   C     0.98225   0.46644   0.22972   0.00000  Uiso   1.00
C365   C     0.69648   0.46650   0.23056   0.00000  Uiso   1.00
H366   H     0.71954   0.44006   0.21421   0.00000  Uiso   1.00
N367   N     0.71426   0.50001   0.25002   0.00000  Uiso   1.00
C368   C     0.68517   0.53372   0.26902   0.00000  Uiso   1.00
H369   H     0.69878   0.56081   0.28426   0.00000  Uiso   1.00
C370   C     0.97083   0.53383   0.26862   0.00000  Uiso   1.00
H371   H     0.94914   0.56139   0.28250   0.00000  Uiso   1.00
N372   N     0.95239   0.49998   0.25001   0.00000  Uiso   1.00
N373   N     0.87680   0.37514   0.32137   0.00000  Uiso   1.00
O374   O     0.85438   0.40586   0.35206   0.00000  Uiso   1.00
O375   O     0.91416   0.35927   0.33017   0.00000  Uiso   1.00
N376   N     0.96684   0.43165   0.20494   0.00000  Uiso   1.00
O377   O     0.97634   0.39381   0.21671   0.00000  Uiso   1.00
O378   O     0.95437   0.43754   0.16184   0.00000  Uiso   1.00
N379   N     0.75596   0.56647   0.07023   0.00000  Uiso   1.00
O380   O     0.72535   0.54774   0.11065   0.00000  Uiso   1.00
O381   O     0.78039   0.59750   0.08002   0.00000  Uiso   1.00
N382   N     0.68942   0.57289   0.00912   0.00000  Uiso   1.00
O383   O     0.67121   0.59209   0.47619   0.00000  Uiso   1.00
O384   O     0.66711   0.57508   0.06091   0.00000  Uiso   1.00
O385   O     0.12846   0.89442   0.25001   0.00000  Uiso   1.00
O386   O     0.20490   0.89441   0.25001   0.00000  Uiso   1.00
C387   C     0.16662   0.91326   0.25003   0.00000  Uiso   1.00
O388   O     0.10947   0.83333   0.32681   0.00000  Uiso   1.00
O389   O     0.18591   0.83332   0.32681   0.00000  Uiso   1.00
C390   C     0.14127   0.84043   0.35090   0.00000  Uiso   1.00
Zn391  Zn    0.11562   0.83334   0.25000   0.00000  Uiso   1.00
Zn392  Zn    0.21771   0.83333   0.25000   0.00000  Uiso   1.00
O393   O     0.12843   0.77226   0.25000   0.00000  Uiso   1.00
O394   O     0.20488   0.77225   0.25000   0.00000  Uiso   1.00
O395   O     0.14742   0.83335   0.17319   0.00000  Uiso   1.00
O396   O     0.22387   0.83334   0.17319   0.00000  Uiso   1.00
C397   C     0.16623   0.75341   0.25172   0.00000  Uiso   1.00
C398   C     0.19262   0.83339   0.14776   0.00000  Uiso   1.00
C399   C     0.26826   0.84948   0.00318   0.00000  Uiso   1.00
H400   H     0.28316   0.83206   0.07570   0.00000  Uiso   1.00
H401   H     0.28291   0.87489   0.40145   0.00000  Uiso   1.00
H402   H     0.30523   0.84777   0.47861   0.00000  Uiso   1.00
C403   C     0.20764   0.83932   0.08929   0.00000  Uiso   1.00
C404   C     0.08029   0.86831   0.43464   0.00000  Uiso   1.00
C405   C     0.06761   0.88455   0.48772   0.00000  Uiso   1.00
C406   C     0.10117   0.88256   0.01640   0.00000  Uiso   1.00
C407   C     0.14899   0.87056   0.48769   0.00000  Uiso   1.00
C408   C     0.16268   0.86811   0.43096   0.00000  Uiso   1.00
C409   C     0.18450   0.86137   0.01202   0.00000  Uiso   1.00
C410   C     0.23322   0.86105   0.48024   0.00000  Uiso   1.00
C411   C     0.24594   0.87165   0.42574   0.00000  Uiso   1.00
C412   C     0.21077   0.87554   0.40138   0.00000  Uiso   1.00
C413   C     0.17263   0.84799   0.06537   0.00000  Uiso   1.00
C414   C     0.25563   0.83960   0.05799   0.00000  Uiso   1.00
C415   C     0.12776   0.85860   0.40625   0.00000  Uiso   1.00
H416   H     0.13593   0.84293   0.08834   0.00000  Uiso   1.00
H417   H     0.05361   0.86591   0.41434   0.00000  Uiso   1.00
H418   H     0.22138   0.88497   0.35960   0.00000  Uiso   1.00
C419   C     0.19032   0.97779   0.28235   0.00000  Uiso   1.00
H420   H     0.20823   0.96011   0.30577   0.00000  Uiso   1.00
C421   C     0.18919   0.68757   0.28534   0.00000  Uiso   1.00
C422   C     0.16530   0.70921   0.25442   0.00000  Uiso   1.00
C423   C     0.14098   0.68831   0.22392   0.00000  Uiso   1.00
H424   H     0.12266   0.70512   0.20020   0.00000  Uiso   1.00
C425   C     0.14109   0.97883   0.22280   0.00000  Uiso   1.00
H426   H     0.12258   0.96255   0.19881   0.00000  Uiso   1.00
C427   C     0.16623   0.95733   0.25144   0.00000  Uiso   1.00
C428   C     0.31558   0.79977   0.22972   0.00000  Uiso   1.00
C429   C     0.02981   0.79984   0.23056   0.00000  Uiso   1.00
H430   H     0.05287   0.77340   0.21421   0.00000  Uiso   1.00
N431   N     0.04760   0.83334   0.25002   0.00000  Uiso   1.00
C432   C     0.01851   0.86706   0.26902   0.00000  Uiso   1.00
H433   H     0.03211   0.89414   0.28426   0.00000  Uiso   1.00
C434   C     0.30416   0.86716   0.26862   0.00000  Uiso   1.00
H435   H     0.28247   0.89472   0.28250   0.00000  Uiso   1.00
N436   N     0.28573   0.83331   0.25001   0.00000  Uiso   1.00
N437   N     0.21014   0.70848   0.32137   0.00000  Uiso   1.00
O438   O     0.18771   0.73919   0.35206   0.00000  Uiso   1.00
O439   O     0.24750   0.69260   0.33017   0.00000  Uiso   1.00
N440   N     0.30017   0.76499   0.20494   0.00000  Uiso   1.00
O441   O     0.30968   0.72714   0.21671   0.00000  Uiso   1.00
O442   O     0.28770   0.77087   0.16184   0.00000  Uiso   1.00
N443   N     0.08930   0.89980   0.07023   0.00000  Uiso   1.00
O444   O     0.05868   0.88107   0.11065   0.00000  Uiso   1.00
O445   O     0.11373   0.93083   0.08002   0.00000  Uiso   1.00
N446   N     0.02276   0.90623   0.00912   0.00000  Uiso   1.00
O447   O     0.00454   0.92542   0.47619   0.00000  Uiso   1.00
O448   O     0.00044   0.90842   0.06091   0.00000  Uiso   1.00
O449   O     0.46179   0.89442   0.25001   0.00000  Uiso   1.00
O450   O     0.53823   0.89441   0.25001   0.00000  Uiso   1.00
C451   C     0.49996   0.91326   0.25003   0.00000  Uiso   1.00
O452   O     0.44280   0.83333   0.32681   0.00000  Uiso   1.00
O453   O     0.51924   0.83332   0.32681   0.00000  Uiso   1.00
C454   C     0.47461   0.84043   0.35090   0.00000  Uiso   1.00
Zn455  Zn    0.44896   0.83334   0.25000   0.00000  Uiso   1.00
Zn456  Zn    0.55104   0.83333   0.25000   0.00000  Uiso   1.00
O457   O     0.46177   0.77226   0.25000   0.00000  Uiso   1.00
O458   O     0.53821   0.77225   0.25000   0.00000  Uiso   1.00
O459   O     0.48076   0.83335   0.17319   0.00000  Uiso   1.00
O460   O     0.55720   0.83334   0.17319   0.00000  Uiso   1.00
C461   C     0.49957   0.75341   0.25172   0.00000  Uiso   1.00
C462   C     0.52595   0.83339   0.14776   0.00000  Uiso   1.00
C463   C     0.60159   0.84948   0.00318   0.00000  Uiso   1.00
H464   H     0.61649   0.83206   0.07570   0.00000  Uiso   1.00
H465   H     0.61624   0.87489   0.40145   0.00000  Uiso   1.00
H466   H     0.63856   0.84777   0.47861   0.00000  Uiso   1.00
C467   C     0.54097   0.83932   0.08929   0.00000  Uiso   1.00
C468   C     0.41363   0.86831   0.43464   0.00000  Uiso   1.00
C469   C     0.40094   0.88455   0.48772   0.00000  Uiso   1.00
C470   C     0.43450   0.88256   0.01640   0.00000  Uiso   1.00
C471   C     0.48233   0.87056   0.48769   0.00000  Uiso   1.00
C472   C     0.49601   0.86811   0.43096   0.00000  Uiso   1.00
C473   C     0.51783   0.86137   0.01202   0.00000  Uiso   1.00
C474   C     0.56656   0.86105   0.48024   0.00000  Uiso   1.00
C475   C     0.57928   0.87165   0.42574   0.00000  Uiso   1.00
C476   C     0.54410   0.87554   0.40138   0.00000  Uiso   1.00
C477   C     0.50596   0.84799   0.06537   0.00000  Uiso   1.00
C478   C     0.58897   0.83960   0.05799   0.00000  Uiso   1.00
C479   C     0.46109   0.85860   0.40625   0.00000  Uiso   1.00
H480   H     0.46927   0.84293   0.08834   0.00000  Uiso   1.00
H481   H     0.38694   0.86591   0.41434   0.00000  Uiso   1.00
H482   H     0.55472   0.88497   0.35960   0.00000  Uiso   1.00
C483   C     0.52366   0.97779   0.28235   0.00000  Uiso   1.00
H484   H     0.54156   0.96011   0.30577   0.00000  Uiso   1.00
C485   C     0.52252   0.68757   0.28534   0.00000  Uiso   1.00
C486   C     0.49863   0.70921   0.25442   0.00000  Uiso   1.00
C487   C     0.47431   0.68831   0.22392   0.00000  Uiso   1.00
H488   H     0.45599   0.70512   0.20020   0.00000  Uiso   1.00
C489   C     0.47443   0.97883   0.22280   0.00000  Uiso   1.00
H490   H     0.45591   0.96255   0.19881   0.00000  Uiso   1.00
C491   C     0.49956   0.95733   0.25144   0.00000  Uiso   1.00
C492   C     0.64891   0.79977   0.22972   0.00000  Uiso   1.00
C493   C     0.36314   0.79984   0.23056   0.00000  Uiso   1.00
H494   H     0.38620   0.77340   0.21421   0.00000  Uiso   1.00
N495   N     0.38093   0.83334   0.25002   0.00000  Uiso   1.00
C496   C     0.35184   0.86706   0.26902   0.00000  Uiso   1.00
H497   H     0.36544   0.89414   0.28426   0.00000  Uiso   1.00
C498   C     0.63750   0.86716   0.26862   0.00000  Uiso   1.00
H499   H     0.61581   0.89472   0.28250   0.00000  Uiso   1.00
N500   N     0.61906   0.83331   0.25001   0.00000  Uiso   1.00
N501   N     0.54347   0.70848   0.32137   0.00000  Uiso   1.00
O502   O     0.52104   0.73919   0.35206   0.00000  Uiso   1.00
O503   O     0.58083   0.69260   0.33017   0.00000  Uiso   1.00
N504   N     0.63351   0.76499   0.20494   0.00000  Uiso   1.00
O505   O     0.64301   0.72714   0.21671   0.00000  Uiso   1.00
O506   O     0.62104   0.77087   0.16184   0.00000  Uiso   1.00
N507   N     0.42263   0.89980   0.07023   0.00000  Uiso   1.00
O508   O     0.39202   0.88107   0.11065   0.00000  Uiso   1.00
O509   O     0.44706   0.93083   0.08002   0.00000  Uiso   1.00
N510   N     0.35609   0.90623   0.00912   0.00000  Uiso   1.00
O511   O     0.33787   0.92542   0.47619   0.00000  Uiso   1.00
O512   O     0.33377   0.90842   0.06091   0.00000  Uiso   1.00
O513   O     0.79512   0.89442   0.25001   0.00000  Uiso   1.00
O514   O     0.87157   0.89441   0.25001   0.00000  Uiso   1.00
C515   C     0.83329   0.91326   0.25003   0.00000  Uiso   1.00
O516   O     0.77613   0.83333   0.32681   0.00000  Uiso   1.00
O517   O     0.85258   0.83332   0.32681   0.00000  Uiso   1.00
C518   C     0.80794   0.84043   0.35090   0.00000  Uiso   1.00
Zn519  Zn    0.78229   0.83334   0.25000   0.00000  Uiso   1.00
Zn520  Zn    0.88438   0.83333   0.25000   0.00000  Uiso   1.00
O521   O     0.79510   0.77226   0.25000   0.00000  Uiso   1.00
O522   O     0.87154   0.77225   0.25000   0.00000  Uiso   1.00
O523   O     0.81409   0.83335   0.17319   0.00000  Uiso   1.00
O524   O     0.89053   0.83334   0.17319   0.00000  Uiso   1.00
C525   C     0.83290   0.75341   0.25172   0.00000  Uiso   1.00
C526   C     0.85929   0.83339   0.14776   0.00000  Uiso   1.00
C527   C     0.93492   0.84948   0.00318   0.00000  Uiso   1.00
H528   H     0.94983   0.83206   0.07570   0.00000  Uiso   1.00
H529   H     0.94958   0.87489   0.40145   0.00000  Uiso   1.00
H530   H     0.97190   0.84777   0.47861   0.00000  Uiso   1.00
C531   C     0.87431   0.83932   0.08929   0.00000  Uiso   1.00
C532   C     0.74696   0.86831   0.43464   0.00000  Uiso   1.00
C533   C     0.73427   0.88455   0.48772   0.00000  Uiso   1.00
C534   C     0.76783   0.88256   0.01640   0.00000  Uiso   1.00
C535   C     0.81566   0.87056   0.48769   0.00000  Uiso   1.00
C536   C     0.82935   0.86811   0.43096   0.00000  Uiso   1.00
C537   C     0.85117   0.86137   0.01202   0.00000  Uiso   1.00
C538   C     0.89989   0.86105   0.48024   0.00000  Uiso   1.00
C539   C     0.91261   0.87165   0.42574   0.00000  Uiso   1.00
C540   C     0.87744   0.87554   0.40138   0.00000  Uiso   1.00
C541   C     0.83929   0.84799   0.06537   0.00000  Uiso   1.00
C542   C     0.92230   0.83960   0.05799   0.00000  Uiso   1.00
C543   C     0.79443   0.85860   0.40625   0.00000  Uiso   1.00
H544   H     0.80260   0.84293   0.08834   0.00000  Uiso   1.00
H545   H     0.72028   0.86591   0.41434   0.00000  Uiso   1.00
H546   H     0.88805   0.88497   0.35960   0.00000  Uiso   1.00
C547   C     0.85699   0.97779   0.28235   0.00000  Uiso   1.00
H548   H     0.87490   0.96011   0.30577   0.00000  Uiso   1.00
C549   C     0.85586   0.68757   0.28534   0.00000  Uiso   1.00
C550   C     0.83196   0.70921   0.25442   0.00000  Uiso   1.00
C551   C     0.80764   0.68831   0.22392   0.00000  Uiso   1.00
H552   H     0.78933   0.70512   0.20020   0.00000  Uiso   1.00
C553   C     0.80776   0.97883   0.22280   0.00000  Uiso   1.00
H554   H     0.78925   0.96255   0.19881   0.00000  Uiso   1.00
C555   C     0.83289   0.95733   0.25144   0.00000  Uiso   1.00
C556   C     0.98225   0.79977   0.22972   0.00000  Uiso   1.00
C557   C     0.69648   0.79984   0.23056   0.00000  Uiso   1.00
H558   H     0.71954   0.77340   0.21421   0.00000  Uiso   1.00
N559   N     0.71426   0.83334   0.25002   0.00000  Uiso   1.00
C560   C     0.68517   0.86706   0.26902   0.00000  Uiso   1.00
H561   H     0.69878   0.89414   0.28426   0.00000  Uiso   1.00
C562   C     0.97083   0.86716   0.26862   0.00000  Uiso   1.00
H563   H     0.94914   0.89472   0.28250   0.00000  Uiso   1.00
N564   N     0.95239   0.83331   0.25001   0.00000  Uiso   1.00
N565   N     0.87680   0.70848   0.32137   0.00000  Uiso   1.00
O566   O     0.85438   0.73919   0.35206   0.00000  Uiso   1.00
O567   O     0.91416   0.69260   0.33017   0.00000  Uiso   1.00
N568   N     0.96684   0.76499   0.20494   0.00000  Uiso   1.00
O569   O     0.97634   0.72714   0.21671   0.00000  Uiso   1.00
O570   O     0.95437   0.77087   0.16184   0.00000  Uiso   1.00
N571   N     0.75596   0.89980   0.07023   0.00000  Uiso   1.00
O572   O     0.72535   0.88107   0.11065   0.00000  Uiso   1.00
O573   O     0.78039   0.93083   0.08002   0.00000  Uiso   1.00
N574   N     0.68942   0.90623   0.00912   0.00000  Uiso   1.00
O575   O     0.67121   0.92542   0.47619   0.00000  Uiso   1.00
O576   O     0.66711   0.90842   0.06091   0.00000  Uiso   1.00
O577   O     0.12846   0.22775   0.75001   0.00000  Uiso   1.00
O578   O     0.20490   0.22774   0.75001   0.00000  Uiso   1.00
C579   C     0.16662   0.24659   0.75003   0.00000  Uiso   1.00
O580   O     0.10947   0.16666   0.82681   0.00000  Uiso   1.00
O581   O     0.18591   0.16665   0.82681   0.00000  Uiso   1.00
C582   C     0.14127   0.17376   0.85090   0.00000  Uiso   1.00
Zn583  Zn    0.11562   0.16667   0.75000   0.00000  Uiso   1.00
Zn584  Zn    0.21771   0.16666   0.75000   0.00000  Uiso   1.00
O585   O     0.12843   0.10559   0.75000   0.00000  Uiso   1.00
O586   O     0.20488   0.10558   0.75000   0.00000  Uiso   1.00
O587   O     0.14742   0.16668   0.67319   0.00000  Uiso   1.00
O588   O     0.22387   0.16667   0.67319   0.00000  Uiso   1.00
C589   C     0.16623   0.08675   0.75172   0.00000  Uiso   1.00
C590   C     0.19262   0.16673   0.64776   0.00000  Uiso   1.00
C591   C     0.26826   0.18281   0.50318   0.00000  Uiso   1.00
H592   H     0.28316   0.16539   0.57570   0.00000  Uiso   1.00
H593   H     0.28291   0.20822   0.90145   0.00000  Uiso   1.00
H594   H     0.30523   0.18110   0.97861   0.00000  Uiso   1.00
C595   C     0.20764   0.17265   0.58929   0.00000  Uiso   1.00
C596   C     0.08029   0.20164   0.93464   0.00000  Uiso   1.00
C597   C     0.06761   0.21788   0.98772   0.00000  Uiso   1.00
C598   C     0.10117   0.21589   0.51640   0.00000  Uiso   1.00
C599   C     0.14899   0.20390   0.98769   0.00000  Uiso   1.00
C600   C     0.16268   0.20145   0.93096   0.00000  Uiso   1.00
C601   C     0.18450   0.19470   0.51202   0.00000  Uiso   1.00
C602   C     0.23322   0.19439   0.98024   0.00000  Uiso   1.00
C603   C     0.24594   0.20498   0.92574   0.00000  Uiso   1.00
C604   C     0.21077   0.20887   0.90138   0.00000  Uiso   1.00
C605   C     0.17263   0.18132   0.56537   0.00000  Uiso   1.00
C606   C     0.25563   0.17293   0.55799   0.00000  Uiso   1.00
C607   C     0.12776   0.19193   0.90625   0.00000  Uiso   1.00
H608   H     0.13593   0.17626   0.58834   0.00000  Uiso   1.00
H609   H     0.05361   0.19925   0.91434   0.00000  Uiso   1.00
H610   H     0.22138   0.21830   0.85960   0.00000  Uiso   1.00
C611   C     0.19032   0.31112   0.78235   0.00000  Uiso   1.00
H612   H     0.20823   0.29345   0.80577   0.00000  Uiso   1.00
C613   C     0.18919   0.02090   0.78534   0.00000  Uiso   1.00
C614   C     0.16530   0.04255   0.75442   0.00000  Uiso   1.00
C615   C     0.14098   0.02164   0.72392   0.00000  Uiso   1.00
H616   H     0.12266   0.03845   0.70020   0.00000  Uiso   1.00
C617   C     0.14109   0.31217   0.72280   0.00000  Uiso   1.00
H618   H     0.12258   0.29588   0.69881   0.00000  Uiso   1.00
C619   C     0.16623   0.29066   0.75144   0.00000  Uiso   1.00
C620   C     0.31558   0.13310   0.72972   0.00000  Uiso   1.00
C621   C     0.02981   0.13317   0.73056   0.00000  Uiso   1.00
H622   H     0.05287   0.10673   0.71421   0.00000  Uiso   1.00
N623   N     0.04760   0.16668   0.75002   0.00000  Uiso   1.00
C624   C     0.01851   0.20039   0.76902   0.00000  Uiso   1.00
H625   H     0.03211   0.22748   0.78426   0.00000  Uiso   1.00
C626   C     0.30416   0.20050   0.76862   0.00000  Uiso   1.00
H627   H     0.28247   0.22805   0.78250   0.00000  Uiso   1.00
N628   N     0.28573   0.16665   0.75001   0.00000  Uiso   1.00
N629   N     0.21014   0.04181   0.82137   0.00000  Uiso   1.00
O630   O     0.18771   0.07253   0.85206   0.00000  Uiso   1.00
O631   O     0.24750   0.02593   0.83017   0.00000  Uiso   1.00
N632   N     0.30017   0.09832   0.70494   0.00000  Uiso   1.00
O633   O     0.30968   0.06048   0.71671   0.00000  Uiso   1.00
O634   O     0.28770   0.10420   0.66184   0.00000  Uiso   1.00
N635   N     0.08930   0.23314   0.57023   0.00000  Uiso   1.00
O636   O     0.05868   0.21441   0.61065   0.00000  Uiso   1.00
O637   O     0.11373   0.26417   0.58002   0.00000  Uiso   1.00
N638   N     0.02276   0.23956   0.50912   0.00000  Uiso   1.00
O639   O     0.00454   0.25875   0.97619   0.00000  Uiso   1.00
O640   O     0.00044   0.24175   0.56091   0.00000  Uiso   1.00
O641   O     0.46179   0.22775   0.75001   0.00000  Uiso   1.00
O642   O     0.53823   0.22774   0.75001   0.00000  Uiso   1.00
C643   C     0.49996   0.24659   0.75003   0.00000  Uiso   1.00
O644   O     0.44280   0.16666   0.82681   0.00000  Uiso   1.00
O645   O     0.51924   0.16665   0.82681   0.00000  Uiso   1.00
C646   C     0.47461   0.17376   0.85090   0.00000  Uiso   1.00
Zn647  Zn    0.44896   0.16667   0.75000   0.00000  Uiso   1.00
Zn648  Zn    0.55104   0.16666   0.75000   0.00000  Uiso   1.00
O649   O     0.46177   0.10559   0.75000   0.00000  Uiso   1.00
O650   O     0.53821   0.10558   0.75000   0.00000  Uiso   1.00
O651   O     0.48076   0.16668   0.67319   0.00000  Uiso   1.00
O652   O     0.55720   0.16667   0.67319   0.00000  Uiso   1.00
C653   C     0.49957   0.08675   0.75172   0.00000  Uiso   1.00
C654   C     0.52595   0.16673   0.64776   0.00000  Uiso   1.00
C655   C     0.60159   0.18281   0.50318   0.00000  Uiso   1.00
H656   H     0.61649   0.16539   0.57570   0.00000  Uiso   1.00
H657   H     0.61624   0.20822   0.90145   0.00000  Uiso   1.00
H658   H     0.63856   0.18110   0.97861   0.00000  Uiso   1.00
C659   C     0.54097   0.17265   0.58929   0.00000  Uiso   1.00
C660   C     0.41363   0.20164   0.93464   0.00000  Uiso   1.00
C661   C     0.40094   0.21788   0.98772   0.00000  Uiso   1.00
C662   C     0.43450   0.21589   0.51640   0.00000  Uiso   1.00
C663   C     0.48233   0.20390   0.98769   0.00000  Uiso   1.00
C664   C     0.49601   0.20145   0.93096   0.00000  Uiso   1.00
C665   C     0.51783   0.19470   0.51202   0.00000  Uiso   1.00
C666   C     0.56656   0.19439   0.98024   0.00000  Uiso   1.00
C667   C     0.57928   0.20498   0.92574   0.00000  Uiso   1.00
C668   C     0.54410   0.20887   0.90138   0.00000  Uiso   1.00
C669   C     0.50596   0.18132   0.56537   0.00000  Uiso   1.00
C670   C     0.58897   0.17293   0.55799   0.00000  Uiso   1.00
C671   C     0.46109   0.19193   0.90625   0.00000  Uiso   1.00
H672   H     0.46927   0.17626   0.58834   0.00000  Uiso   1.00
H673   H     0.38694   0.19925   0.91434   0.00000  Uiso   1.00
H674   H     0.55472   0.21830   0.85960   0.00000  Uiso   1.00
C675   C     0.52366   0.31112   0.78235   0.00000  Uiso   1.00
H676   H     0.54156   0.29345   0.80577   0.00000  Uiso   1.00
C677   C     0.52252   0.02090   0.78534   0.00000  Uiso   1.00
C678   C     0.49863   0.04255   0.75442   0.00000  Uiso   1.00
C679   C     0.47431   0.02164   0.72392   0.00000  Uiso   1.00
H680   H     0.45599   0.03845   0.70020   0.00000  Uiso   1.00
C681   C     0.47443   0.31217   0.72280   0.00000  Uiso   1.00
H682   H     0.45591   0.29588   0.69881   0.00000  Uiso   1.00
C683   C     0.49956   0.29066   0.75144   0.00000  Uiso   1.00
C684   C     0.64891   0.13310   0.72972   0.00000  Uiso   1.00
C685   C     0.36314   0.13317   0.73056   0.00000  Uiso   1.00
H686   H     0.38620   0.10673   0.71421   0.00000  Uiso   1.00
N687   N     0.38093   0.16668   0.75002   0.00000  Uiso   1.00
C688   C     0.35184   0.20039   0.76902   0.00000  Uiso   1.00
H689   H     0.36544   0.22748   0.78426   0.00000  Uiso   1.00
C690   C     0.63750   0.20050   0.76862   0.00000  Uiso   1.00
H691   H     0.61581   0.22805   0.78250   0.00000  Uiso   1.00
N692   N     0.61906   0.16665   0.75001   0.00000  Uiso   1.00
N693   N     0.54347   0.04181   0.82137   0.00000  Uiso   1.00
O694   O     0.52104   0.07253   0.85206   0.00000  Uiso   1.00
O695   O     0.58083   0.02593   0.83017   0.00000  Uiso   1.00
N696   N     0.63351   0.09832   0.70494   0.00000  Uiso   1.00
O697   O     0.64301   0.06048   0.71671   0.00000  Uiso   1.00
O698   O     0.62104   0.10420   0.66184   0.00000  Uiso   1.00
N699   N     0.42263   0.23314   0.57023   0.00000  Uiso   1.00
O700   O     0.39202   0.21441   0.61065   0.00000  Uiso   1.00
O701   O     0.44706   0.26417   0.58002   0.00000  Uiso   1.00
N702   N     0.35609   0.23956   0.50912   0.00000  Uiso   1.00
O703   O     0.33787   0.25875   0.97619   0.00000  Uiso   1.00
O704   O     0.33377   0.24175   0.56091   0.00000  Uiso   1.00
O705   O     0.79512   0.22775   0.75001   0.00000  Uiso   1.00
O706   O     0.87157   0.22774   0.75001   0.00000  Uiso   1.00
C707   C     0.83329   0.24659   0.75003   0.00000  Uiso   1.00
O708   O     0.77613   0.16666   0.82681   0.00000  Uiso   1.00
O709   O     0.85258   0.16665   0.82681   0.00000  Uiso   1.00
C710   C     0.80794   0.17376   0.85090   0.00000  Uiso   1.00
Zn711  Zn    0.78229   0.16667   0.75000   0.00000  Uiso   1.00
Zn712  Zn    0.88438   0.16666   0.75000   0.00000  Uiso   1.00
O713   O     0.79510   0.10559   0.75000   0.00000  Uiso   1.00
O714   O     0.87154   0.10558   0.75000   0.00000  Uiso   1.00
O715   O     0.81409   0.16668   0.67319   0.00000  Uiso   1.00
O716   O     0.89053   0.16667   0.67319   0.00000  Uiso   1.00
C717   C     0.83290   0.08675   0.75172   0.00000  Uiso   1.00
C718   C     0.85929   0.16673   0.64776   0.00000  Uiso   1.00
C719   C     0.93492   0.18281   0.50318   0.00000  Uiso   1.00
H720   H     0.94983   0.16539   0.57570   0.00000  Uiso   1.00
H721   H     0.94958   0.20822   0.90145   0.00000  Uiso   1.00
H722   H     0.97190   0.18110   0.97861   0.00000  Uiso   1.00
C723   C     0.87431   0.17265   0.58929   0.00000  Uiso   1.00
C724   C     0.74696   0.20164   0.93464   0.00000  Uiso   1.00
C725   C     0.73427   0.21788   0.98772   0.00000  Uiso   1.00
C726   C     0.76783   0.21589   0.51640   0.00000  Uiso   1.00
C727   C     0.81566   0.20390   0.98769   0.00000  Uiso   1.00
C728   C     0.82935   0.20145   0.93096   0.00000  Uiso   1.00
C729   C     0.85117   0.19470   0.51202   0.00000  Uiso   1.00
C730   C     0.89989   0.19439   0.98024   0.00000  Uiso   1.00
C731   C     0.91261   0.20498   0.92574   0.00000  Uiso   1.00
C732   C     0.87744   0.20887   0.90138   0.00000  Uiso   1.00
C733   C     0.83929   0.18132   0.56537   0.00000  Uiso   1.00
C734   C     0.92230   0.17293   0.55799   0.00000  Uiso   1.00
C735   C     0.79443   0.19193   0.90625   0.00000  Uiso   1.00
H736   H     0.80260   0.17626   0.58834   0.00000  Uiso   1.00
H737   H     0.72028   0.19925   0.91434   0.00000  Uiso   1.00
H738   H     0.88805   0.21830   0.85960   0.00000  Uiso   1.00
C739   C     0.85699   0.31112   0.78235   0.00000  Uiso   1.00
H740   H     0.87490   0.29345   0.80577   0.00000  Uiso   1.00
C741   C     0.85586   0.02090   0.78534   0.00000  Uiso   1.00
C742   C     0.83196   0.04255   0.75442   0.00000  Uiso   1.00
C743   C     0.80764   0.02164   0.72392   0.00000  Uiso   1.00
H744   H     0.78933   0.03845   0.70020   0.00000  Uiso   1.00
C745   C     0.80776   0.31217   0.72280   0.00000  Uiso   1.00
H746   H     0.78925   0.29588   0.69881   0.00000  Uiso   1.00
C747   C     0.83289   0.29066   0.75144   0.00000  Uiso   1.00
C748   C     0.98225   0.13310   0.72972   0.00000  Uiso   1.00
C749   C     0.69648   0.13317   0.73056   0.00000  Uiso   1.00
H750   H     0.71954   0.10673   0.71421   0.00000  Uiso   1.00
N751   N     0.71426   0.16668   0.75002   0.00000  Uiso   1.00
C752   C     0.68517   0.20039   0.76902   0.00000  Uiso   1.00
H753   H     0.69878   0.22748   0.78426   0.00000  Uiso   1.00
C754   C     0.97083   0.20050   0.76862   0.00000  Uiso   1.00
H755   H     0.94914   0.22805   0.78250   0.00000  Uiso   1.00
N756   N     0.95239   0.16665   0.75001   0.00000  Uiso   1.00
N757   N     0.87680   0.04181   0.82137   0.00000  Uiso   1.00
O758   O     0.85438   0.07253   0.85206   0.00000  Uiso   1.00
O759   O     0.91416   0.02593   0.83017   0.00000  Uiso   1.00
N760   N     0.96684   0.09832   0.70494   0.00000  Uiso   1.00
O761   O     0.97634   0.06048   0.71671   0.00000  Uiso   1.00
O762   O     0.95437   0.10420   0.66184   0.00000  Uiso   1.00
N763   N     0.75596   0.23314   0.57023   0.00000  Uiso   1.00
O764   O     0.72535   0.21441   0.61065   0.00000  Uiso   1.00
O765   O     0.78039   0.26417   0.58002   0.00000  Uiso   1.00
N766   N     0.68942   0.23956   0.50912   0.00000  Uiso   1.00
O767   O     0.67121   0.25875   0.97619   0.00000  Uiso   1.00
O768   O     0.66711   0.24175   0.56091   0.00000  Uiso   1.00
O769   O     0.12846   0.56108   0.75001   0.00000  Uiso   1.00
O770   O     0.20490   0.56107   0.75001   0.00000  Uiso   1.00
C771   C     0.16662   0.57992   0.75003   0.00000  Uiso   1.00
O772   O     0.10947   0.50000   0.82681   0.00000  Uiso   1.00
O773   O     0.18591   0.49999   0.82681   0.00000  Uiso   1.00
C774   C     0.14127   0.50709   0.85090   0.00000  Uiso   1.00
Zn775  Zn    0.11562   0.50001   0.75000   0.00000  Uiso   1.00
Zn776  Zn    0.21771   0.49999   0.75000   0.00000  Uiso   1.00
O777   O     0.12843   0.43893   0.75000   0.00000  Uiso   1.00
O778   O     0.20488   0.43892   0.75000   0.00000  Uiso   1.00
O779   O     0.14742   0.50001   0.67319   0.00000  Uiso   1.00
O780   O     0.22387   0.50000   0.67319   0.00000  Uiso   1.00
C781   C     0.16623   0.42008   0.75172   0.00000  Uiso   1.00
C782   C     0.19262   0.50006   0.64776   0.00000  Uiso   1.00
C783   C     0.26826   0.51614   0.50318   0.00000  Uiso   1.00
H784   H     0.28316   0.49873   0.57570   0.00000  Uiso   1.00
H785   H     0.28291   0.54155   0.90145   0.00000  Uiso   1.00
H786   H     0.30523   0.51443   0.97861   0.00000  Uiso   1.00
C787   C     0.20764   0.50599   0.58929   0.00000  Uiso   1.00
C788   C     0.08029   0.53497   0.93464   0.00000  Uiso   1.00
C789   C     0.06761   0.55122   0.98772   0.00000  Uiso   1.00
C790   C     0.10117   0.54922   0.51640   0.00000  Uiso   1.00
C791   C     0.14899   0.53723   0.98769   0.00000  Uiso   1.00
C792   C     0.16268   0.53478   0.93096   0.00000  Uiso   1.00
C793   C     0.18450   0.52804   0.51202   0.00000  Uiso   1.00
C794   C     0.23322   0.52772   0.98024   0.00000  Uiso   1.00
C795   C     0.24594   0.53832   0.92574   0.00000  Uiso   1.00
C796   C     0.21077   0.54221   0.90138   0.00000  Uiso   1.00
C797   C     0.17263   0.51465   0.56537   0.00000  Uiso   1.00
C798   C     0.25563   0.50627   0.55799   0.00000  Uiso   1.00
C799   C     0.12776   0.52526   0.90625   0.00000  Uiso   1.00
H800   H     0.13593   0.50960   0.58834   0.00000  Uiso   1.00
H801   H     0.05361   0.53258   0.91434   0.00000  Uiso   1.00
H802   H     0.22138   0.55163   0.85960   0.00000  Uiso   1.00
C803   C     0.19032   0.64445   0.78235   0.00000  Uiso   1.00
H804   H     0.20823   0.62678   0.80577   0.00000  Uiso   1.00
C805   C     0.18919   0.35423   0.78534   0.00000  Uiso   1.00
C806   C     0.16530   0.37588   0.75442   0.00000  Uiso   1.00
C807   C     0.14098   0.35498   0.72392   0.00000  Uiso   1.00
H808   H     0.12266   0.37179   0.70020   0.00000  Uiso   1.00
C809   C     0.14109   0.64550   0.72280   0.00000  Uiso   1.00
H810   H     0.12258   0.62922   0.69881   0.00000  Uiso   1.00
C811   C     0.16623   0.62399   0.75144   0.00000  Uiso   1.00
C812   C     0.31558   0.46644   0.72972   0.00000  Uiso   1.00
C813   C     0.02981   0.46650   0.73056   0.00000  Uiso   1.00
H814   H     0.05287   0.44006   0.71421   0.00000  Uiso   1.00
N815   N     0.04760   0.50001   0.75002   0.00000  Uiso   1.00
C816   C     0.01851   0.53372   0.76902   0.00000  Uiso   1.00
H817   H     0.03211   0.56081   0.78426   0.00000  Uiso   1.00
C818   C     0.30416   0.53383   0.76862   0.00000  Uiso   1.00
H819   H     0.28247   0.56139   0.78250   0.00000  Uiso   1.00
N820   N     0.28573   0.49998   0.75001   0.00000  Uiso   1.00
N821   N     0.21014   0.37514   0.82137   0.00000  Uiso   1.00
O822   O     0.18771   0.40586   0.85206   0.00000  Uiso   1.00
O823   O     0.24750   0.35927   0.83017   0.00000  Uiso   1.00
N824   N     0.30017   0.43165   0.70494   0.00000  Uiso   1.00
O825   O     0.30968   0.39381   0.71671   0.00000  Uiso   1.00
O826   O     0.28770   0.43754   0.66184   0.00000  Uiso   1.00
N827   N     0.08930   0.56647   0.57023   0.00000  Uiso   1.00
O828   O     0.05868   0.54774   0.61065   0.00000  Uiso   1.00
O829   O     0.11373   0.59750   0.58002   0.00000  Uiso   1.00
N830   N     0.02276   0.57289   0.50912   0.00000  Uiso   1.00
O831   O     0.00454   0.59209   0.97619   0.00000  Uiso   1.00
O832   O     0.00044   0.57508   0.56091   0.00000  Uiso   1.00
O833   O     0.46179   0.56108   0.75001   0.00000  Uiso   1.00
O834   O     0.53823   0.56107   0.75001   0.00000  Uiso   1.00
C835   C     0.49996   0.57992   0.75003   0.00000  Uiso   1.00
O836   O     0.44280   0.50000   0.82681   0.00000  Uiso   1.00
O837   O     0.51924   0.49999   0.82681   0.00000  Uiso   1.00
C838   C     0.47461   0.50709   0.85090   0.00000  Uiso   1.00
Zn839  Zn    0.44896   0.50001   0.75000   0.00000  Uiso   1.00
Zn840  Zn    0.55104   0.49999   0.75000   0.00000  Uiso   1.00
O841   O     0.46177   0.43893   0.75000   0.00000  Uiso   1.00
O842   O     0.53821   0.43892   0.75000   0.00000  Uiso   1.00
O843   O     0.48076   0.50001   0.67319   0.00000  Uiso   1.00
O844   O     0.55720   0.50000   0.67319   0.00000  Uiso   1.00
C845   C     0.49957   0.42008   0.75172   0.00000  Uiso   1.00
C846   C     0.52595   0.50006   0.64776   0.00000  Uiso   1.00
C847   C     0.60159   0.51614   0.50318   0.00000  Uiso   1.00
H848   H     0.61649   0.49873   0.57570   0.00000  Uiso   1.00
H849   H     0.61624   0.54155   0.90145   0.00000  Uiso   1.00
H850   H     0.63856   0.51443   0.97861   0.00000  Uiso   1.00
C851   C     0.54097   0.50599   0.58929   0.00000  Uiso   1.00
C852   C     0.41363   0.53497   0.93464   0.00000  Uiso   1.00
C853   C     0.40094   0.55122   0.98772   0.00000  Uiso   1.00
C854   C     0.43450   0.54922   0.51640   0.00000  Uiso   1.00
C855   C     0.48233   0.53723   0.98769   0.00000  Uiso   1.00
C856   C     0.49601   0.53478   0.93096   0.00000  Uiso   1.00
C857   C     0.51783   0.52804   0.51202   0.00000  Uiso   1.00
C858   C     0.56656   0.52772   0.98024   0.00000  Uiso   1.00
C859   C     0.57928   0.53832   0.92574   0.00000  Uiso   1.00
C860   C     0.54410   0.54221   0.90138   0.00000  Uiso   1.00
C861   C     0.50596   0.51465   0.56537   0.00000  Uiso   1.00
C862   C     0.58897   0.50627   0.55799   0.00000  Uiso   1.00
C863   C     0.46109   0.52526   0.90625   0.00000  Uiso   1.00
H864   H     0.46927   0.50960   0.58834   0.00000  Uiso   1.00
H865   H     0.38694   0.53258   0.91434   0.00000  Uiso   1.00
H866   H     0.55472   0.55163   0.85960   0.00000  Uiso   1.00
C867   C     0.52366   0.64445   0.78235   0.00000  Uiso   1.00
H868   H     0.54156   0.62678   0.80577   0.00000  Uiso   1.00
C869   C     0.52252   0.35423   0.78534   0.00000  Uiso   1.00
C870   C     0.49863   0.37588   0.75442   0.00000  Uiso   1.00
C871   C     0.47431   0.35498   0.72392   0.00000  Uiso   1.00
H872   H     0.45599   0.37179   0.70020   0.00000  Uiso   1.00
C873   C     0.47443   0.64550   0.72280   0.00000  Uiso   1.00
H874   H     0.45591   0.62922   0.69881   0.00000  Uiso   1.00
C875   C     0.49956   0.62399   0.75144   0.00000  Uiso   1.00
C876   C     0.64891   0.46644   0.72972   0.00000  Uiso   1.00
C877   C     0.36314   0.46650   0.73056   0.00000  Uiso   1.00
H878   H     0.38620   0.44006   0.71421   0.00000  Uiso   1.00
N879   N     0.38093   0.50001   0.75002   0.00000  Uiso   1.00
C880   C     0.35184   0.53372   0.76902   0.00000  Uiso   1.00
H881   H     0.36544   0.56081   0.78426   0.00000  Uiso   1.00
C882   C     0.63750   0.53383   0.76862   0.00000  Uiso   1.00
H883   H     0.61581   0.56139   0.78250   0.00000  Uiso   1.00
N884   N     0.61906   0.49998   0.75001   0.00000  Uiso   1.00
N885   N     0.54347   0.37514   0.82137   0.00000  Uiso   1.00
O886   O     0.52104   0.40586   0.85206   0.00000  Uiso   1.00
O887   O     0.58083   0.35927   0.83017   0.00000  Uiso   1.00
N888   N     0.63351   0.43165   0.70494   0.00000  Uiso   1.00
O889   O     0.64301   0.39381   0.71671   0.00000  Uiso   1.00
O890   O     0.62104   0.43754   0.66184   0.00000  Uiso   1.00
N891   N     0.42263   0.56647   0.57023   0.00000  Uiso   1.00
O892   O     0.39202   0.54774   0.61065   0.00000  Uiso   1.00
O893   O     0.44706   0.59750   0.58002   0.00000  Uiso   1.00
N894   N     0.35609   0.57289   0.50912   0.00000  Uiso   1.00
O895   O     0.33787   0.59209   0.97619   0.00000  Uiso   1.00
O896   O     0.33377   0.57508   0.56091   0.00000  Uiso   1.00
O897   O     0.79512   0.56108   0.75001   0.00000  Uiso   1.00
O898   O     0.87157   0.56107   0.75001   0.00000  Uiso   1.00
C899   C     0.83329   0.57992   0.75003   0.00000  Uiso   1.00
O900   O     0.77613   0.50000   0.82681   0.00000  Uiso   1.00
O901   O     0.85258   0.49999   0.82681   0.00000  Uiso   1.00
C902   C     0.80794   0.50709   0.85090   0.00000  Uiso   1.00
Zn903  Zn    0.78229   0.50001   0.75000   0.00000  Uiso   1.00
Zn904  Zn    0.88438   0.49999   0.75000   0.00000  Uiso   1.00
O905   O     0.79510   0.43893   0.75000   0.00000  Uiso   1.00
O906   O     0.87154   0.43892   0.75000   0.00000  Uiso   1.00
O907   O     0.81409   0.50001   0.67319   0.00000  Uiso   1.00
O908   O     0.89053   0.50000   0.67319   0.00000  Uiso   1.00
C909   C     0.83290   0.42008   0.75172   0.00000  Uiso   1.00
C910   C     0.85929   0.50006   0.64776   0.00000  Uiso   1.00
C911   C     0.93492   0.51614   0.50318   0.00000  Uiso   1.00
H912   H     0.94983   0.49873   0.57570   0.00000  Uiso   1.00
H913   H     0.94958   0.54155   0.90145   0.00000  Uiso   1.00
H914   H     0.97190   0.51443   0.97861   0.00000  Uiso   1.00
C915   C     0.87431   0.50599   0.58929   0.00000  Uiso   1.00
C916   C     0.74696   0.53497   0.93464   0.00000  Uiso   1.00
C917   C     0.73427   0.55122   0.98772   0.00000  Uiso   1.00
C918   C     0.76783   0.54922   0.51640   0.00000  Uiso   1.00
C919   C     0.81566   0.53723   0.98769   0.00000  Uiso   1.00
C920   C     0.82935   0.53478   0.93096   0.00000  Uiso   1.00
C921   C     0.85117   0.52804   0.51202   0.00000  Uiso   1.00
C922   C     0.89989   0.52772   0.98024   0.00000  Uiso   1.00
C923   C     0.91261   0.53832   0.92574   0.00000  Uiso   1.00
C924   C     0.87744   0.54221   0.90138   0.00000  Uiso   1.00
C925   C     0.83929   0.51465   0.56537   0.00000  Uiso   1.00
C926   C     0.92230   0.50627   0.55799   0.00000  Uiso   1.00
C927   C     0.79443   0.52526   0.90625   0.00000  Uiso   1.00
H928   H     0.80260   0.50960   0.58834   0.00000  Uiso   1.00
H929   H     0.72028   0.53258   0.91434   0.00000  Uiso   1.00
H930   H     0.88805   0.55163   0.85960   0.00000  Uiso   1.00
C931   C     0.85699   0.64445   0.78235   0.00000  Uiso   1.00
H932   H     0.87490   0.62678   0.80577   0.00000  Uiso   1.00
C933   C     0.85586   0.35423   0.78534   0.00000  Uiso   1.00
C934   C     0.83196   0.37588   0.75442   0.00000  Uiso   1.00
C935   C     0.80764   0.35498   0.72392   0.00000  Uiso   1.00
H936   H     0.78933   0.37179   0.70020   0.00000  Uiso   1.00
C937   C     0.80776   0.64550   0.72280   0.00000  Uiso   1.00
H938   H     0.78925   0.62922   0.69881   0.00000  Uiso   1.00
C939   C     0.83289   0.62399   0.75144   0.00000  Uiso   1.00
C940   C     0.98225   0.46644   0.72972   0.00000  Uiso   1.00
C941   C     0.69648   0.46650   0.73056   0.00000  Uiso   1.00
H942   H     0.71954   0.44006   0.71421   0.00000  Uiso   1.00
N943   N     0.71426   0.50001   0.75002   0.00000  Uiso   1.00
C944   C     0.68517   0.53372   0.76902   0.00000  Uiso   1.00
H945   H     0.69878   0.56081   0.78426   0.00000  Uiso   1.00
C946   C     0.97083   0.53383   0.76862   0.00000  Uiso   1.00
H947   H     0.94914   0.56139   0.78250   0.00000  Uiso   1.00
N948   N     0.95239   0.49998   0.75001   0.00000  Uiso   1.00
N949   N     0.87680   0.37514   0.82137   0.00000  Uiso   1.00
O950   O     0.85438   0.40586   0.85206   0.00000  Uiso   1.00
O951   O     0.91416   0.35927   0.83017   0.00000  Uiso   1.00
N952   N     0.96684   0.43165   0.70494   0.00000  Uiso   1.00
O953   O     0.97634   0.39381   0.71671   0.00000  Uiso   1.00
O954   O     0.95437   0.43754   0.66184   0.00000  Uiso   1.00
N955   N     0.75596   0.56647   0.57023   0.00000  Uiso   1.00
O956   O     0.72535   0.54774   0.61065   0.00000  Uiso   1.00
O957   O     0.78039   0.59750   0.58002   0.00000  Uiso   1.00
N958   N     0.68942   0.57289   0.50912   0.00000  Uiso   1.00
O959   O     0.67121   0.59209   0.97619   0.00000  Uiso   1.00
O960   O     0.66711   0.57508   0.56091   0.00000  Uiso   1.00
O961   O     0.12846   0.89442   0.75001   0.00000  Uiso   1.00
O962   O     0.20490   0.89441   0.75001   0.00000  Uiso   1.00
C963   C     0.16662   0.91326   0.75003   0.00000  Uiso   1.00
O964   O     0.10947   0.83333   0.82681   0.00000  Uiso   1.00
O965   O     0.18591   0.83332   0.82681   0.00000  Uiso   1.00
C966   C     0.14127   0.84043   0.85090   0.00000  Uiso   1.00
Zn967  Zn    0.11562   0.83334   0.75000   0.00000  Uiso   1.00
Zn968  Zn    0.21771   0.83333   0.75000   0.00000  Uiso   1.00
O969   O     0.12843   0.77226   0.75000   0.00000  Uiso   1.00
O970   O     0.20488   0.77225   0.75000   0.00000  Uiso   1.00
O971   O     0.14742   0.83335   0.67319   0.00000  Uiso   1.00
O972   O     0.22387   0.83334   0.67319   0.00000  Uiso   1.00
C973   C     0.16623   0.75341   0.75172   0.00000  Uiso   1.00
C974   C     0.19262   0.83339   0.64776   0.00000  Uiso   1.00
C975   C     0.26826   0.84948   0.50318   0.00000  Uiso   1.00
H976   H     0.28316   0.83206   0.57570   0.00000  Uiso   1.00
H977   H     0.28291   0.87489   0.90145   0.00000  Uiso   1.00
H978   H     0.30523   0.84777   0.97861   0.00000  Uiso   1.00
C979   C     0.20764   0.83932   0.58929   0.00000  Uiso   1.00
C980   C     0.08029   0.86831   0.93464   0.00000  Uiso   1.00
C981   C     0.06761   0.88455   0.98772   0.00000  Uiso   1.00
C982   C     0.10117   0.88256   0.51640   0.00000  Uiso   1.00
C983   C     0.14899   0.87056   0.98769   0.00000  Uiso   1.00
C984   C     0.16268   0.86811   0.93096   0.00000  Uiso   1.00
C985   C     0.18450   0.86137   0.51202   0.00000  Uiso   1.00
C986   C     0.23322   0.86105   0.98024   0.00000  Uiso   1.00
C987   C     0.24594   0.87165   0.92574   0.00000  Uiso   1.00
C988   C     0.21077   0.87554   0.90138   0.00000  Uiso   1.00
C989   C     0.17263   0.84799   0.56537   0.00000  Uiso   1.00
C990   C     0.25563   0.83960   0.55799   0.00000  Uiso   1.00
C991   C     0.12776   0.85860   0.90625   0.00000  Uiso   1.00
H992   H     0.13593   0.84293   0.58834   0.00000  Uiso   1.00
H993   H     0.05361   0.86591   0.91434   0.00000  Uiso   1.00
H994   H     0.22138   0.88497   0.85960   0.00000  Uiso   1.00
C995   C     0.19032   0.97779   0.78235   0.00000  Uiso   1.00
H996   H     0.20823   0.96011   0.80577   0.00000  Uiso   1.00
C997   C     0.18919   0.68757   0.78534   0.00000  Uiso   1.00
C998   C     0.16530   0.70921   0.75442   0.00000  Uiso   1.00
C999   C     0.14098   0.68831   0.72392   0.00000  Uiso   1.00
H1000  H     0.12266   0.70512   0.70020   0.00000  Uiso   1.00
C1001  C     0.14109   0.97883   0.72280   0.00000  Uiso   1.00
H1002  H     0.12258   0.96255   0.69881   0.00000  Uiso   1.00
C1003  C     0.16623   0.95733   0.75144   0.00000  Uiso   1.00
C1004  C     0.31558   0.79977   0.72972   0.00000  Uiso   1.00
C1005  C     0.02981   0.79984   0.73056   0.00000  Uiso   1.00
H1006  H     0.05287   0.77340   0.71421   0.00000  Uiso   1.00
N1007  N     0.04760   0.83334   0.75002   0.00000  Uiso   1.00
C1008  C     0.01851   0.86706   0.76902   0.00000  Uiso   1.00
H1009  H     0.03211   0.89414   0.78426   0.00000  Uiso   1.00
C1010  C     0.30416   0.86716   0.76862   0.00000  Uiso   1.00
H1011  H     0.28247   0.89472   0.78250   0.00000  Uiso   1.00
N1012  N     0.28573   0.83331   0.75001   0.00000  Uiso   1.00
N1013  N     0.21014   0.70848   0.82137   0.00000  Uiso   1.00
O1014  O     0.18771   0.73919   0.85206   0.00000  Uiso   1.00
O1015  O     0.24750   0.69260   0.83017   0.00000  Uiso   1.00
N1016  N     0.30017   0.76499   0.70494   0.00000  Uiso   1.00
O1017  O     0.30968   0.72714   0.71671   0.00000  Uiso   1.00
O1018  O     0.28770   0.77087   0.66184   0.00000  Uiso   1.00
N1019  N     0.08930   0.89980   0.57023   0.00000  Uiso   1.00
O1020  O     0.05868   0.88107   0.61065   0.00000  Uiso   1.00
O1021  O     0.11373   0.93083   0.58002   0.00000  Uiso   1.00
N1022  N     0.02276   0.90623   0.50912   0.00000  Uiso   1.00
O1023  O     0.00454   0.92542   0.97619   0.00000  Uiso   1.00
O1024  O     0.00044   0.90842   0.56091   0.00000  Uiso   1.00
O1025  O     0.46179   0.89442   0.75001   0.00000  Uiso   1.00
O1026  O     0.53823   0.89441   0.75001   0.00000  Uiso   1.00
C1027  C     0.49996   0.91326   0.75003   0.00000  Uiso   1.00
O1028  O     0.44280   0.83333   0.82681   0.00000  Uiso   1.00
O1029  O     0.51924   0.83332   0.82681   0.00000  Uiso   1.00
C1030  C     0.47461   0.84043   0.85090   0.00000  Uiso   1.00
Zn1031 Zn    0.44896   0.83334   0.75000   0.00000  Uiso   1.00
Zn1032 Zn    0.55104   0.83333   0.75000   0.00000  Uiso   1.00
O1033  O     0.46177   0.77226   0.75000   0.00000  Uiso   1.00
O1034  O     0.53821   0.77225   0.75000   0.00000  Uiso   1.00
O1035  O     0.48076   0.83335   0.67319   0.00000  Uiso   1.00
O1036  O     0.55720   0.83334   0.67319   0.00000  Uiso   1.00
C1037  C     0.49957   0.75341   0.75172   0.00000  Uiso   1.00
C1038  C     0.52595   0.83339   0.64776   0.00000  Uiso   1.00
C1039  C     0.60159   0.84948   0.50318   0.00000  Uiso   1.00
H1040  H     0.61649   0.83206   0.57570   0.00000  Uiso   1.00
H1041  H     0.61624   0.87489   0.90145   0.00000  Uiso   1.00
H1042  H     0.63856   0.84777   0.97861   0.00000  Uiso   1.00
C1043  C     0.54097   0.83932   0.58929   0.00000  Uiso   1.00
C1044  C     0.41363   0.86831   0.93464   0.00000  Uiso   1.00
C1045  C     0.40094   0.88455   0.98772   0.00000  Uiso   1.00
C1046  C     0.43450   0.88256   0.51640   0.00000  Uiso   1.00
C1047  C     0.48233   0.87056   0.98769   0.00000  Uiso   1.00
C1048  C     0.49601   0.86811   0.93096   0.00000  Uiso   1.00
C1049  C     0.51783   0.86137   0.51202   0.00000  Uiso   1.00
C1050  C     0.56656   0.86105   0.98024   0.00000  Uiso   1.00
C1051  C     0.57928   0.87165   0.92574   0.00000  Uiso   1.00
C1052  C     0.54410   0.87554   0.90138   0.00000  Uiso   1.00
C1053  C     0.50596   0.84799   0.56537   0.00000  Uiso   1.00
C1054  C     0.58897   0.83960   0.55799   0.00000  Uiso   1.00
C1055  C     0.46109   0.85860   0.90625   0.00000  Uiso   1.00
H1056  H     0.46927   0.84293   0.58834   0.00000  Uiso   1.00
H1057  H     0.38694   0.86591   0.91434   0.00000  Uiso   1.00
H1058  H     0.55472   0.88497   0.85960   0.00000  Uiso   1.00
C1059  C     0.52366   0.97779   0.78235   0.00000  Uiso   1.00
H1060  H     0.54156   0.96011   0.80577   0.00000  Uiso   1.00
C1061  C     0.52252   0.68757   0.78534   0.00000  Uiso   1.00
C1062  C     0.49863   0.70921   0.75442   0.00000  Uiso   1.00
C1063  C     0.47431   0.68831   0.72392   0.00000  Uiso   1.00
H1064  H     0.45599   0.70512   0.70020   0.00000  Uiso   1.00
C1065  C     0.47443   0.97883   0.72280   0.00000  Uiso   1.00
H1066  H     0.45591   0.96255   0.69881   0.00000  Uiso   1.00
C1067  C     0.49956   0.95733   0.75144   0.00000  Uiso   1.00
C1068  C     0.64891   0.79977   0.72972   0.00000  Uiso   1.00
C1069  C     0.36314   0.79984   0.73056   0.00000  Uiso   1.00
H1070  H     0.38620   0.77340   0.71421   0.00000  Uiso   1.00
N1071  N     0.38093   0.83334   0.75002   0.00000  Uiso   1.00
C1072  C     0.35184   0.86706   0.76902   0.00000  Uiso   1.00
H1073  H     0.36544   0.89414   0.78426   0.00000  Uiso   1.00
C1074  C     0.63750   0.86716   0.76862   0.00000  Uiso   1.00
H1075  H     0.61581   0.89472   0.78250   0.00000  Uiso   1.00
N1076  N     0.61906   0.83331   0.75001   0.00000  Uiso   1.00
N1077  N     0.54347   0.70848   0.82137   0.00000  Uiso   1.00
O1078  O     0.52104   0.73919   0.85206   0.00000  Uiso   1.00
O1079  O     0.58083   0.69260   0.83017   0.00000  Uiso   1.00
N1080  N     0.63351   0.76499   0.70494   0.00000  Uiso   1.00
O1081  O     0.64301   0.72714   0.71671   0.00000  Uiso   1.00
O1082  O     0.62104   0.77087   0.66184   0.00000  Uiso   1.00
N1083  N     0.42263   0.89980   0.57023   0.00000  Uiso   1.00
O1084  O     0.39202   0.88107   0.61065   0.00000  Uiso   1.00
O1085  O     0.44706   0.93083   0.58002   0.00000  Uiso   1.00
N1086  N     0.35609   0.90623   0.50912   0.00000  Uiso   1.00
O1087  O     0.33787   0.92542   0.97619   0.00000  Uiso   1.00
O1088  O     0.33377   0.90842   0.56091   0.00000  Uiso   1.00
O1089  O     0.79512   0.89442   0.75001   0.00000  Uiso   1.00
O1090  O     0.87157   0.89441   0.75001   0.00000  Uiso   1.00
C1091  C     0.83329   0.91326   0.75003   0.00000  Uiso   1.00
O1092  O     0.77613   0.83333   0.82681   0.00000  Uiso   1.00
O1093  O     0.85258   0.83332   0.82681   0.00000  Uiso   1.00
C1094  C     0.80794   0.84043   0.85090   0.00000  Uiso   1.00
Zn1095 Zn    0.78229   0.83334   0.75000   0.00000  Uiso   1.00
Zn1096 Zn    0.88438   0.83333   0.75000   0.00000  Uiso   1.00
O1097  O     0.79510   0.77226   0.75000   0.00000  Uiso   1.00
O1098  O     0.87154   0.77225   0.75000   0.00000  Uiso   1.00
O1099  O     0.81409   0.83335   0.67319   0.00000  Uiso   1.00
O1100  O     0.89053   0.83334   0.67319   0.00000  Uiso   1.00
C1101  C     0.83290   0.75341   0.75172   0.00000  Uiso   1.00
C1102  C     0.85929   0.83339   0.64776   0.00000  Uiso   1.00
C1103  C     0.93492   0.84948   0.50318   0.00000  Uiso   1.00
H1104  H     0.94983   0.83206   0.57570   0.00000  Uiso   1.00
H1105  H     0.94958   0.87489   0.90145   0.00000  Uiso   1.00
H1106  H     0.97190   0.84777   0.97861   0.00000  Uiso   1.00
C1107  C     0.87431   0.83932   0.58929   0.00000  Uiso   1.00
C1108  C     0.74696   0.86831   0.93464   0.00000  Uiso   1.00
C1109  C     0.73427   0.88455   0.98772   0.00000  Uiso   1.00
C1110  C     0.76783   0.88256   0.51640   0.00000  Uiso   1.00
C1111  C     0.81566   0.87056   0.98769   0.00000  Uiso   1.00
C1112  C     0.82935   0.86811   0.93096   0.00000  Uiso   1.00
C1113  C     0.85117   0.86137   0.51202   0.00000  Uiso   1.00
C1114  C     0.89989   0.86105   0.98024   0.00000  Uiso   1.00
C1115  C     0.91261   0.87165   0.92574   0.00000  Uiso   1.00
C1116  C     0.87744   0.87554   0.90138   0.00000  Uiso   1.00
C1117  C     0.83929   0.84799   0.56537   0.00000  Uiso   1.00
C1118  C     0.92230   0.83960   0.55799   0.00000  Uiso   1.00
C1119  C     0.79443   0.85860   0.90625   0.00000  Uiso   1.00
H1120  H     0.80260   0.84293   0.58834   0.00000  Uiso   1.00
H1121  H     0.72028   0.86591   0.91434   0.00000  Uiso   1.00
H1122  H     0.88805   0.88497   0.85960   0.00000  Uiso   1.00
C1123  C     0.85699   0.97779   0.78235   0.00000  Uiso   1.00
H1124  H     0.87490   0.96011   0.80577   0.00000  Uiso   1.00
C1125  C     0.85586   0.68757   0.78534   0.00000  Uiso   1.00
C1126  C     0.83196   0.70921   0.75442   0.00000  Uiso   1.00
C1127  C     0.80764   0.68831   0.72392   0.00000  Uiso   1.00
H1128  H     0.78933   0.70512   0.70020   0.00000  Uiso   1.00
C1129  C     0.80776   0.97883   0.72280   0.00000  Uiso   1.00
H1130  H     0.78925   0.96255   0.69881   0.00000  Uiso   1.00
C1131  C     0.83289   0.95733   0.75144   0.00000  Uiso   1.00
C1132  C     0.98225   0.79977   0.72972   0.00000  Uiso   1.00
C1133  C     0.69648   0.79984   0.73056   0.00000  Uiso   1.00
H1134  H     0.71954   0.77340   0.71421   0.00000  Uiso   1.00
N1135  N     0.71426   0.83334   0.75002   0.00000  Uiso   1.00
C1136  C     0.68517   0.86706   0.76902   0.00000  Uiso   1.00
H1137  H     0.69878   0.89414   0.78426   0.00000  Uiso   1.00
C1138  C     0.97083   0.86716   0.76862   0.00000  Uiso   1.00
H1139  H     0.94914   0.89472   0.78250   0.00000  Uiso   1.00
N1140  N     0.95239   0.83331   0.75001   0.00000  Uiso   1.00
N1141  N     0.87680   0.70848   0.82137   0.00000  Uiso   1.00
O1142  O     0.85438   0.73919   0.85206   0.00000  Uiso   1.00
O1143  O     0.91416   0.69260   0.83017   0.00000  Uiso   1.00
N1144  N     0.96684   0.76499   0.70494   0.00000  Uiso   1.00
O1145  O     0.97634   0.72714   0.71671   0.00000  Uiso   1.00
O1146  O     0.95437   0.77087   0.66184   0.00000  Uiso   1.00
N1147  N     0.75596   0.89980   0.57023   0.00000  Uiso   1.00
O1148  O     0.72535   0.88107   0.61065   0.00000  Uiso   1.00
O1149  O     0.78039   0.93083   0.58002   0.00000  Uiso   1.00
N1150  N     0.68942   0.90623   0.50912   0.00000  Uiso   1.00
O1151  O     0.67121   0.92542   0.97619   0.00000  Uiso   1.00
O1152  O     0.66711   0.90842   0.56091   0.00000  Uiso   1.00
loop_
_geom_bond_atom_site_label_1
_geom_bond_atom_site_label_2
_geom_bond_distance
_geom_bond_site_symmetry_2
_ccdc_geom_bond_type
O1     Zn7     1.991   .     S
O1     C3      1.285   .     A
O2     C3      1.283   .     A
O2     Zn8     1.988   .     S
C3     C43     1.409   .     S
O4     Zn7     1.945   .     S
O4     C6      1.306   .     A
O5     Zn8     1.919   .     S
O5     C6      1.292   .     A
C6     C31     1.480   .     S
Zn7    O11     1.919   .     S
Zn7    N47     2.017   .     S
Zn7    O9      1.988   .     S
Zn8    O12     1.945   .     S
Zn8    O10     1.991   .     S
Zn8    N52     2.017   .     S
O9     C13     1.284   .     A
O10    C13     1.285   .     A
O11    C14     1.294   .     A
O12    C14     1.297   .     A
C13    C38     1.415   .     S
C14    C19     1.455   .     S
C15    C30     1.391   .     A
C15    H594    1.082   1_554 S
C15    C602    1.400   1_554 S
H16    C30     1.083   .     S
H17    C27     1.084   .     S
H18    C591    1.082   .     S
C19    C29     1.395   .     A
C19    C30     1.399   .     A
C20    C21     1.405   .     A
C20    H33     1.083   .     S
C20    C31     1.400   .     A
C21    C598    1.420   .     S
C21    N638    1.442   .     S
C22    N59     1.436   .     S
C22    C597    1.420   1_554 S
C22    C599    1.428   1_554 S
C23    C24     1.401   .     A
C23    C598    1.428   .     S
C23    C601    1.419   .     S
C24    C31     1.413   .     A
C24    C28     1.412   .     A
C25    C29     1.388   .     A
C25    C599    1.419   1_554 S
C25    C602    1.420   1_554 S
C26    C27     1.390   .     A
C26    C591    1.400   .     S
C26    C601    1.420   .     S
C27    C28     1.386   .     A
C28    H34     1.076   .     S
C29    H32     1.076   .     S
C35    C43     1.394   .     A
C35    H36     1.085   .     S
C35    C229    1.380   .     S
C37    N53     1.440   .     S
C37    C38     1.410   .     A
C37    C419    1.380   1_545 S
C38    C39     1.398   .     A
C39    H40     1.084   .     S
C39    C425    1.369   1_545 S
C41    H42     1.084   .     S
C41    C43     1.390   .     A
C41    C231    1.369   .     S
C44    N56     1.429   .     S
C44    N52     1.380   .     A
C44    C109    1.417   .     S
C45    H46     1.082   .     S
C45    N47     1.360   .     A
C45    C172    1.417   1_455 S
N47    C48     1.367   .     A
C48    H49     1.081   .     S
C48    C178    1.417   1_455 S
C50    N52     1.368   .     A
C50    H51     1.080   .     S
C50    C112    1.417   .     S
N53    O54     1.301   .     A
N53    O55     1.301   .     A
N56    O58     1.300   .     A
N56    O57     1.301   .     A
N59    O60     1.302   .     A
N59    O61     1.301   .     A
N62    O64     1.300   .     A
N62    C597    1.442   1_554 S
N62    O639    1.302   1_554 S
O63    N638    1.302   .     S
O65    Zn71    1.991   .     S
O65    C67     1.285   .     A
O66    C67     1.283   .     A
O66    Zn72    1.988   .     S
C67    C107    1.409   .     S
O68    Zn71    1.945   .     S
O68    C70     1.306   .     A
O69    Zn72    1.919   .     S
O69    C70     1.292   .     A
C70    C95     1.480   .     S
Zn71   O75     1.919   .     S
Zn71   N111    2.017   .     S
Zn71   O73     1.988   .     S
Zn72   O76     1.945   .     S
Zn72   O74     1.991   .     S
Zn72   N116    2.017   .     S
O73    C77     1.284   .     A
O74    C77     1.285   .     A
O75    C78     1.294   .     A
O76    C78     1.297   .     A
C77    C102    1.415   .     S
C78    C83     1.455   .     S
C79    C94     1.391   .     A
C79    H658    1.082   1_554 S
C79    C666    1.400   1_554 S
H80    C94     1.083   .     S
H81    C91     1.084   .     S
H82    C655    1.082   .     S
C83    C93     1.395   .     A
C83    C94     1.399   .     A
C84    C85     1.405   .     A
C84    H97     1.083   .     S
C84    C95     1.400   .     A
C85    C662    1.420   .     S
C85    N702    1.442   .     S
C86    N123    1.436   .     S
C86    C661    1.420   1_554 S
C86    C663    1.428   1_554 S
C87    C88     1.401   .     A
C87    C662    1.428   .     S
C87    C665    1.419   .     S
C88    C95     1.413   .     A
C88    C92     1.412   .     A
C89    C93     1.388   .     A
C89    C663    1.419   1_554 S
C89    C666    1.420   1_554 S
C90    C91     1.390   .     A
C90    C655    1.400   .     S
C90    C665    1.420   .     S
C91    C92     1.386   .     A
C92    H98     1.076   .     S
C93    H96     1.076   .     S
C99    C107    1.394   .     A
C99    H100    1.085   .     S
C99    C293    1.380   .     S
C101   N117    1.440   .     S
C101   C102    1.410   .     A
C101   C483    1.380   1_545 S
C102   C103    1.398   .     A
C103   H104    1.084   .     S
C103   C489    1.369   1_545 S
C105   H106    1.084   .     S
C105   C107    1.390   .     A
C105   C295    1.369   .     S
C108   N120    1.429   .     S
C108   N116    1.380   .     A
C108   C173    1.417   .     S
C109   H110    1.082   .     S
C109   N111    1.360   .     A
N111   C112    1.367   .     A
C112   H113    1.081   .     S
C114   N116    1.368   .     A
C114   H115    1.080   .     S
C114   C176    1.417   .     S
N117   O118    1.301   .     A
N117   O119    1.301   .     A
N120   O122    1.300   .     A
N120   O121    1.301   .     A
N123   O124    1.302   .     A
N123   O125    1.301   .     A
N126   O128    1.300   .     A
N126   C661    1.442   1_554 S
N126   O703    1.302   1_554 S
O127   N702    1.302   .     S
O129   Zn135   1.991   .     S
O129   C131    1.285   .     A
O130   C131    1.283   .     A
O130   Zn136   1.988   .     S
C131   C171    1.409   .     S
O132   Zn135   1.945   .     S
O132   C134    1.306   .     A
O133   Zn136   1.919   .     S
O133   C134    1.292   .     A
C134   C159    1.480   .     S
Zn135  O139    1.919   .     S
Zn135  N175    2.017   .     S
Zn135  O137    1.988   .     S
Zn136  O140    1.945   .     S
Zn136  O138    1.991   .     S
Zn136  N180    2.017   .     S
O137   C141    1.284   .     A
O138   C141    1.285   .     A
O139   C142    1.294   .     A
O140   C142    1.297   .     A
C141   C166    1.415   .     S
C142   C147    1.455   .     S
C143   C158    1.391   .     A
C143   H722    1.082   1_554 S
C143   C730    1.400   1_554 S
H144   C158    1.083   .     S
H145   C155    1.084   .     S
H146   C719    1.082   .     S
C147   C157    1.395   .     A
C147   C158    1.399   .     A
C148   C149    1.405   .     A
C148   H161    1.083   .     S
C148   C159    1.400   .     A
C149   C726    1.420   .     S
C149   N766    1.442   .     S
C150   N187    1.436   .     S
C150   C725    1.420   1_554 S
C150   C727    1.428   1_554 S
C151   C152    1.401   .     A
C151   C726    1.428   .     S
C151   C729    1.419   .     S
C152   C159    1.413   .     A
C152   C156    1.412   .     A
C153   C157    1.388   .     A
C153   C727    1.419   1_554 S
C153   C730    1.420   1_554 S
C154   C155    1.390   .     A
C154   C719    1.400   .     S
C154   C729    1.420   .     S
C155   C156    1.386   .     A
C156   H162    1.076   .     S
C157   H160    1.076   .     S
C163   C171    1.394   .     A
C163   H164    1.085   .     S
C163   C357    1.380   .     S
C165   N181    1.440   .     S
C165   C166    1.410   .     A
C165   C547    1.380   1_545 S
C166   C167    1.398   .     A
C167   H168    1.084   .     S
C167   C553    1.369   1_545 S
C169   H170    1.084   .     S
C169   C171    1.390   .     A
C169   C359    1.369   .     S
C172   N184    1.429   .     S
C172   N180    1.380   .     A
C172   C45     1.417   1_655 S
C173   H174    1.082   .     S
C173   N175    1.360   .     A
N175   C176    1.367   .     A
C176   H177    1.081   .     S
C178   N180    1.368   .     A
C178   H179    1.080   .     S
C178   C48     1.417   1_655 S
N181   O182    1.301   .     A
N181   O183    1.301   .     A
N184   O186    1.300   .     A
N184   O185    1.301   .     A
N187   O188    1.302   .     A
N187   O189    1.301   .     A
N190   O192    1.300   .     A
N190   C725    1.442   1_554 S
N190   O767    1.302   1_554 S
O191   N766    1.302   .     S
O193   Zn199   1.991   .     S
O193   C195    1.285   .     A
O194   C195    1.283   .     A
O194   Zn200   1.988   .     S
C195   C235    1.409   .     S
O196   Zn199   1.945   .     S
O196   C198    1.306   .     A
O197   Zn200   1.919   .     S
O197   C198    1.292   .     A
C198   C223    1.480   .     S
Zn199  O203    1.919   .     S
Zn199  N239    2.017   .     S
Zn199  O201    1.988   .     S
Zn200  O204    1.945   .     S
Zn200  O202    1.991   .     S
Zn200  N244    2.017   .     S
O201   C205    1.284   .     A
O202   C205    1.285   .     A
O203   C206    1.294   .     A
O204   C206    1.297   .     A
C205   C230    1.415   .     S
C206   C211    1.455   .     S
C207   C222    1.391   .     A
C207   H786    1.082   1_554 S
C207   C794    1.400   1_554 S
H208   C222    1.083   .     S
H209   C219    1.084   .     S
H210   C783    1.082   .     S
C211   C221    1.395   .     A
C211   C222    1.399   .     A
C212   C213    1.405   .     A
C212   H225    1.083   .     S
C212   C223    1.400   .     A
C213   C790    1.420   .     S
C213   N830    1.442   .     S
C214   N251    1.436   .     S
C214   C789    1.420   1_554 S
C214   C791    1.428   1_554 S
C215   C216    1.401   .     A
C215   C790    1.428   .     S
C215   C793    1.419   .     S
C216   C223    1.413   .     A
C216   C220    1.412   .     A
C217   C221    1.388   .     A
C217   C791    1.419   1_554 S
C217   C794    1.420   1_554 S
C218   C219    1.390   .     A
C218   C783    1.400   .     S
C218   C793    1.420   .     S
C219   C220    1.386   .     A
C220   H226    1.076   .     S
C221   H224    1.076   .     S
C227   C235    1.394   .     A
C227   H228    1.085   .     S
C227   C421    1.380   .     S
C229   N245    1.440   .     S
C229   C230    1.410   .     A
C230   C231    1.398   .     A
C231   H232    1.084   .     S
C233   H234    1.084   .     S
C233   C235    1.390   .     A
C233   C423    1.369   .     S
C236   N248    1.429   .     S
C236   N244    1.380   .     A
C236   C301    1.417   .     S
C237   H238    1.082   .     S
C237   N239    1.360   .     A
C237   C364    1.417   1_455 S
N239   C240    1.367   .     A
C240   H241    1.081   .     S
C240   C370    1.417   1_455 S
C242   N244    1.368   .     A
C242   H243    1.080   .     S
C242   C304    1.417   .     S
N245   O246    1.301   .     A
N245   O247    1.301   .     A
N248   O250    1.300   .     A
N248   O249    1.301   .     A
N251   O252    1.302   .     A
N251   O253    1.301   .     A
N254   O256    1.300   .     A
N254   C789    1.442   1_554 S
N254   O831    1.302   1_554 S
O255   N830    1.302   .     S
O257   Zn263   1.991   .     S
O257   C259    1.285   .     A
O258   C259    1.283   .     A
O258   Zn264   1.988   .     S
C259   C299    1.409   .     S
O260   Zn263   1.945   .     S
O260   C262    1.306   .     A
O261   Zn264   1.919   .     S
O261   C262    1.292   .     A
C262   C287    1.480   .     S
Zn263  O267    1.919   .     S
Zn263  N303    2.017   .     S
Zn263  O265    1.988   .     S
Zn264  O268    1.945   .     S
Zn264  O266    1.991   .     S
Zn264  N308    2.017   .     S
O265   C269    1.284   .     A
O266   C269    1.285   .     A
O267   C270    1.294   .     A
O268   C270    1.297   .     A
C269   C294    1.415   .     S
C270   C275    1.455   .     S
C271   C286    1.391   .     A
C271   H850    1.082   1_554 S
C271   C858    1.400   1_554 S
H272   C286    1.083   .     S
H273   C283    1.084   .     S
H274   C847    1.082   .     S
C275   C285    1.395   .     A
C275   C286    1.399   .     A
C276   C277    1.405   .     A
C276   H289    1.083   .     S
C276   C287    1.400   .     A
C277   C854    1.420   .     S
C277   N894    1.442   .     S
C278   N315    1.436   .     S
C278   C853    1.420   1_554 S
C278   C855    1.428   1_554 S
C279   C280    1.401   .     A
C279   C854    1.428   .     S
C279   C857    1.419   .     S
C280   C287    1.413   .     A
C280   C284    1.412   .     A
C281   C285    1.388   .     A
C281   C855    1.419   1_554 S
C281   C858    1.420   1_554 S
C282   C283    1.390   .     A
C282   C847    1.400   .     S
C282   C857    1.420   .     S
C283   C284    1.386   .     A
C284   H290    1.076   .     S
C285   H288    1.076   .     S
C291   C299    1.394   .     A
C291   H292    1.085   .     S
C291   C485    1.380   .     S
C293   N309    1.440   .     S
C293   C294    1.410   .     A
C294   C295    1.398   .     A
C295   H296    1.084   .     S
C297   H298    1.084   .     S
C297   C299    1.390   .     A
C297   C487    1.369   .     S
C300   N312    1.429   .     S
C300   N308    1.380   .     A
C300   C365    1.417   .     S
C301   H302    1.082   .     S
C301   N303    1.360   .     A
N303   C304    1.367   .     A
C304   H305    1.081   .     S
C306   N308    1.368   .     A
C306   H307    1.080   .     S
C306   C368    1.417   .     S
N309   O310    1.301   .     A
N309   O311    1.301   .     A
N312   O314    1.300   .     A
N312   O313    1.301   .     A
N315   O316    1.302   .     A
N315   O317    1.301   .     A
N318   O320    1.300   .     A
N318   C853    1.442   1_554 S
N318   O895    1.302   1_554 S
O319   N894    1.302   .     S
O321   Zn327   1.991   .     S
O321   C323    1.285   .     A
O322   C323    1.283   .     A
O322   Zn328   1.988   .     S
C323   C363    1.409   .     S
O324   Zn327   1.945   .     S
O324   C326    1.306   .     A
O325   Zn328   1.919   .     S
O325   C326    1.292   .     A
C326   C351    1.480   .     S
Zn327  O331    1.919   .     S
Zn327  N367    2.017   .     S
Zn327  O329    1.988   .     S
Zn328  O332    1.945   .     S
Zn328  O330    1.991   .     S
Zn328  N372    2.017   .     S
O329   C333    1.284   .     A
O330   C333    1.285   .     A
O331   C334    1.294   .     A
O332   C334    1.297   .     A
C333   C358    1.415   .     S
C334   C339    1.455   .     S
C335   C350    1.391   .     A
C335   H914    1.082   1_554 S
C335   C922    1.400   1_554 S
H336   C350    1.083   .     S
H337   C347    1.084   .     S
H338   C911    1.082   .     S
C339   C349    1.395   .     A
C339   C350    1.399   .     A
C340   C341    1.405   .     A
C340   H353    1.083   .     S
C340   C351    1.400   .     A
C341   C918    1.420   .     S
C341   N958    1.442   .     S
C342   N379    1.436   .     S
C342   C917    1.420   1_554 S
C342   C919    1.428   1_554 S
C343   C344    1.401   .     A
C343   C918    1.428   .     S
C343   C921    1.419   .     S
C344   C351    1.413   .     A
C344   C348    1.412   .     A
C345   C349    1.388   .     A
C345   C919    1.419   1_554 S
C345   C922    1.420   1_554 S
C346   C347    1.390   .     A
C346   C911    1.400   .     S
C346   C921    1.420   .     S
C347   C348    1.386   .     A
C348   H354    1.076   .     S
C349   H352    1.076   .     S
C355   C363    1.394   .     A
C355   H356    1.085   .     S
C355   C549    1.380   .     S
C357   N373    1.440   .     S
C357   C358    1.410   .     A
C358   C359    1.398   .     A
C359   H360    1.084   .     S
C361   H362    1.084   .     S
C361   C363    1.390   .     A
C361   C551    1.369   .     S
C364   N376    1.429   .     S
C364   N372    1.380   .     A
C364   C237    1.417   1_655 S
C365   H366    1.082   .     S
C365   N367    1.360   .     A
N367   C368    1.367   .     A
C368   H369    1.081   .     S
C370   N372    1.368   .     A
C370   H371    1.080   .     S
C370   C240    1.417   1_655 S
N373   O374    1.301   .     A
N373   O375    1.301   .     A
N376   O378    1.300   .     A
N376   O377    1.301   .     A
N379   O380    1.302   .     A
N379   O381    1.301   .     A
N382   O384    1.300   .     A
N382   C917    1.442   1_554 S
N382   O959    1.302   1_554 S
O383   N958    1.302   .     S
O385   Zn391   1.991   .     S
O385   C387    1.285   .     A
O386   C387    1.283   .     A
O386   Zn392   1.988   .     S
C387   C427    1.409   .     S
O388   Zn391   1.945   .     S
O388   C390    1.306   .     A
O389   Zn392   1.919   .     S
O389   C390    1.292   .     A
C390   C415    1.480   .     S
Zn391  O395    1.919   .     S
Zn391  N431    2.017   .     S
Zn391  O393    1.988   .     S
Zn392  O396    1.945   .     S
Zn392  O394    1.991   .     S
Zn392  N436    2.017   .     S
O393   C397    1.284   .     A
O394   C397    1.285   .     A
O395   C398    1.294   .     A
O396   C398    1.297   .     A
C397   C422    1.415   .     S
C398   C403    1.455   .     S
C399   C414    1.391   .     A
C399   H978    1.082   1_554 S
C399   C986    1.400   1_554 S
H400   C414    1.083   .     S
H401   C411    1.084   .     S
H402   C975    1.082   .     S
C403   C413    1.395   .     A
C403   C414    1.399   .     A
C404   C405    1.405   .     A
C404   H417    1.083   .     S
C404   C415    1.400   .     A
C405   C982    1.420   .     S
C405   N1022   1.442   .     S
C406   N443    1.436   .     S
C406   C981    1.420   1_554 S
C406   C983    1.428   1_554 S
C407   C408    1.401   .     A
C407   C982    1.428   .     S
C407   C985    1.419   .     S
C408   C415    1.413   .     A
C408   C412    1.412   .     A
C409   C413    1.388   .     A
C409   C983    1.419   1_554 S
C409   C986    1.420   1_554 S
C410   C411    1.390   .     A
C410   C975    1.400   .     S
C410   C985    1.420   .     S
C411   C412    1.386   .     A
C412   H418    1.076   .     S
C413   H416    1.076   .     S
C419   C427    1.394   .     A
C419   H420    1.085   .     S
C419   C37     1.380   1_565 S
C421   N437    1.440   .     S
C421   C422    1.410   .     A
C422   C423    1.398   .     A
C423   H424    1.084   .     S
C425   H426    1.084   .     S
C425   C427    1.390   .     A
C425   C39     1.369   1_565 S
C428   N440    1.429   .     S
C428   N436    1.380   .     A
C428   C493    1.417   .     S
C429   H430    1.082   .     S
C429   N431    1.360   .     A
C429   C556    1.417   1_455 S
N431   C432    1.367   .     A
C432   H433    1.081   .     S
C432   C562    1.417   1_455 S
C434   N436    1.368   .     A
C434   H435    1.080   .     S
C434   C496    1.417   .     S
N437   O438    1.301   .     A
N437   O439    1.301   .     A
N440   O442    1.300   .     A
N440   O441    1.301   .     A
N443   O444    1.302   .     A
N443   O445    1.301   .     A
N446   O448    1.300   .     A
N446   C981    1.442   1_554 S
N446   O1023   1.302   1_554 S
O447   N1022   1.302   .     S
O449   Zn455   1.991   .     S
O449   C451    1.285   .     A
O450   C451    1.283   .     A
O450   Zn456   1.988   .     S
C451   C491    1.409   .     S
O452   Zn455   1.945   .     S
O452   C454    1.306   .     A
O453   Zn456   1.919   .     S
O453   C454    1.292   .     A
C454   C479    1.480   .     S
Zn455  O459    1.919   .     S
Zn455  N495    2.017   .     S
Zn455  O457    1.988   .     S
Zn456  O460    1.945   .     S
Zn456  O458    1.991   .     S
Zn456  N500    2.017   .     S
O457   C461    1.284   .     A
O458   C461    1.285   .     A
O459   C462    1.294   .     A
O460   C462    1.297   .     A
C461   C486    1.415   .     S
C462   C467    1.455   .     S
C463   C478    1.391   .     A
C463   H1042   1.082   1_554 S
C463   C1050   1.400   1_554 S
H464   C478    1.083   .     S
H465   C475    1.084   .     S
H466   C1039   1.082   .     S
C467   C477    1.395   .     A
C467   C478    1.399   .     A
C468   C469    1.405   .     A
C468   H481    1.083   .     S
C468   C479    1.400   .     A
C469   C1046   1.420   .     S
C469   N1086   1.442   .     S
C470   N507    1.436   .     S
C470   C1045   1.420   1_554 S
C470   C1047   1.428   1_554 S
C471   C472    1.401   .     A
C471   C1046   1.428   .     S
C471   C1049   1.419   .     S
C472   C479    1.413   .     A
C472   C476    1.412   .     A
C473   C477    1.388   .     A
C473   C1047   1.419   1_554 S
C473   C1050   1.420   1_554 S
C474   C475    1.390   .     A
C474   C1039   1.400   .     S
C474   C1049   1.420   .     S
C475   C476    1.386   .     A
C476   H482    1.076   .     S
C477   H480    1.076   .     S
C483   C491    1.394   .     A
C483   H484    1.085   .     S
C483   C101    1.380   1_565 S
C485   N501    1.440   .     S
C485   C486    1.410   .     A
C486   C487    1.398   .     A
C487   H488    1.084   .     S
C489   H490    1.084   .     S
C489   C491    1.390   .     A
C489   C103    1.369   1_565 S
C492   N504    1.429   .     S
C492   N500    1.380   .     A
C492   C557    1.417   .     S
C493   H494    1.082   .     S
C493   N495    1.360   .     A
N495   C496    1.367   .     A
C496   H497    1.081   .     S
C498   N500    1.368   .     A
C498   H499    1.080   .     S
C498   C560    1.417   .     S
N501   O502    1.301   .     A
N501   O503    1.301   .     A
N504   O506    1.300   .     A
N504   O505    1.301   .     A
N507   O508    1.302   .     A
N507   O509    1.301   .     A
N510   O512    1.300   .     A
N510   C1045   1.442   1_554 S
N510   O1087   1.302   1_554 S
O511   N1086   1.302   .     S
O513   Zn519   1.991   .     S
O513   C515    1.285   .     A
O514   C515    1.283   .     A
O514   Zn520   1.988   .     S
C515   C555    1.409   .     S
O516   Zn519   1.945   .     S
O516   C518    1.306   .     A
O517   Zn520   1.919   .     S
O517   C518    1.292   .     A
C518   C543    1.480   .     S
Zn519  O523    1.919   .     S
Zn519  N559    2.017   .     S
Zn519  O521    1.988   .     S
Zn520  O524    1.945   .     S
Zn520  O522    1.991   .     S
Zn520  N564    2.017   .     S
O521   C525    1.284   .     A
O522   C525    1.285   .     A
O523   C526    1.294   .     A
O524   C526    1.297   .     A
C525   C550    1.415   .     S
C526   C531    1.455   .     S
C527   C542    1.391   .     A
C527   H1106   1.082   1_554 S
C527   C1114   1.400   1_554 S
H528   C542    1.083   .     S
H529   C539    1.084   .     S
H530   C1103   1.082   .     S
C531   C541    1.395   .     A
C531   C542    1.399   .     A
C532   C533    1.405   .     A
C532   H545    1.083   .     S
C532   C543    1.400   .     A
C533   C1110   1.420   .     S
C533   N1150   1.442   .     S
C534   N571    1.436   .     S
C534   C1109   1.420   1_554 S
C534   C1111   1.428   1_554 S
C535   C536    1.401   .     A
C535   C1110   1.428   .     S
C535   C1113   1.419   .     S
C536   C543    1.413   .     A
C536   C540    1.412   .     A
C537   C541    1.388   .     A
C537   C1111   1.419   1_554 S
C537   C1114   1.420   1_554 S
C538   C539    1.390   .     A
C538   C1103   1.400   .     S
C538   C1113   1.420   .     S
C539   C540    1.386   .     A
C540   H546    1.076   .     S
C541   H544    1.076   .     S
C547   C555    1.394   .     A
C547   H548    1.085   .     S
C547   C165    1.380   1_565 S
C549   N565    1.440   .     S
C549   C550    1.410   .     A
C550   C551    1.398   .     A
C551   H552    1.084   .     S
C553   H554    1.084   .     S
C553   C555    1.390   .     A
C553   C167    1.369   1_565 S
C556   N568    1.429   .     S
C556   N564    1.380   .     A
C556   C429    1.417   1_655 S
C557   H558    1.082   .     S
C557   N559    1.360   .     A
N559   C560    1.367   .     A
C560   H561    1.081   .     S
C562   N564    1.368   .     A
C562   H563    1.080   .     S
C562   C432    1.417   1_655 S
N565   O566    1.301   .     A
N565   O567    1.301   .     A
N568   O570    1.300   .     A
N568   O569    1.301   .     A
N571   O572    1.302   .     A
N571   O573    1.301   .     A
N574   O576    1.300   .     A
N574   C1109   1.442   1_554 S
N574   O1151   1.302   1_554 S
O575   N1150   1.302   .     S
O577   Zn583   1.991   .     S
O577   C579    1.285   .     A
O578   C579    1.283   .     A
O578   Zn584   1.988   .     S
C579   C619    1.409   .     S
O580   Zn583   1.945   .     S
O580   C582    1.306   .     A
O581   Zn584   1.919   .     S
O581   C582    1.292   .     A
C582   C607    1.480   .     S
Zn583  O587    1.919   .     S
Zn583  N623    2.017   .     S
Zn583  O585    1.988   .     S
Zn584  O588    1.945   .     S
Zn584  O586    1.991   .     S
Zn584  N628    2.017   .     S
O585   C589    1.284   .     A
O586   C589    1.285   .     A
O587   C590    1.294   .     A
O588   C590    1.297   .     A
C589   C614    1.415   .     S
C590   C595    1.455   .     S
C591   C606    1.391   .     A
H592   C606    1.083   .     S
H593   C603    1.084   .     S
H594   C15     1.082   1_556 S
C595   C605    1.395   .     A
C595   C606    1.399   .     A
C596   C597    1.405   .     A
C596   H609    1.083   .     S
C596   C607    1.400   .     A
C597   C22     1.420   1_556 S
C597   N62     1.442   1_556 S
C598   N635    1.436   .     S
C599   C600    1.401   .     A
C599   C22     1.428   1_556 S
C599   C25     1.419   1_556 S
C600   C607    1.413   .     A
C600   C604    1.412   .     A
C601   C605    1.388   .     A
C602   C603    1.390   .     A
C602   C15     1.400   1_556 S
C602   C25     1.420   1_556 S
C603   C604    1.386   .     A
C604   H610    1.076   .     S
C605   H608    1.076   .     S
C611   C619    1.394   .     A
C611   H612    1.085   .     S
C611   C805    1.380   .     S
C613   N629    1.440   .     S
C613   C614    1.410   .     A
C613   C995    1.380   1_545 S
C614   C615    1.398   .     A
C615   H616    1.084   .     S
C615   C1001   1.369   1_545 S
C617   H618    1.084   .     S
C617   C619    1.390   .     A
C617   C807    1.369   .     S
C620   N632    1.429   .     S
C620   N628    1.380   .     A
C620   C685    1.417   .     S
C621   H622    1.082   .     S
C621   N623    1.360   .     A
C621   C748    1.417   1_455 S
N623   C624    1.367   .     A
C624   H625    1.081   .     S
C624   C754    1.417   1_455 S
C626   N628    1.368   .     A
C626   H627    1.080   .     S
C626   C688    1.417   .     S
N629   O630    1.301   .     A
N629   O631    1.301   .     A
N632   O634    1.300   .     A
N632   O633    1.301   .     A
N635   O636    1.302   .     A
N635   O637    1.301   .     A
N638   O640    1.300   .     A
O639   N62     1.302   1_556 S
O641   Zn647   1.991   .     S
O641   C643    1.285   .     A
O642   C643    1.283   .     A
O642   Zn648   1.988   .     S
C643   C683    1.409   .     S
O644   Zn647   1.945   .     S
O644   C646    1.306   .     A
O645   Zn648   1.919   .     S
O645   C646    1.292   .     A
C646   C671    1.480   .     S
Zn647  O651    1.919   .     S
Zn647  N687    2.017   .     S
Zn647  O649    1.988   .     S
Zn648  O652    1.945   .     S
Zn648  O650    1.991   .     S
Zn648  N692    2.017   .     S
O649   C653    1.284   .     A
O650   C653    1.285   .     A
O651   C654    1.294   .     A
O652   C654    1.297   .     A
C653   C678    1.415   .     S
C654   C659    1.455   .     S
C655   C670    1.391   .     A
H656   C670    1.083   .     S
H657   C667    1.084   .     S
H658   C79     1.082   1_556 S
C659   C669    1.395   .     A
C659   C670    1.399   .     A
C660   C661    1.405   .     A
C660   H673    1.083   .     S
C660   C671    1.400   .     A
C661   C86     1.420   1_556 S
C661   N126    1.442   1_556 S
C662   N699    1.436   .     S
C663   C664    1.401   .     A
C663   C86     1.428   1_556 S
C663   C89     1.419   1_556 S
C664   C671    1.413   .     A
C664   C668    1.412   .     A
C665   C669    1.388   .     A
C666   C667    1.390   .     A
C666   C79     1.400   1_556 S
C666   C89     1.420   1_556 S
C667   C668    1.386   .     A
C668   H674    1.076   .     S
C669   H672    1.076   .     S
C675   C683    1.394   .     A
C675   H676    1.085   .     S
C675   C869    1.380   .     S
C677   N693    1.440   .     S
C677   C678    1.410   .     A
C677   C1059   1.380   1_545 S
C678   C679    1.398   .     A
C679   H680    1.084   .     S
C679   C1065   1.369   1_545 S
C681   H682    1.084   .     S
C681   C683    1.390   .     A
C681   C871    1.369   .     S
C684   N696    1.429   .     S
C684   N692    1.380   .     A
C684   C749    1.417   .     S
C685   H686    1.082   .     S
C685   N687    1.360   .     A
N687   C688    1.367   .     A
C688   H689    1.081   .     S
C690   N692    1.368   .     A
C690   H691    1.080   .     S
C690   C752    1.417   .     S
N693   O694    1.301   .     A
N693   O695    1.301   .     A
N696   O698    1.300   .     A
N696   O697    1.301   .     A
N699   O700    1.302   .     A
N699   O701    1.301   .     A
N702   O704    1.300   .     A
O703   N126    1.302   1_556 S
O705   Zn711   1.991   .     S
O705   C707    1.285   .     A
O706   C707    1.283   .     A
O706   Zn712   1.988   .     S
C707   C747    1.409   .     S
O708   Zn711   1.945   .     S
O708   C710    1.306   .     A
O709   Zn712   1.919   .     S
O709   C710    1.292   .     A
C710   C735    1.480   .     S
Zn711  O715    1.919   .     S
Zn711  N751    2.017   .     S
Zn711  O713    1.988   .     S
Zn712  O716    1.945   .     S
Zn712  O714    1.991   .     S
Zn712  N756    2.017   .     S
O713   C717    1.284   .     A
O714   C717    1.285   .     A
O715   C718    1.294   .     A
O716   C718    1.297   .     A
C717   C742    1.415   .     S
C718   C723    1.455   .     S
C719   C734    1.391   .     A
H720   C734    1.083   .     S
H721   C731    1.084   .     S
H722   C143    1.082   1_556 S
C723   C733    1.395   .     A
C723   C734    1.399   .     A
C724   C725    1.405   .     A
C724   H737    1.083   .     S
C724   C735    1.400   .     A
C725   C150    1.420   1_556 S
C725   N190    1.442   1_556 S
C726   N763    1.436   .     S
C727   C728    1.401   .     A
C727   C150    1.428   1_556 S
C727   C153    1.419   1_556 S
C728   C735    1.413   .     A
C728   C732    1.412   .     A
C729   C733    1.388   .     A
C730   C731    1.390   .     A
C730   C143    1.400   1_556 S
C730   C153    1.420   1_556 S
C731   C732    1.386   .     A
C732   H738    1.076   .     S
C733   H736    1.076   .     S
C739   C747    1.394   .     A
C739   H740    1.085   .     S
C739   C933    1.380   .     S
C741   N757    1.440   .     S
C741   C742    1.410   .     A
C741   C1123   1.380   1_545 S
C742   C743    1.398   .     A
C743   H744    1.084   .     S
C743   C1129   1.369   1_545 S
C745   H746    1.084   .     S
C745   C747    1.390   .     A
C745   C935    1.369   .     S
C748   N760    1.429   .     S
C748   N756    1.380   .     A
C748   C621    1.417   1_655 S
C749   H750    1.082   .     S
C749   N751    1.360   .     A
N751   C752    1.367   .     A
C752   H753    1.081   .     S
C754   N756    1.368   .     A
C754   H755    1.080   .     S
C754   C624    1.417   1_655 S
N757   O758    1.301   .     A
N757   O759    1.301   .     A
N760   O762    1.300   .     A
N760   O761    1.301   .     A
N763   O764    1.302   .     A
N763   O765    1.301   .     A
N766   O768    1.300   .     A
O767   N190    1.302   1_556 S
O769   Zn775   1.991   .     S
O769   C771    1.285   .     A
O770   C771    1.283   .     A
O770   Zn776   1.988   .     S
C771   C811    1.409   .     S
O772   Zn775   1.945   .     S
O772   C774    1.306   .     A
O773   Zn776   1.919   .     S
O773   C774    1.292   .     A
C774   C799    1.480   .     S
Zn775  O779    1.919   .     S
Zn775  N815    2.017   .     S
Zn775  O777    1.988   .     S
Zn776  O780    1.945   .     S
Zn776  O778    1.991   .     S
Zn776  N820    2.017   .     S
O777   C781    1.284   .     A
O778   C781    1.285   .     A
O779   C782    1.294   .     A
O780   C782    1.297   .     A
C781   C806    1.415   .     S
C782   C787    1.455   .     S
C783   C798    1.391   .     A
H784   C798    1.083   .     S
H785   C795    1.084   .     S
H786   C207    1.082   1_556 S
C787   C797    1.395   .     A
C787   C798    1.399   .     A
C788   C789    1.405   .     A
C788   H801    1.083   .     S
C788   C799    1.400   .     A
C789   C214    1.420   1_556 S
C789   N254    1.442   1_556 S
C790   N827    1.436   .     S
C791   C792    1.401   .     A
C791   C214    1.428   1_556 S
C791   C217    1.419   1_556 S
C792   C799    1.413   .     A
C792   C796    1.412   .     A
C793   C797    1.388   .     A
C794   C795    1.390   .     A
C794   C207    1.400   1_556 S
C794   C217    1.420   1_556 S
C795   C796    1.386   .     A
C796   H802    1.076   .     S
C797   H800    1.076   .     S
C803   C811    1.394   .     A
C803   H804    1.085   .     S
C803   C997    1.380   .     S
C805   N821    1.440   .     S
C805   C806    1.410   .     A
C806   C807    1.398   .     A
C807   H808    1.084   .     S
C809   H810    1.084   .     S
C809   C811    1.390   .     A
C809   C999    1.369   .     S
C812   N824    1.429   .     S
C812   N820    1.380   .     A
C812   C877    1.417   .     S
C813   H814    1.082   .     S
C813   N815    1.360   .     A
C813   C940    1.417   1_455 S
N815   C816    1.367   .     A
C816   H817    1.081   .     S
C816   C946    1.417   1_455 S
C818   N820    1.368   .     A
C818   H819    1.080   .     S
C818   C880    1.417   .     S
N821   O822    1.301   .     A
N821   O823    1.301   .     A
N824   O826    1.300   .     A
N824   O825    1.301   .     A
N827   O828    1.302   .     A
N827   O829    1.301   .     A
N830   O832    1.300   .     A
O831   N254    1.302   1_556 S
O833   Zn839   1.991   .     S
O833   C835    1.285   .     A
O834   C835    1.283   .     A
O834   Zn840   1.988   .     S
C835   C875    1.409   .     S
O836   Zn839   1.945   .     S
O836   C838    1.306   .     A
O837   Zn840   1.919   .     S
O837   C838    1.292   .     A
C838   C863    1.480   .     S
Zn839  O843    1.919   .     S
Zn839  N879    2.017   .     S
Zn839  O841    1.988   .     S
Zn840  O844    1.945   .     S
Zn840  O842    1.991   .     S
Zn840  N884    2.017   .     S
O841   C845    1.284   .     A
O842   C845    1.285   .     A
O843   C846    1.294   .     A
O844   C846    1.297   .     A
C845   C870    1.415   .     S
C846   C851    1.455   .     S
C847   C862    1.391   .     A
H848   C862    1.083   .     S
H849   C859    1.084   .     S
H850   C271    1.082   1_556 S
C851   C861    1.395   .     A
C851   C862    1.399   .     A
C852   C853    1.405   .     A
C852   H865    1.083   .     S
C852   C863    1.400   .     A
C853   C278    1.420   1_556 S
C853   N318    1.442   1_556 S
C854   N891    1.436   .     S
C855   C856    1.401   .     A
C855   C278    1.428   1_556 S
C855   C281    1.419   1_556 S
C856   C863    1.413   .     A
C856   C860    1.412   .     A
C857   C861    1.388   .     A
C858   C859    1.390   .     A
C858   C271    1.400   1_556 S
C858   C281    1.420   1_556 S
C859   C860    1.386   .     A
C860   H866    1.076   .     S
C861   H864    1.076   .     S
C867   C875    1.394   .     A
C867   H868    1.085   .     S
C867   C1061   1.380   .     S
C869   N885    1.440   .     S
C869   C870    1.410   .     A
C870   C871    1.398   .     A
C871   H872    1.084   .     S
C873   H874    1.084   .     S
C873   C875    1.390   .     A
C873   C1063   1.369   .     S
C876   N888    1.429   .     S
C876   N884    1.380   .     A
C876   C941    1.417   .     S
C877   H878    1.082   .     S
C877   N879    1.360   .     A
N879   C880    1.367   .     A
C880   H881    1.081   .     S
C882   N884    1.368   .     A
C882   H883    1.080   .     S
C882   C944    1.417   .     S
N885   O886    1.301   .     A
N885   O887    1.301   .     A
N888   O890    1.300   .     A
N888   O889    1.301   .     A
N891   O892    1.302   .     A
N891   O893    1.301   .     A
N894   O896    1.300   .     A
O895   N318    1.302   1_556 S
O897   Zn903   1.991   .     S
O897   C899    1.285   .     A
O898   C899    1.283   .     A
O898   Zn904   1.988   .     S
C899   C939    1.409   .     S
O900   Zn903   1.945   .     S
O900   C902    1.306   .     A
O901   Zn904   1.919   .     S
O901   C902    1.292   .     A
C902   C927    1.480   .     S
Zn903  O907    1.919   .     S
Zn903  N943    2.017   .     S
Zn903  O905    1.988   .     S
Zn904  O908    1.945   .     S
Zn904  O906    1.991   .     S
Zn904  N948    2.017   .     S
O905   C909    1.284   .     A
O906   C909    1.285   .     A
O907   C910    1.294   .     A
O908   C910    1.297   .     A
C909   C934    1.415   .     S
C910   C915    1.455   .     S
C911   C926    1.391   .     A
H912   C926    1.083   .     S
H913   C923    1.084   .     S
H914   C335    1.082   1_556 S
C915   C925    1.395   .     A
C915   C926    1.399   .     A
C916   C917    1.405   .     A
C916   H929    1.083   .     S
C916   C927    1.400   .     A
C917   C342    1.420   1_556 S
C917   N382    1.442   1_556 S
C918   N955    1.436   .     S
C919   C920    1.401   .     A
C919   C342    1.428   1_556 S
C919   C345    1.419   1_556 S
C920   C927    1.413   .     A
C920   C924    1.412   .     A
C921   C925    1.388   .     A
C922   C923    1.390   .     A
C922   C335    1.400   1_556 S
C922   C345    1.420   1_556 S
C923   C924    1.386   .     A
C924   H930    1.076   .     S
C925   H928    1.076   .     S
C931   C939    1.394   .     A
C931   H932    1.085   .     S
C931   C1125   1.380   .     S
C933   N949    1.440   .     S
C933   C934    1.410   .     A
C934   C935    1.398   .     A
C935   H936    1.084   .     S
C937   H938    1.084   .     S
C937   C939    1.390   .     A
C937   C1127   1.369   .     S
C940   N952    1.429   .     S
C940   N948    1.380   .     A
C940   C813    1.417   1_655 S
C941   H942    1.082   .     S
C941   N943    1.360   .     A
N943   C944    1.367   .     A
C944   H945    1.081   .     S
C946   N948    1.368   .     A
C946   H947    1.080   .     S
C946   C816    1.417   1_655 S
N949   O950    1.301   .     A
N949   O951    1.301   .     A
N952   O954    1.300   .     A
N952   O953    1.301   .     A
N955   O956    1.302   .     A
N955   O957    1.301   .     A
N958   O960    1.300   .     A
O959   N382    1.302   1_556 S
O961   Zn967   1.991   .     S
O961   C963    1.285   .     A
O962   C963    1.283   .     A
O962   Zn968   1.988   .     S
C963   C1003   1.409   .     S
O964   Zn967   1.945   .     S
O964   C966    1.306   .     A
O965   Zn968   1.919   .     S
O965   C966    1.292   .     A
C966   C991    1.480   .     S
Zn967  O971    1.919   .     S
Zn967  N1007   2.017   .     S
Zn967  O969    1.988   .     S
Zn968  O972    1.945   .     S
Zn968  O970    1.991   .     S
Zn968  N1012   2.017   .     S
O969   C973    1.284   .     A
O970   C973    1.285   .     A
O971   C974    1.294   .     A
O972   C974    1.297   .     A
C973   C998    1.415   .     S
C974   C979    1.455   .     S
C975   C990    1.391   .     A
H976   C990    1.083   .     S
H977   C987    1.084   .     S
H978   C399    1.082   1_556 S
C979   C989    1.395   .     A
C979   C990    1.399   .     A
C980   C981    1.405   .     A
C980   H993    1.083   .     S
C980   C991    1.400   .     A
C981   C406    1.420   1_556 S
C981   N446    1.442   1_556 S
C982   N1019   1.436   .     S
C983   C984    1.401   .     A
C983   C406    1.428   1_556 S
C983   C409    1.419   1_556 S
C984   C991    1.413   .     A
C984   C988    1.412   .     A
C985   C989    1.388   .     A
C986   C987    1.390   .     A
C986   C399    1.400   1_556 S
C986   C409    1.420   1_556 S
C987   C988    1.386   .     A
C988   H994    1.076   .     S
C989   H992    1.076   .     S
C995   C1003   1.394   .     A
C995   H996    1.085   .     S
C995   C613    1.380   1_565 S
C997   N1013   1.440   .     S
C997   C998    1.410   .     A
C998   C999    1.398   .     A
C999   H1000   1.084   .     S
C1001  H1002   1.084   .     S
C1001  C1003   1.390   .     A
C1001  C615    1.369   1_565 S
C1004  N1016   1.429   .     S
C1004  N1012   1.380   .     A
C1004  C1069   1.417   .     S
C1005  H1006   1.082   .     S
C1005  N1007   1.360   .     A
C1005  C1132   1.417   1_455 S
N1007  C1008   1.367   .     A
C1008  H1009   1.081   .     S
C1008  C1138   1.417   1_455 S
C1010  N1012   1.368   .     A
C1010  H1011   1.080   .     S
C1010  C1072   1.417   .     S
N1013  O1014   1.301   .     A
N1013  O1015   1.301   .     A
N1016  O1018   1.300   .     A
N1016  O1017   1.301   .     A
N1019  O1020   1.302   .     A
N1019  O1021   1.301   .     A
N1022  O1024   1.300   .     A
O1023  N446    1.302   1_556 S
O1025  Zn1031  1.991   .     S
O1025  C1027   1.285   .     A
O1026  C1027   1.283   .     A
O1026  Zn1032  1.988   .     S
C1027  C1067   1.409   .     S
O1028  Zn1031  1.945   .     S
O1028  C1030   1.306   .     A
O1029  Zn1032  1.919   .     S
O1029  C1030   1.292   .     A
C1030  C1055   1.480   .     S
Zn1031 O1035   1.919   .     S
Zn1031 N1071   2.017   .     S
Zn1031 O1033   1.988   .     S
Zn1032 O1036   1.945   .     S
Zn1032 O1034   1.991   .     S
Zn1032 N1076   2.017   .     S
O1033  C1037   1.284   .     A
O1034  C1037   1.285   .     A
O1035  C1038   1.294   .     A
O1036  C1038   1.297   .     A
C1037  C1062   1.415   .     S
C1038  C1043   1.455   .     S
C1039  C1054   1.391   .     A
H1040  C1054   1.083   .     S
H1041  C1051   1.084   .     S
H1042  C463    1.082   1_556 S
C1043  C1053   1.395   .     A
C1043  C1054   1.399   .     A
C1044  C1045   1.405   .     A
C1044  H1057   1.083   .     S
C1044  C1055   1.400   .     A
C1045  C470    1.420   1_556 S
C1045  N510    1.442   1_556 S
C1046  N1083   1.436   .     S
C1047  C1048   1.401   .     A
C1047  C470    1.428   1_556 S
C1047  C473    1.419   1_556 S
C1048  C1055   1.413   .     A
C1048  C1052   1.412   .     A
C1049  C1053   1.388   .     A
C1050  C1051   1.390   .     A
C1050  C463    1.400   1_556 S
C1050  C473    1.420   1_556 S
C1051  C1052   1.386   .     A
C1052  H1058   1.076   .     S
C1053  H1056   1.076   .     S
C1059  C1067   1.394   .     A
C1059  H1060   1.085   .     S
C1059  C677    1.380   1_565 S
C1061  N1077   1.440   .     S
C1061  C1062   1.410   .     A
C1062  C1063   1.398   .     A
C1063  H1064   1.084   .     S
C1065  H1066   1.084   .     S
C1065  C1067   1.390   .     A
C1065  C679    1.369   1_565 S
C1068  N1080   1.429   .     S
C1068  N1076   1.380   .     A
C1068  C1133   1.417   .     S
C1069  H1070   1.082   .     S
C1069  N1071   1.360   .     A
N1071  C1072   1.367   .     A
C1072  H1073   1.081   .     S
C1074  N1076   1.368   .     A
C1074  H1075   1.080   .     S
C1074  C1136   1.417   .     S
N1077  O1078   1.301   .     A
N1077  O1079   1.301   .     A
N1080  O1082   1.300   .     A
N1080  O1081   1.301   .     A
N1083  O1084   1.302   .     A
N1083  O1085   1.301   .     A
N1086  O1088   1.300   .     A
O1087  N510    1.302   1_556 S
O1089  Zn1095  1.991   .     S
O1089  C1091   1.285   .     A
O1090  C1091   1.283   .     A
O1090  Zn1096  1.988   .     S
C1091  C1131   1.409   .     S
O1092  Zn1095  1.945   .     S
O1092  C1094   1.306   .     A
O1093  Zn1096  1.919   .     S
O1093  C1094   1.292   .     A
C1094  C1119   1.480   .     S
Zn1095 O1099   1.919   .     S
Zn1095 N1135   2.017   .     S
Zn1095 O1097   1.988   .     S
Zn1096 O1100   1.945   .     S
Zn1096 O1098   1.991   .     S
Zn1096 N1140   2.017   .     S
O1097  C1101   1.284   .     A
O1098  C1101   1.285   .     A
O1099  C1102   1.294   .     A
O1100  C1102   1.297   .     A
C1101  C1126   1.415   .     S
C1102  C1107   1.455   .     S
C1103  C1118   1.391   .     A
H1104  C1118   1.083   .     S
H1105  C1115   1.084   .     S
H1106  C527    1.082   1_556 S
C1107  C1117   1.395   .     A
C1107  C1118   1.399   .     A
C1108  C1109   1.405   .     A
C1108  H1121   1.083   .     S
C1108  C1119   1.400   .     A
C1109  C534    1.420   1_556 S
C1109  N574    1.442   1_556 S
C1110  N1147   1.436   .     S
C1111  C1112   1.401   .     A
C1111  C534    1.428   1_556 S
C1111  C537    1.419   1_556 S
C1112  C1119   1.413   .     A
C1112  C1116   1.412   .     A
C1113  C1117   1.388   .     A
C1114  C1115   1.390   .     A
C1114  C527    1.400   1_556 S
C1114  C537    1.420   1_556 S
C1115  C1116   1.386   .     A
C1116  H1122   1.076   .     S
C1117  H1120   1.076   .     S
C1123  C1131   1.394   .     A
C1123  H1124   1.085   .     S
C1123  C741    1.380   1_565 S
C1125  N1141   1.440   .     S
C1125  C1126   1.410   .     A
C1126  C1127   1.398   .     A
C1127  H1128   1.084   .     S
C1129  H1130   1.084   .     S
C1129  C1131   1.390   .     A
C1129  C743    1.369   1_565 S
C1132  N1144   1.429   .     S
C1132  N1140   1.380   .     A
C1132  C1005   1.417   1_655 S
C1133  H1134   1.082   .     S
C1133  N1135   1.360   .     A
N1135  C1136   1.367   .     A
C1136  H1137   1.081   .     S
C1138  N1140   1.368   .     A
C1138  H1139   1.080   .     S
C1138  C1008   1.417   1_655 S
N1141  O1142   1.301   .     A
N1141  O1143   1.301   .     A
N1144  O1146   1.300   .     A
N1144  O1145   1.301   .     A
N1147  O1148   1.302   .     A
N1147  O1149   1.301   .     A
N1150  O1152   1.300   .     A
O1151  N574    1.302   1_556 S
