data_str_m2_o1_o17_pcu_sym.163
_audit_creation_date              2020-01-03
_audit_creation_method            'Materials Studio'
_symmetry_space_group_name_H-M    'P1'
_symmetry_Int_Tables_number       1
_symmetry_cell_setting            triclinic
loop_
_symmetry_equiv_pos_as_xyz
  x,y,z
_cell_length_a                    32.5027
_cell_length_b                    28.4935
_cell_length_c                    30.2739
_cell_angle_alpha                 88.9953
_cell_angle_beta                  90.2176
_cell_angle_gamma                 89.9791
loop_
_atom_site_label
_atom_site_type_symbol
_atom_site_fract_x
_atom_site_fract_y
_atom_site_fract_z
_atom_site_U_iso_or_equiv
_atom_site_adp_type
_atom_site_occupancy
C1     C     0.08733   0.16667   0.24998   0.00000  Uiso   1.00
C2     C     0.24600   0.16666   0.25002   0.00000  Uiso   1.00
C3     C     0.13662   0.08962   0.02717   0.00000  Uiso   1.00
C4     C     0.19671   0.24371   0.47283   0.00000  Uiso   1.00
C5     C     0.02130   0.12401   0.25062   0.00000  Uiso   1.00
C6     C     0.31203   0.20932   0.24938   0.00000  Uiso   1.00
C7     C     0.31207   0.12401   0.25064   0.00000  Uiso   1.00
C8     C     0.02126   0.20933   0.24936   0.00000  Uiso   1.00
C9     C     0.29060   0.16666   0.25002   0.00000  Uiso   1.00
C10    C     0.04273   0.16667   0.24998   0.00000  Uiso   1.00
C11    C     0.14140   0.02535   0.22213   0.00000  Uiso   1.00
C12    C     0.19193   0.30798   0.27787   0.00000  Uiso   1.00
C13    C     0.19192   0.02431   0.27789   0.00000  Uiso   1.00
C14    C     0.14142   0.30902   0.22211   0.00000  Uiso   1.00
C15    C     0.16776   0.16721   0.16431   0.00000  Uiso   1.00
C16    C     0.16557   0.16612   0.33568   0.00000  Uiso   1.00
C17    C     0.18044   0.20340   0.40614   0.00000  Uiso   1.00
C18    C     0.15290   0.12994   0.09386   0.00000  Uiso   1.00
C19    C     0.16455   0.16483   0.38410   0.00000  Uiso   1.00
C20    C     0.16879   0.16850   0.11590   0.00000  Uiso   1.00
C21    C     0.14796   0.12621   0.40834   0.00000  Uiso   1.00
C22    C     0.18538   0.20712   0.09166   0.00000  Uiso   1.00
C23    C     0.14939   0.12607   0.45513   0.00000  Uiso   1.00
C24    C     0.18394   0.20727   0.04486   0.00000  Uiso   1.00
C25    C     0.16593   0.16589   0.47674   0.00000  Uiso   1.00
C26    C     0.16740   0.16744   0.02326   0.00000  Uiso   1.00
C27    C     0.18099   0.20437   0.45189   0.00000  Uiso   1.00
C28    C     0.15234   0.12896   0.04811   0.00000  Uiso   1.00
C29    C     0.13509   0.08749   0.48124   0.00000  Uiso   1.00
C30    C     0.19824   0.24585   0.01876   0.00000  Uiso   1.00
Cu31   Cu    0.16667   0.21355   0.25000   0.00000  Uiso   1.00
Cu32   Cu    0.16667   0.11978   0.25000   0.00000  Uiso   1.00
H33    H     0.19289   0.23294   0.38744   0.00000  Uiso   1.00
H34    H     0.14044   0.10039   0.11256   0.00000  Uiso   1.00
H35    H     0.12548   0.05993   0.04661   0.00000  Uiso   1.00
H36    H     0.20786   0.27340   0.45339   0.00000  Uiso   1.00
H37    H     0.03733   0.09066   0.25112   0.00000  Uiso   1.00
H38    H     0.29601   0.24267   0.24888   0.00000  Uiso   1.00
H39    H     0.29607   0.09066   0.25117   0.00000  Uiso   1.00
H40    H     0.03726   0.24268   0.24883   0.00000  Uiso   1.00
H41    H     0.12116   0.04453   0.19983   0.00000  Uiso   1.00
H42    H     0.21217   0.28880   0.30016   0.00000  Uiso   1.00
H43    H     0.21211   0.04267   0.30020   0.00000  Uiso   1.00
H44    H     0.12122   0.29066   0.19980   0.00000  Uiso   1.00
N45    N     0.16667   0.28402   0.25000   0.00000  Uiso   1.00
N46    N     0.16667   0.04931   0.25000   0.00000  Uiso   1.00
O47    O     0.10655   0.20625   0.24999   0.00000  Uiso   1.00
O48    O     0.22679   0.12709   0.25000   0.00000  Uiso   1.00
O49    O     0.22679   0.20625   0.25000   0.00000  Uiso   1.00
O50    O     0.10655   0.12709   0.24999   0.00000  Uiso   1.00
O51    O     0.16666   0.20627   0.18513   0.00000  Uiso   1.00
O52    O     0.16668   0.12707   0.31487   0.00000  Uiso   1.00
O53    O     0.16668   0.20627   0.31487   0.00000  Uiso   1.00
O54    O     0.16666   0.12707   0.18513   0.00000  Uiso   1.00
N55    N     0.12808   0.08834   0.38596   0.00000  Uiso   1.00
H56    H     0.10613   0.10179   0.36378   0.00000  Uiso   1.00
H57    H     0.15008   0.06857   0.36944   0.00000  Uiso   1.00
N58    N     0.20525   0.24499   0.11404   0.00000  Uiso   1.00
H59    H     0.18325   0.26477   0.13056   0.00000  Uiso   1.00
H60    H     0.22720   0.23154   0.13622   0.00000  Uiso   1.00
N61    N     0.11955   0.04547   0.46186   0.00000  Uiso   1.00
H62    H     0.08953   0.04003   0.47316   0.00000  Uiso   1.00
H63    H     0.13762   0.01723   0.47294   0.00000  Uiso   1.00
N64    N     0.21379   0.28786   0.03814   0.00000  Uiso   1.00
H65    H     0.19572   0.31610   0.02705   0.00000  Uiso   1.00
H66    H     0.24380   0.29330   0.02684   0.00000  Uiso   1.00
C67    C     0.42067   0.16667   0.24998   0.00000  Uiso   1.00
C68    C     0.57933   0.16666   0.25002   0.00000  Uiso   1.00
C69    C     0.46995   0.08962   0.02717   0.00000  Uiso   1.00
C70    C     0.53005   0.24371   0.47283   0.00000  Uiso   1.00
C71    C     0.35463   0.12401   0.25062   0.00000  Uiso   1.00
C72    C     0.64537   0.20932   0.24938   0.00000  Uiso   1.00
C73    C     0.64540   0.12401   0.25064   0.00000  Uiso   1.00
C74    C     0.35460   0.20933   0.24936   0.00000  Uiso   1.00
C75    C     0.62394   0.16666   0.25002   0.00000  Uiso   1.00
C76    C     0.37606   0.16667   0.24998   0.00000  Uiso   1.00
C77    C     0.47473   0.02535   0.22213   0.00000  Uiso   1.00
C78    C     0.52527   0.30798   0.27787   0.00000  Uiso   1.00
C79    C     0.52525   0.02431   0.27789   0.00000  Uiso   1.00
C80    C     0.47475   0.30902   0.22211   0.00000  Uiso   1.00
C81    C     0.50109   0.16721   0.16431   0.00000  Uiso   1.00
C82    C     0.49891   0.16612   0.33568   0.00000  Uiso   1.00
C83    C     0.51377   0.20340   0.40614   0.00000  Uiso   1.00
C84    C     0.48623   0.12994   0.09386   0.00000  Uiso   1.00
C85    C     0.49788   0.16483   0.38410   0.00000  Uiso   1.00
C86    C     0.50212   0.16850   0.11590   0.00000  Uiso   1.00
C87    C     0.48129   0.12621   0.40834   0.00000  Uiso   1.00
C88    C     0.51871   0.20712   0.09166   0.00000  Uiso   1.00
C89    C     0.48273   0.12607   0.45513   0.00000  Uiso   1.00
C90    C     0.51727   0.20727   0.04486   0.00000  Uiso   1.00
C91    C     0.49926   0.16589   0.47674   0.00000  Uiso   1.00
C92    C     0.50074   0.16744   0.02326   0.00000  Uiso   1.00
C93    C     0.51433   0.20437   0.45189   0.00000  Uiso   1.00
C94    C     0.48567   0.12896   0.04811   0.00000  Uiso   1.00
C95    C     0.46843   0.08749   0.48124   0.00000  Uiso   1.00
C96    C     0.53157   0.24585   0.01876   0.00000  Uiso   1.00
Cu97   Cu    0.50000   0.21355   0.25000   0.00000  Uiso   1.00
Cu98   Cu    0.50000   0.11978   0.25000   0.00000  Uiso   1.00
H99    H     0.52622   0.23294   0.38744   0.00000  Uiso   1.00
H100   H     0.47378   0.10039   0.11256   0.00000  Uiso   1.00
H101   H     0.45881   0.05993   0.04661   0.00000  Uiso   1.00
H102   H     0.54119   0.27340   0.45339   0.00000  Uiso   1.00
H103   H     0.37066   0.09066   0.25112   0.00000  Uiso   1.00
H104   H     0.62934   0.24267   0.24888   0.00000  Uiso   1.00
H105   H     0.62940   0.09066   0.25117   0.00000  Uiso   1.00
H106   H     0.37060   0.24268   0.24883   0.00000  Uiso   1.00
H107   H     0.45450   0.04453   0.19983   0.00000  Uiso   1.00
H108   H     0.54550   0.28880   0.30016   0.00000  Uiso   1.00
H109   H     0.54545   0.04267   0.30020   0.00000  Uiso   1.00
H110   H     0.45456   0.29066   0.19980   0.00000  Uiso   1.00
N111   N     0.50000   0.28402   0.25000   0.00000  Uiso   1.00
N112   N     0.50000   0.04931   0.25000   0.00000  Uiso   1.00
O113   O     0.43988   0.20625   0.24999   0.00000  Uiso   1.00
O114   O     0.56012   0.12709   0.25000   0.00000  Uiso   1.00
O115   O     0.56012   0.20625   0.25000   0.00000  Uiso   1.00
O116   O     0.43988   0.12709   0.24999   0.00000  Uiso   1.00
O117   O     0.49999   0.20627   0.18513   0.00000  Uiso   1.00
O118   O     0.50001   0.12707   0.31487   0.00000  Uiso   1.00
O119   O     0.50001   0.20627   0.31487   0.00000  Uiso   1.00
O120   O     0.49999   0.12707   0.18513   0.00000  Uiso   1.00
N121   N     0.46141   0.08834   0.38596   0.00000  Uiso   1.00
H122   H     0.43947   0.10179   0.36378   0.00000  Uiso   1.00
H123   H     0.48342   0.06857   0.36944   0.00000  Uiso   1.00
N124   N     0.53859   0.24499   0.11404   0.00000  Uiso   1.00
H125   H     0.51658   0.26477   0.13056   0.00000  Uiso   1.00
H126   H     0.56053   0.23154   0.13622   0.00000  Uiso   1.00
N127   N     0.45288   0.04547   0.46186   0.00000  Uiso   1.00
H128   H     0.42287   0.04003   0.47316   0.00000  Uiso   1.00
H129   H     0.47095   0.01723   0.47294   0.00000  Uiso   1.00
N130   N     0.54712   0.28786   0.03814   0.00000  Uiso   1.00
H131   H     0.52905   0.31610   0.02705   0.00000  Uiso   1.00
H132   H     0.57713   0.29330   0.02684   0.00000  Uiso   1.00
C133   C     0.75400   0.16667   0.24998   0.00000  Uiso   1.00
C134   C     0.91267   0.16666   0.25002   0.00000  Uiso   1.00
C135   C     0.80329   0.08962   0.02717   0.00000  Uiso   1.00
C136   C     0.86338   0.24371   0.47283   0.00000  Uiso   1.00
C137   C     0.68797   0.12401   0.25062   0.00000  Uiso   1.00
C138   C     0.97870   0.20932   0.24938   0.00000  Uiso   1.00
C139   C     0.97874   0.12401   0.25064   0.00000  Uiso   1.00
C140   C     0.68793   0.20933   0.24936   0.00000  Uiso   1.00
C141   C     0.95727   0.16666   0.25002   0.00000  Uiso   1.00
C142   C     0.70940   0.16667   0.24998   0.00000  Uiso   1.00
C143   C     0.80807   0.02535   0.22213   0.00000  Uiso   1.00
C144   C     0.85860   0.30798   0.27787   0.00000  Uiso   1.00
C145   C     0.85858   0.02431   0.27789   0.00000  Uiso   1.00
C146   C     0.80808   0.30902   0.22211   0.00000  Uiso   1.00
C147   C     0.83443   0.16721   0.16431   0.00000  Uiso   1.00
C148   C     0.83224   0.16612   0.33568   0.00000  Uiso   1.00
C149   C     0.84710   0.20340   0.40614   0.00000  Uiso   1.00
C150   C     0.81956   0.12994   0.09386   0.00000  Uiso   1.00
C151   C     0.83121   0.16483   0.38410   0.00000  Uiso   1.00
C152   C     0.83545   0.16850   0.11590   0.00000  Uiso   1.00
C153   C     0.81462   0.12621   0.40834   0.00000  Uiso   1.00
C154   C     0.85204   0.20712   0.09166   0.00000  Uiso   1.00
C155   C     0.81606   0.12607   0.45513   0.00000  Uiso   1.00
C156   C     0.85061   0.20727   0.04486   0.00000  Uiso   1.00
C157   C     0.83260   0.16589   0.47674   0.00000  Uiso   1.00
C158   C     0.83407   0.16744   0.02326   0.00000  Uiso   1.00
C159   C     0.84766   0.20437   0.45189   0.00000  Uiso   1.00
C160   C     0.81901   0.12896   0.04811   0.00000  Uiso   1.00
C161   C     0.80176   0.08749   0.48124   0.00000  Uiso   1.00
C162   C     0.86491   0.24585   0.01876   0.00000  Uiso   1.00
Cu163  Cu    0.83333   0.21355   0.25000   0.00000  Uiso   1.00
Cu164  Cu    0.83333   0.11978   0.25000   0.00000  Uiso   1.00
H165   H     0.85956   0.23294   0.38744   0.00000  Uiso   1.00
H166   H     0.80711   0.10039   0.11256   0.00000  Uiso   1.00
H167   H     0.79214   0.05993   0.04661   0.00000  Uiso   1.00
H168   H     0.87452   0.27340   0.45339   0.00000  Uiso   1.00
H169   H     0.70399   0.09066   0.25112   0.00000  Uiso   1.00
H170   H     0.96267   0.24267   0.24888   0.00000  Uiso   1.00
H171   H     0.96274   0.09066   0.25117   0.00000  Uiso   1.00
H172   H     0.70393   0.24268   0.24883   0.00000  Uiso   1.00
H173   H     0.78783   0.04453   0.19983   0.00000  Uiso   1.00
H174   H     0.87884   0.28880   0.30016   0.00000  Uiso   1.00
H175   H     0.87878   0.04267   0.30020   0.00000  Uiso   1.00
H176   H     0.78789   0.29066   0.19980   0.00000  Uiso   1.00
N177   N     0.83333   0.28402   0.25000   0.00000  Uiso   1.00
N178   N     0.83333   0.04931   0.25000   0.00000  Uiso   1.00
O179   O     0.77321   0.20625   0.24999   0.00000  Uiso   1.00
O180   O     0.89345   0.12709   0.25000   0.00000  Uiso   1.00
O181   O     0.89345   0.20625   0.25000   0.00000  Uiso   1.00
O182   O     0.77321   0.12709   0.24999   0.00000  Uiso   1.00
O183   O     0.83332   0.20627   0.18513   0.00000  Uiso   1.00
O184   O     0.83334   0.12707   0.31487   0.00000  Uiso   1.00
O185   O     0.83334   0.20627   0.31487   0.00000  Uiso   1.00
O186   O     0.83332   0.12707   0.18513   0.00000  Uiso   1.00
N187   N     0.79475   0.08834   0.38596   0.00000  Uiso   1.00
H188   H     0.77280   0.10179   0.36378   0.00000  Uiso   1.00
H189   H     0.81675   0.06857   0.36944   0.00000  Uiso   1.00
N190   N     0.87192   0.24499   0.11404   0.00000  Uiso   1.00
H191   H     0.84992   0.26477   0.13056   0.00000  Uiso   1.00
H192   H     0.89387   0.23154   0.13622   0.00000  Uiso   1.00
N193   N     0.78621   0.04547   0.46186   0.00000  Uiso   1.00
H194   H     0.75620   0.04003   0.47316   0.00000  Uiso   1.00
H195   H     0.80428   0.01723   0.47294   0.00000  Uiso   1.00
N196   N     0.88045   0.28786   0.03814   0.00000  Uiso   1.00
H197   H     0.86238   0.31610   0.02705   0.00000  Uiso   1.00
H198   H     0.91047   0.29330   0.02684   0.00000  Uiso   1.00
C199   C     0.08733   0.50000   0.24998   0.00000  Uiso   1.00
C200   C     0.24600   0.50000   0.25002   0.00000  Uiso   1.00
C201   C     0.13662   0.42295   0.02717   0.00000  Uiso   1.00
C202   C     0.19671   0.57705   0.47283   0.00000  Uiso   1.00
C203   C     0.02130   0.45734   0.25062   0.00000  Uiso   1.00
C204   C     0.31203   0.54266   0.24938   0.00000  Uiso   1.00
C205   C     0.31207   0.45734   0.25064   0.00000  Uiso   1.00
C206   C     0.02126   0.54266   0.24936   0.00000  Uiso   1.00
C207   C     0.29060   0.49999   0.25002   0.00000  Uiso   1.00
C208   C     0.04273   0.50001   0.24998   0.00000  Uiso   1.00
C209   C     0.14140   0.35868   0.22213   0.00000  Uiso   1.00
C210   C     0.19193   0.64132   0.27787   0.00000  Uiso   1.00
C211   C     0.19192   0.35765   0.27789   0.00000  Uiso   1.00
C212   C     0.14142   0.64235   0.22211   0.00000  Uiso   1.00
C213   C     0.16776   0.50054   0.16431   0.00000  Uiso   1.00
C214   C     0.16557   0.49946   0.33568   0.00000  Uiso   1.00
C215   C     0.18044   0.53673   0.40614   0.00000  Uiso   1.00
C216   C     0.15290   0.46327   0.09386   0.00000  Uiso   1.00
C217   C     0.16455   0.49816   0.38410   0.00000  Uiso   1.00
C218   C     0.16879   0.50184   0.11590   0.00000  Uiso   1.00
C219   C     0.14796   0.45955   0.40834   0.00000  Uiso   1.00
C220   C     0.18538   0.54045   0.09166   0.00000  Uiso   1.00
C221   C     0.14939   0.45940   0.45513   0.00000  Uiso   1.00
C222   C     0.18394   0.54060   0.04486   0.00000  Uiso   1.00
C223   C     0.16593   0.49923   0.47674   0.00000  Uiso   1.00
C224   C     0.16740   0.50077   0.02326   0.00000  Uiso   1.00
C225   C     0.18099   0.53770   0.45189   0.00000  Uiso   1.00
C226   C     0.15234   0.46230   0.04811   0.00000  Uiso   1.00
C227   C     0.13509   0.42082   0.48124   0.00000  Uiso   1.00
C228   C     0.19824   0.57918   0.01876   0.00000  Uiso   1.00
Cu229  Cu    0.16667   0.54689   0.25000   0.00000  Uiso   1.00
Cu230  Cu    0.16667   0.45311   0.25000   0.00000  Uiso   1.00
H231   H     0.19289   0.56627   0.38744   0.00000  Uiso   1.00
H232   H     0.14044   0.43373   0.11256   0.00000  Uiso   1.00
H233   H     0.12548   0.39327   0.04661   0.00000  Uiso   1.00
H234   H     0.20786   0.60673   0.45339   0.00000  Uiso   1.00
H235   H     0.03733   0.42400   0.25112   0.00000  Uiso   1.00
H236   H     0.29601   0.57600   0.24888   0.00000  Uiso   1.00
H237   H     0.29607   0.42399   0.25117   0.00000  Uiso   1.00
H238   H     0.03726   0.57601   0.24883   0.00000  Uiso   1.00
H239   H     0.12116   0.37786   0.19983   0.00000  Uiso   1.00
H240   H     0.21217   0.62214   0.30016   0.00000  Uiso   1.00
H241   H     0.21211   0.37601   0.30020   0.00000  Uiso   1.00
H242   H     0.12122   0.62399   0.19980   0.00000  Uiso   1.00
N243   N     0.16667   0.61736   0.25000   0.00000  Uiso   1.00
N244   N     0.16667   0.38264   0.25000   0.00000  Uiso   1.00
O245   O     0.10655   0.53958   0.24999   0.00000  Uiso   1.00
O246   O     0.22679   0.46042   0.25000   0.00000  Uiso   1.00
O247   O     0.22679   0.53958   0.25000   0.00000  Uiso   1.00
O248   O     0.10655   0.46042   0.24999   0.00000  Uiso   1.00
O249   O     0.16666   0.53960   0.18513   0.00000  Uiso   1.00
O250   O     0.16668   0.46040   0.31487   0.00000  Uiso   1.00
O251   O     0.16668   0.53960   0.31487   0.00000  Uiso   1.00
O252   O     0.16666   0.46040   0.18513   0.00000  Uiso   1.00
N253   N     0.12808   0.42167   0.38596   0.00000  Uiso   1.00
H254   H     0.10613   0.43512   0.36378   0.00000  Uiso   1.00
H255   H     0.15008   0.40190   0.36944   0.00000  Uiso   1.00
N256   N     0.20525   0.57833   0.11404   0.00000  Uiso   1.00
H257   H     0.18325   0.59810   0.13056   0.00000  Uiso   1.00
H258   H     0.22720   0.56488   0.13622   0.00000  Uiso   1.00
N259   N     0.11955   0.37881   0.46186   0.00000  Uiso   1.00
H260   H     0.08953   0.37336   0.47316   0.00000  Uiso   1.00
H261   H     0.13762   0.35057   0.47294   0.00000  Uiso   1.00
N262   N     0.21379   0.62119   0.03814   0.00000  Uiso   1.00
H263   H     0.19572   0.64943   0.02705   0.00000  Uiso   1.00
H264   H     0.24380   0.62664   0.02684   0.00000  Uiso   1.00
C265   C     0.42067   0.50000   0.24998   0.00000  Uiso   1.00
C266   C     0.57933   0.50000   0.25002   0.00000  Uiso   1.00
C267   C     0.46995   0.42295   0.02717   0.00000  Uiso   1.00
C268   C     0.53005   0.57705   0.47283   0.00000  Uiso   1.00
C269   C     0.35463   0.45734   0.25062   0.00000  Uiso   1.00
C270   C     0.64537   0.54266   0.24938   0.00000  Uiso   1.00
C271   C     0.64540   0.45734   0.25064   0.00000  Uiso   1.00
C272   C     0.35460   0.54266   0.24936   0.00000  Uiso   1.00
C273   C     0.62394   0.49999   0.25002   0.00000  Uiso   1.00
C274   C     0.37606   0.50001   0.24998   0.00000  Uiso   1.00
C275   C     0.47473   0.35868   0.22213   0.00000  Uiso   1.00
C276   C     0.52527   0.64132   0.27787   0.00000  Uiso   1.00
C277   C     0.52525   0.35765   0.27789   0.00000  Uiso   1.00
C278   C     0.47475   0.64235   0.22211   0.00000  Uiso   1.00
C279   C     0.50109   0.50054   0.16431   0.00000  Uiso   1.00
C280   C     0.49891   0.49946   0.33568   0.00000  Uiso   1.00
C281   C     0.51377   0.53673   0.40614   0.00000  Uiso   1.00
C282   C     0.48623   0.46327   0.09386   0.00000  Uiso   1.00
C283   C     0.49788   0.49816   0.38410   0.00000  Uiso   1.00
C284   C     0.50212   0.50184   0.11590   0.00000  Uiso   1.00
C285   C     0.48129   0.45955   0.40834   0.00000  Uiso   1.00
C286   C     0.51871   0.54045   0.09166   0.00000  Uiso   1.00
C287   C     0.48273   0.45940   0.45513   0.00000  Uiso   1.00
C288   C     0.51727   0.54060   0.04486   0.00000  Uiso   1.00
C289   C     0.49926   0.49923   0.47674   0.00000  Uiso   1.00
C290   C     0.50074   0.50077   0.02326   0.00000  Uiso   1.00
C291   C     0.51433   0.53770   0.45189   0.00000  Uiso   1.00
C292   C     0.48567   0.46230   0.04811   0.00000  Uiso   1.00
C293   C     0.46843   0.42082   0.48124   0.00000  Uiso   1.00
C294   C     0.53157   0.57918   0.01876   0.00000  Uiso   1.00
Cu295  Cu    0.50000   0.54689   0.25000   0.00000  Uiso   1.00
Cu296  Cu    0.50000   0.45311   0.25000   0.00000  Uiso   1.00
H297   H     0.52622   0.56627   0.38744   0.00000  Uiso   1.00
H298   H     0.47378   0.43373   0.11256   0.00000  Uiso   1.00
H299   H     0.45881   0.39327   0.04661   0.00000  Uiso   1.00
H300   H     0.54119   0.60673   0.45339   0.00000  Uiso   1.00
H301   H     0.37066   0.42400   0.25112   0.00000  Uiso   1.00
H302   H     0.62934   0.57600   0.24888   0.00000  Uiso   1.00
H303   H     0.62940   0.42399   0.25117   0.00000  Uiso   1.00
H304   H     0.37060   0.57601   0.24883   0.00000  Uiso   1.00
H305   H     0.45450   0.37786   0.19983   0.00000  Uiso   1.00
H306   H     0.54550   0.62214   0.30016   0.00000  Uiso   1.00
H307   H     0.54545   0.37601   0.30020   0.00000  Uiso   1.00
H308   H     0.45456   0.62399   0.19980   0.00000  Uiso   1.00
N309   N     0.50000   0.61736   0.25000   0.00000  Uiso   1.00
N310   N     0.50000   0.38264   0.25000   0.00000  Uiso   1.00
O311   O     0.43988   0.53958   0.24999   0.00000  Uiso   1.00
O312   O     0.56012   0.46042   0.25000   0.00000  Uiso   1.00
O313   O     0.56012   0.53958   0.25000   0.00000  Uiso   1.00
O314   O     0.43988   0.46042   0.24999   0.00000  Uiso   1.00
O315   O     0.49999   0.53960   0.18513   0.00000  Uiso   1.00
O316   O     0.50001   0.46040   0.31487   0.00000  Uiso   1.00
O317   O     0.50001   0.53960   0.31487   0.00000  Uiso   1.00
O318   O     0.49999   0.46040   0.18513   0.00000  Uiso   1.00
N319   N     0.46141   0.42167   0.38596   0.00000  Uiso   1.00
H320   H     0.43947   0.43512   0.36378   0.00000  Uiso   1.00
H321   H     0.48342   0.40190   0.36944   0.00000  Uiso   1.00
N322   N     0.53859   0.57833   0.11404   0.00000  Uiso   1.00
H323   H     0.51658   0.59810   0.13056   0.00000  Uiso   1.00
H324   H     0.56053   0.56488   0.13622   0.00000  Uiso   1.00
N325   N     0.45288   0.37881   0.46186   0.00000  Uiso   1.00
H326   H     0.42287   0.37336   0.47316   0.00000  Uiso   1.00
H327   H     0.47095   0.35057   0.47294   0.00000  Uiso   1.00
N328   N     0.54712   0.62119   0.03814   0.00000  Uiso   1.00
H329   H     0.52905   0.64943   0.02705   0.00000  Uiso   1.00
H330   H     0.57713   0.62664   0.02684   0.00000  Uiso   1.00
C331   C     0.75400   0.50000   0.24998   0.00000  Uiso   1.00
C332   C     0.91267   0.50000   0.25002   0.00000  Uiso   1.00
C333   C     0.80329   0.42295   0.02717   0.00000  Uiso   1.00
C334   C     0.86338   0.57705   0.47283   0.00000  Uiso   1.00
C335   C     0.68797   0.45734   0.25062   0.00000  Uiso   1.00
C336   C     0.97870   0.54266   0.24938   0.00000  Uiso   1.00
C337   C     0.97874   0.45734   0.25064   0.00000  Uiso   1.00
C338   C     0.68793   0.54266   0.24936   0.00000  Uiso   1.00
C339   C     0.95727   0.49999   0.25002   0.00000  Uiso   1.00
C340   C     0.70940   0.50001   0.24998   0.00000  Uiso   1.00
C341   C     0.80807   0.35868   0.22213   0.00000  Uiso   1.00
C342   C     0.85860   0.64132   0.27787   0.00000  Uiso   1.00
C343   C     0.85858   0.35765   0.27789   0.00000  Uiso   1.00
C344   C     0.80808   0.64235   0.22211   0.00000  Uiso   1.00
C345   C     0.83443   0.50054   0.16431   0.00000  Uiso   1.00
C346   C     0.83224   0.49946   0.33568   0.00000  Uiso   1.00
C347   C     0.84710   0.53673   0.40614   0.00000  Uiso   1.00
C348   C     0.81956   0.46327   0.09386   0.00000  Uiso   1.00
C349   C     0.83121   0.49816   0.38410   0.00000  Uiso   1.00
C350   C     0.83545   0.50184   0.11590   0.00000  Uiso   1.00
C351   C     0.81462   0.45955   0.40834   0.00000  Uiso   1.00
C352   C     0.85204   0.54045   0.09166   0.00000  Uiso   1.00
C353   C     0.81606   0.45940   0.45513   0.00000  Uiso   1.00
C354   C     0.85061   0.54060   0.04486   0.00000  Uiso   1.00
C355   C     0.83260   0.49923   0.47674   0.00000  Uiso   1.00
C356   C     0.83407   0.50077   0.02326   0.00000  Uiso   1.00
C357   C     0.84766   0.53770   0.45189   0.00000  Uiso   1.00
C358   C     0.81901   0.46230   0.04811   0.00000  Uiso   1.00
C359   C     0.80176   0.42082   0.48124   0.00000  Uiso   1.00
C360   C     0.86491   0.57918   0.01876   0.00000  Uiso   1.00
Cu361  Cu    0.83333   0.54689   0.25000   0.00000  Uiso   1.00
Cu362  Cu    0.83333   0.45311   0.25000   0.00000  Uiso   1.00
H363   H     0.85956   0.56627   0.38744   0.00000  Uiso   1.00
H364   H     0.80711   0.43373   0.11256   0.00000  Uiso   1.00
H365   H     0.79214   0.39327   0.04661   0.00000  Uiso   1.00
H366   H     0.87452   0.60673   0.45339   0.00000  Uiso   1.00
H367   H     0.70399   0.42400   0.25112   0.00000  Uiso   1.00
H368   H     0.96267   0.57600   0.24888   0.00000  Uiso   1.00
H369   H     0.96274   0.42399   0.25117   0.00000  Uiso   1.00
H370   H     0.70393   0.57601   0.24883   0.00000  Uiso   1.00
H371   H     0.78783   0.37786   0.19983   0.00000  Uiso   1.00
H372   H     0.87884   0.62214   0.30016   0.00000  Uiso   1.00
H373   H     0.87878   0.37601   0.30020   0.00000  Uiso   1.00
H374   H     0.78789   0.62399   0.19980   0.00000  Uiso   1.00
N375   N     0.83333   0.61736   0.25000   0.00000  Uiso   1.00
N376   N     0.83333   0.38264   0.25000   0.00000  Uiso   1.00
O377   O     0.77321   0.53958   0.24999   0.00000  Uiso   1.00
O378   O     0.89345   0.46042   0.25000   0.00000  Uiso   1.00
O379   O     0.89345   0.53958   0.25000   0.00000  Uiso   1.00
O380   O     0.77321   0.46042   0.24999   0.00000  Uiso   1.00
O381   O     0.83332   0.53960   0.18513   0.00000  Uiso   1.00
O382   O     0.83334   0.46040   0.31487   0.00000  Uiso   1.00
O383   O     0.83334   0.53960   0.31487   0.00000  Uiso   1.00
O384   O     0.83332   0.46040   0.18513   0.00000  Uiso   1.00
N385   N     0.79475   0.42167   0.38596   0.00000  Uiso   1.00
H386   H     0.77280   0.43512   0.36378   0.00000  Uiso   1.00
H387   H     0.81675   0.40190   0.36944   0.00000  Uiso   1.00
N388   N     0.87192   0.57833   0.11404   0.00000  Uiso   1.00
H389   H     0.84992   0.59810   0.13056   0.00000  Uiso   1.00
H390   H     0.89387   0.56488   0.13622   0.00000  Uiso   1.00
N391   N     0.78621   0.37881   0.46186   0.00000  Uiso   1.00
H392   H     0.75620   0.37336   0.47316   0.00000  Uiso   1.00
H393   H     0.80428   0.35057   0.47294   0.00000  Uiso   1.00
N394   N     0.88045   0.62119   0.03814   0.00000  Uiso   1.00
H395   H     0.86238   0.64943   0.02705   0.00000  Uiso   1.00
H396   H     0.91047   0.62664   0.02684   0.00000  Uiso   1.00
C397   C     0.08733   0.83334   0.24998   0.00000  Uiso   1.00
C398   C     0.24600   0.83333   0.25002   0.00000  Uiso   1.00
C399   C     0.13662   0.75629   0.02717   0.00000  Uiso   1.00
C400   C     0.19671   0.91038   0.47283   0.00000  Uiso   1.00
C401   C     0.02130   0.79068   0.25062   0.00000  Uiso   1.00
C402   C     0.31203   0.87599   0.24938   0.00000  Uiso   1.00
C403   C     0.31207   0.79067   0.25064   0.00000  Uiso   1.00
C404   C     0.02126   0.87599   0.24936   0.00000  Uiso   1.00
C405   C     0.29060   0.83333   0.25002   0.00000  Uiso   1.00
C406   C     0.04273   0.83334   0.24998   0.00000  Uiso   1.00
C407   C     0.14140   0.69202   0.22213   0.00000  Uiso   1.00
C408   C     0.19193   0.97465   0.27787   0.00000  Uiso   1.00
C409   C     0.19192   0.69098   0.27789   0.00000  Uiso   1.00
C410   C     0.14142   0.97569   0.22211   0.00000  Uiso   1.00
C411   C     0.16776   0.83388   0.16431   0.00000  Uiso   1.00
C412   C     0.16557   0.83279   0.33568   0.00000  Uiso   1.00
C413   C     0.18044   0.87006   0.40614   0.00000  Uiso   1.00
C414   C     0.15290   0.79660   0.09386   0.00000  Uiso   1.00
C415   C     0.16455   0.83150   0.38410   0.00000  Uiso   1.00
C416   C     0.16879   0.83517   0.11590   0.00000  Uiso   1.00
C417   C     0.14796   0.79288   0.40834   0.00000  Uiso   1.00
C418   C     0.18538   0.87379   0.09166   0.00000  Uiso   1.00
C419   C     0.14939   0.79273   0.45513   0.00000  Uiso   1.00
C420   C     0.18394   0.87393   0.04486   0.00000  Uiso   1.00
C421   C     0.16593   0.83256   0.47674   0.00000  Uiso   1.00
C422   C     0.16740   0.83411   0.02326   0.00000  Uiso   1.00
C423   C     0.18099   0.87103   0.45189   0.00000  Uiso   1.00
C424   C     0.15234   0.79563   0.04811   0.00000  Uiso   1.00
C425   C     0.13509   0.75415   0.48124   0.00000  Uiso   1.00
C426   C     0.19824   0.91251   0.01876   0.00000  Uiso   1.00
Cu427  Cu    0.16667   0.88022   0.25000   0.00000  Uiso   1.00
Cu428  Cu    0.16667   0.78645   0.25000   0.00000  Uiso   1.00
H429   H     0.19289   0.89961   0.38744   0.00000  Uiso   1.00
H430   H     0.14044   0.76706   0.11256   0.00000  Uiso   1.00
H431   H     0.12548   0.72660   0.04661   0.00000  Uiso   1.00
H432   H     0.20786   0.94007   0.45339   0.00000  Uiso   1.00
H433   H     0.03733   0.75733   0.25112   0.00000  Uiso   1.00
H434   H     0.29601   0.90934   0.24888   0.00000  Uiso   1.00
H435   H     0.29607   0.75732   0.25117   0.00000  Uiso   1.00
H436   H     0.03726   0.90934   0.24883   0.00000  Uiso   1.00
H437   H     0.12116   0.71119   0.19983   0.00000  Uiso   1.00
H438   H     0.21217   0.95547   0.30016   0.00000  Uiso   1.00
H439   H     0.21211   0.70934   0.30020   0.00000  Uiso   1.00
H440   H     0.12122   0.95733   0.19980   0.00000  Uiso   1.00
N441   N     0.16667   0.95069   0.25000   0.00000  Uiso   1.00
N442   N     0.16667   0.71598   0.25000   0.00000  Uiso   1.00
O443   O     0.10655   0.87291   0.24999   0.00000  Uiso   1.00
O444   O     0.22679   0.79375   0.25000   0.00000  Uiso   1.00
O445   O     0.22679   0.87291   0.25000   0.00000  Uiso   1.00
O446   O     0.10655   0.79375   0.24999   0.00000  Uiso   1.00
O447   O     0.16666   0.87293   0.18513   0.00000  Uiso   1.00
O448   O     0.16668   0.79373   0.31487   0.00000  Uiso   1.00
O449   O     0.16668   0.87293   0.31487   0.00000  Uiso   1.00
O450   O     0.16666   0.79373   0.18513   0.00000  Uiso   1.00
N451   N     0.12808   0.75501   0.38596   0.00000  Uiso   1.00
H452   H     0.10613   0.76846   0.36378   0.00000  Uiso   1.00
H453   H     0.15008   0.73523   0.36944   0.00000  Uiso   1.00
N454   N     0.20525   0.91166   0.11404   0.00000  Uiso   1.00
H455   H     0.18325   0.93143   0.13056   0.00000  Uiso   1.00
H456   H     0.22720   0.89821   0.13622   0.00000  Uiso   1.00
N457   N     0.11955   0.71214   0.46186   0.00000  Uiso   1.00
H458   H     0.08953   0.70670   0.47316   0.00000  Uiso   1.00
H459   H     0.13762   0.68390   0.47294   0.00000  Uiso   1.00
N460   N     0.21379   0.95453   0.03814   0.00000  Uiso   1.00
H461   H     0.19572   0.98276   0.02705   0.00000  Uiso   1.00
H462   H     0.24380   0.95997   0.02684   0.00000  Uiso   1.00
C463   C     0.42067   0.83334   0.24998   0.00000  Uiso   1.00
C464   C     0.57933   0.83333   0.25002   0.00000  Uiso   1.00
C465   C     0.46995   0.75629   0.02717   0.00000  Uiso   1.00
C466   C     0.53005   0.91038   0.47283   0.00000  Uiso   1.00
C467   C     0.35463   0.79068   0.25062   0.00000  Uiso   1.00
C468   C     0.64537   0.87599   0.24938   0.00000  Uiso   1.00
C469   C     0.64540   0.79067   0.25064   0.00000  Uiso   1.00
C470   C     0.35460   0.87599   0.24936   0.00000  Uiso   1.00
C471   C     0.62394   0.83333   0.25002   0.00000  Uiso   1.00
C472   C     0.37606   0.83334   0.24998   0.00000  Uiso   1.00
C473   C     0.47473   0.69202   0.22213   0.00000  Uiso   1.00
C474   C     0.52527   0.97465   0.27787   0.00000  Uiso   1.00
C475   C     0.52525   0.69098   0.27789   0.00000  Uiso   1.00
C476   C     0.47475   0.97569   0.22211   0.00000  Uiso   1.00
C477   C     0.50109   0.83388   0.16431   0.00000  Uiso   1.00
C478   C     0.49891   0.83279   0.33568   0.00000  Uiso   1.00
C479   C     0.51377   0.87006   0.40614   0.00000  Uiso   1.00
C480   C     0.48623   0.79660   0.09386   0.00000  Uiso   1.00
C481   C     0.49788   0.83150   0.38410   0.00000  Uiso   1.00
C482   C     0.50212   0.83517   0.11590   0.00000  Uiso   1.00
C483   C     0.48129   0.79288   0.40834   0.00000  Uiso   1.00
C484   C     0.51871   0.87379   0.09166   0.00000  Uiso   1.00
C485   C     0.48273   0.79273   0.45513   0.00000  Uiso   1.00
C486   C     0.51727   0.87393   0.04486   0.00000  Uiso   1.00
C487   C     0.49926   0.83256   0.47674   0.00000  Uiso   1.00
C488   C     0.50074   0.83411   0.02326   0.00000  Uiso   1.00
C489   C     0.51433   0.87103   0.45189   0.00000  Uiso   1.00
C490   C     0.48567   0.79563   0.04811   0.00000  Uiso   1.00
C491   C     0.46843   0.75415   0.48124   0.00000  Uiso   1.00
C492   C     0.53157   0.91251   0.01876   0.00000  Uiso   1.00
Cu493  Cu    0.50000   0.88022   0.25000   0.00000  Uiso   1.00
Cu494  Cu    0.50000   0.78645   0.25000   0.00000  Uiso   1.00
H495   H     0.52622   0.89961   0.38744   0.00000  Uiso   1.00
H496   H     0.47378   0.76706   0.11256   0.00000  Uiso   1.00
H497   H     0.45881   0.72660   0.04661   0.00000  Uiso   1.00
H498   H     0.54119   0.94007   0.45339   0.00000  Uiso   1.00
H499   H     0.37066   0.75733   0.25112   0.00000  Uiso   1.00
H500   H     0.62934   0.90934   0.24888   0.00000  Uiso   1.00
H501   H     0.62940   0.75732   0.25117   0.00000  Uiso   1.00
H502   H     0.37060   0.90934   0.24883   0.00000  Uiso   1.00
H503   H     0.45450   0.71119   0.19983   0.00000  Uiso   1.00
H504   H     0.54550   0.95547   0.30016   0.00000  Uiso   1.00
H505   H     0.54545   0.70934   0.30020   0.00000  Uiso   1.00
H506   H     0.45456   0.95733   0.19980   0.00000  Uiso   1.00
N507   N     0.50000   0.95069   0.25000   0.00000  Uiso   1.00
N508   N     0.50000   0.71598   0.25000   0.00000  Uiso   1.00
O509   O     0.43988   0.87291   0.24999   0.00000  Uiso   1.00
O510   O     0.56012   0.79375   0.25000   0.00000  Uiso   1.00
O511   O     0.56012   0.87291   0.25000   0.00000  Uiso   1.00
O512   O     0.43988   0.79375   0.24999   0.00000  Uiso   1.00
O513   O     0.49999   0.87293   0.18513   0.00000  Uiso   1.00
O514   O     0.50001   0.79373   0.31487   0.00000  Uiso   1.00
O515   O     0.50001   0.87293   0.31487   0.00000  Uiso   1.00
O516   O     0.49999   0.79373   0.18513   0.00000  Uiso   1.00
N517   N     0.46141   0.75501   0.38596   0.00000  Uiso   1.00
H518   H     0.43947   0.76846   0.36378   0.00000  Uiso   1.00
H519   H     0.48342   0.73523   0.36944   0.00000  Uiso   1.00
N520   N     0.53859   0.91166   0.11404   0.00000  Uiso   1.00
H521   H     0.51658   0.93143   0.13056   0.00000  Uiso   1.00
H522   H     0.56053   0.89821   0.13622   0.00000  Uiso   1.00
N523   N     0.45288   0.71214   0.46186   0.00000  Uiso   1.00
H524   H     0.42287   0.70670   0.47316   0.00000  Uiso   1.00
H525   H     0.47095   0.68390   0.47294   0.00000  Uiso   1.00
N526   N     0.54712   0.95453   0.03814   0.00000  Uiso   1.00
H527   H     0.52905   0.98276   0.02705   0.00000  Uiso   1.00
H528   H     0.57713   0.95997   0.02684   0.00000  Uiso   1.00
C529   C     0.75400   0.83334   0.24998   0.00000  Uiso   1.00
C530   C     0.91267   0.83333   0.25002   0.00000  Uiso   1.00
C531   C     0.80329   0.75629   0.02717   0.00000  Uiso   1.00
C532   C     0.86338   0.91038   0.47283   0.00000  Uiso   1.00
C533   C     0.68797   0.79068   0.25062   0.00000  Uiso   1.00
C534   C     0.97870   0.87599   0.24938   0.00000  Uiso   1.00
C535   C     0.97874   0.79067   0.25064   0.00000  Uiso   1.00
C536   C     0.68793   0.87599   0.24936   0.00000  Uiso   1.00
C537   C     0.95727   0.83333   0.25002   0.00000  Uiso   1.00
C538   C     0.70940   0.83334   0.24998   0.00000  Uiso   1.00
C539   C     0.80807   0.69202   0.22213   0.00000  Uiso   1.00
C540   C     0.85860   0.97465   0.27787   0.00000  Uiso   1.00
C541   C     0.85858   0.69098   0.27789   0.00000  Uiso   1.00
C542   C     0.80808   0.97569   0.22211   0.00000  Uiso   1.00
C543   C     0.83443   0.83388   0.16431   0.00000  Uiso   1.00
C544   C     0.83224   0.83279   0.33568   0.00000  Uiso   1.00
C545   C     0.84710   0.87006   0.40614   0.00000  Uiso   1.00
C546   C     0.81956   0.79660   0.09386   0.00000  Uiso   1.00
C547   C     0.83121   0.83150   0.38410   0.00000  Uiso   1.00
C548   C     0.83545   0.83517   0.11590   0.00000  Uiso   1.00
C549   C     0.81462   0.79288   0.40834   0.00000  Uiso   1.00
C550   C     0.85204   0.87379   0.09166   0.00000  Uiso   1.00
C551   C     0.81606   0.79273   0.45513   0.00000  Uiso   1.00
C552   C     0.85061   0.87393   0.04486   0.00000  Uiso   1.00
C553   C     0.83260   0.83256   0.47674   0.00000  Uiso   1.00
C554   C     0.83407   0.83411   0.02326   0.00000  Uiso   1.00
C555   C     0.84766   0.87103   0.45189   0.00000  Uiso   1.00
C556   C     0.81901   0.79563   0.04811   0.00000  Uiso   1.00
C557   C     0.80176   0.75415   0.48124   0.00000  Uiso   1.00
C558   C     0.86491   0.91251   0.01876   0.00000  Uiso   1.00
Cu559  Cu    0.83333   0.88022   0.25000   0.00000  Uiso   1.00
Cu560  Cu    0.83333   0.78645   0.25000   0.00000  Uiso   1.00
H561   H     0.85956   0.89961   0.38744   0.00000  Uiso   1.00
H562   H     0.80711   0.76706   0.11256   0.00000  Uiso   1.00
H563   H     0.79214   0.72660   0.04661   0.00000  Uiso   1.00
H564   H     0.87452   0.94007   0.45339   0.00000  Uiso   1.00
H565   H     0.70399   0.75733   0.25112   0.00000  Uiso   1.00
H566   H     0.96267   0.90934   0.24888   0.00000  Uiso   1.00
H567   H     0.96274   0.75732   0.25117   0.00000  Uiso   1.00
H568   H     0.70393   0.90934   0.24883   0.00000  Uiso   1.00
H569   H     0.78783   0.71119   0.19983   0.00000  Uiso   1.00
H570   H     0.87884   0.95547   0.30016   0.00000  Uiso   1.00
H571   H     0.87878   0.70934   0.30020   0.00000  Uiso   1.00
H572   H     0.78789   0.95733   0.19980   0.00000  Uiso   1.00
N573   N     0.83333   0.95069   0.25000   0.00000  Uiso   1.00
N574   N     0.83333   0.71598   0.25000   0.00000  Uiso   1.00
O575   O     0.77321   0.87291   0.24999   0.00000  Uiso   1.00
O576   O     0.89345   0.79375   0.25000   0.00000  Uiso   1.00
O577   O     0.89345   0.87291   0.25000   0.00000  Uiso   1.00
O578   O     0.77321   0.79375   0.24999   0.00000  Uiso   1.00
O579   O     0.83332   0.87293   0.18513   0.00000  Uiso   1.00
O580   O     0.83334   0.79373   0.31487   0.00000  Uiso   1.00
O581   O     0.83334   0.87293   0.31487   0.00000  Uiso   1.00
O582   O     0.83332   0.79373   0.18513   0.00000  Uiso   1.00
N583   N     0.79475   0.75501   0.38596   0.00000  Uiso   1.00
H584   H     0.77280   0.76846   0.36378   0.00000  Uiso   1.00
H585   H     0.81675   0.73523   0.36944   0.00000  Uiso   1.00
N586   N     0.87192   0.91166   0.11404   0.00000  Uiso   1.00
H587   H     0.84992   0.93143   0.13056   0.00000  Uiso   1.00
H588   H     0.89387   0.89821   0.13622   0.00000  Uiso   1.00
N589   N     0.78621   0.71214   0.46186   0.00000  Uiso   1.00
H590   H     0.75620   0.70670   0.47316   0.00000  Uiso   1.00
H591   H     0.80428   0.68390   0.47294   0.00000  Uiso   1.00
N592   N     0.88045   0.95453   0.03814   0.00000  Uiso   1.00
H593   H     0.86238   0.98276   0.02705   0.00000  Uiso   1.00
H594   H     0.91047   0.95997   0.02684   0.00000  Uiso   1.00
C595   C     0.08733   0.16667   0.74998   0.00000  Uiso   1.00
C596   C     0.24600   0.16666   0.75002   0.00000  Uiso   1.00
C597   C     0.13662   0.08962   0.52717   0.00000  Uiso   1.00
C598   C     0.19671   0.24371   0.97283   0.00000  Uiso   1.00
C599   C     0.02130   0.12401   0.75062   0.00000  Uiso   1.00
C600   C     0.31203   0.20932   0.74938   0.00000  Uiso   1.00
C601   C     0.31207   0.12401   0.75064   0.00000  Uiso   1.00
C602   C     0.02126   0.20933   0.74936   0.00000  Uiso   1.00
C603   C     0.29060   0.16666   0.75002   0.00000  Uiso   1.00
C604   C     0.04273   0.16667   0.74998   0.00000  Uiso   1.00
C605   C     0.14140   0.02535   0.72213   0.00000  Uiso   1.00
C606   C     0.19193   0.30798   0.77787   0.00000  Uiso   1.00
C607   C     0.19192   0.02431   0.77789   0.00000  Uiso   1.00
C608   C     0.14142   0.30902   0.72211   0.00000  Uiso   1.00
C609   C     0.16776   0.16721   0.66431   0.00000  Uiso   1.00
C610   C     0.16557   0.16612   0.83568   0.00000  Uiso   1.00
C611   C     0.18044   0.20340   0.90614   0.00000  Uiso   1.00
C612   C     0.15290   0.12994   0.59386   0.00000  Uiso   1.00
C613   C     0.16455   0.16483   0.88410   0.00000  Uiso   1.00
C614   C     0.16879   0.16850   0.61590   0.00000  Uiso   1.00
C615   C     0.14796   0.12621   0.90834   0.00000  Uiso   1.00
C616   C     0.18538   0.20712   0.59166   0.00000  Uiso   1.00
C617   C     0.14939   0.12607   0.95513   0.00000  Uiso   1.00
C618   C     0.18394   0.20727   0.54486   0.00000  Uiso   1.00
C619   C     0.16593   0.16589   0.97674   0.00000  Uiso   1.00
C620   C     0.16740   0.16744   0.52326   0.00000  Uiso   1.00
C621   C     0.18099   0.20437   0.95189   0.00000  Uiso   1.00
C622   C     0.15234   0.12896   0.54811   0.00000  Uiso   1.00
C623   C     0.13509   0.08749   0.98124   0.00000  Uiso   1.00
C624   C     0.19824   0.24585   0.51876   0.00000  Uiso   1.00
Cu625  Cu    0.16667   0.21355   0.75000   0.00000  Uiso   1.00
Cu626  Cu    0.16667   0.11978   0.75000   0.00000  Uiso   1.00
H627   H     0.19289   0.23294   0.88744   0.00000  Uiso   1.00
H628   H     0.14044   0.10039   0.61256   0.00000  Uiso   1.00
H629   H     0.12548   0.05993   0.54661   0.00000  Uiso   1.00
H630   H     0.20786   0.27340   0.95339   0.00000  Uiso   1.00
H631   H     0.03733   0.09066   0.75112   0.00000  Uiso   1.00
H632   H     0.29601   0.24267   0.74888   0.00000  Uiso   1.00
H633   H     0.29607   0.09066   0.75117   0.00000  Uiso   1.00
H634   H     0.03726   0.24268   0.74883   0.00000  Uiso   1.00
H635   H     0.12116   0.04453   0.69983   0.00000  Uiso   1.00
H636   H     0.21217   0.28880   0.80016   0.00000  Uiso   1.00
H637   H     0.21211   0.04267   0.80020   0.00000  Uiso   1.00
H638   H     0.12122   0.29066   0.69980   0.00000  Uiso   1.00
N639   N     0.16667   0.28402   0.75000   0.00000  Uiso   1.00
N640   N     0.16667   0.04931   0.75000   0.00000  Uiso   1.00
O641   O     0.10655   0.20625   0.74999   0.00000  Uiso   1.00
O642   O     0.22679   0.12709   0.75000   0.00000  Uiso   1.00
O643   O     0.22679   0.20625   0.75000   0.00000  Uiso   1.00
O644   O     0.10655   0.12709   0.74999   0.00000  Uiso   1.00
O645   O     0.16666   0.20627   0.68513   0.00000  Uiso   1.00
O646   O     0.16668   0.12707   0.81487   0.00000  Uiso   1.00
O647   O     0.16668   0.20627   0.81487   0.00000  Uiso   1.00
O648   O     0.16666   0.12707   0.68513   0.00000  Uiso   1.00
N649   N     0.12808   0.08834   0.88596   0.00000  Uiso   1.00
H650   H     0.10613   0.10179   0.86378   0.00000  Uiso   1.00
H651   H     0.15008   0.06857   0.86944   0.00000  Uiso   1.00
N652   N     0.20525   0.24499   0.61404   0.00000  Uiso   1.00
H653   H     0.18325   0.26477   0.63056   0.00000  Uiso   1.00
H654   H     0.22720   0.23154   0.63622   0.00000  Uiso   1.00
N655   N     0.11955   0.04547   0.96186   0.00000  Uiso   1.00
H656   H     0.08953   0.04003   0.97316   0.00000  Uiso   1.00
H657   H     0.13762   0.01723   0.97294   0.00000  Uiso   1.00
N658   N     0.21379   0.28786   0.53814   0.00000  Uiso   1.00
H659   H     0.19572   0.31610   0.52705   0.00000  Uiso   1.00
H660   H     0.24380   0.29330   0.52684   0.00000  Uiso   1.00
C661   C     0.42067   0.16667   0.74998   0.00000  Uiso   1.00
C662   C     0.57933   0.16666   0.75002   0.00000  Uiso   1.00
C663   C     0.46995   0.08962   0.52717   0.00000  Uiso   1.00
C664   C     0.53005   0.24371   0.97283   0.00000  Uiso   1.00
C665   C     0.35463   0.12401   0.75062   0.00000  Uiso   1.00
C666   C     0.64537   0.20932   0.74938   0.00000  Uiso   1.00
C667   C     0.64540   0.12401   0.75064   0.00000  Uiso   1.00
C668   C     0.35460   0.20933   0.74936   0.00000  Uiso   1.00
C669   C     0.62394   0.16666   0.75002   0.00000  Uiso   1.00
C670   C     0.37606   0.16667   0.74998   0.00000  Uiso   1.00
C671   C     0.47473   0.02535   0.72213   0.00000  Uiso   1.00
C672   C     0.52527   0.30798   0.77787   0.00000  Uiso   1.00
C673   C     0.52525   0.02431   0.77789   0.00000  Uiso   1.00
C674   C     0.47475   0.30902   0.72211   0.00000  Uiso   1.00
C675   C     0.50109   0.16721   0.66431   0.00000  Uiso   1.00
C676   C     0.49891   0.16612   0.83568   0.00000  Uiso   1.00
C677   C     0.51377   0.20340   0.90614   0.00000  Uiso   1.00
C678   C     0.48623   0.12994   0.59386   0.00000  Uiso   1.00
C679   C     0.49788   0.16483   0.88410   0.00000  Uiso   1.00
C680   C     0.50212   0.16850   0.61590   0.00000  Uiso   1.00
C681   C     0.48129   0.12621   0.90834   0.00000  Uiso   1.00
C682   C     0.51871   0.20712   0.59166   0.00000  Uiso   1.00
C683   C     0.48273   0.12607   0.95513   0.00000  Uiso   1.00
C684   C     0.51727   0.20727   0.54486   0.00000  Uiso   1.00
C685   C     0.49926   0.16589   0.97674   0.00000  Uiso   1.00
C686   C     0.50074   0.16744   0.52326   0.00000  Uiso   1.00
C687   C     0.51433   0.20437   0.95189   0.00000  Uiso   1.00
C688   C     0.48567   0.12896   0.54811   0.00000  Uiso   1.00
C689   C     0.46843   0.08749   0.98124   0.00000  Uiso   1.00
C690   C     0.53157   0.24585   0.51876   0.00000  Uiso   1.00
Cu691  Cu    0.50000   0.21355   0.75000   0.00000  Uiso   1.00
Cu692  Cu    0.50000   0.11978   0.75000   0.00000  Uiso   1.00
H693   H     0.52622   0.23294   0.88744   0.00000  Uiso   1.00
H694   H     0.47378   0.10039   0.61256   0.00000  Uiso   1.00
H695   H     0.45881   0.05993   0.54661   0.00000  Uiso   1.00
H696   H     0.54119   0.27340   0.95339   0.00000  Uiso   1.00
H697   H     0.37066   0.09066   0.75112   0.00000  Uiso   1.00
H698   H     0.62934   0.24267   0.74888   0.00000  Uiso   1.00
H699   H     0.62940   0.09066   0.75117   0.00000  Uiso   1.00
H700   H     0.37060   0.24268   0.74883   0.00000  Uiso   1.00
H701   H     0.45450   0.04453   0.69983   0.00000  Uiso   1.00
H702   H     0.54550   0.28880   0.80016   0.00000  Uiso   1.00
H703   H     0.54545   0.04267   0.80020   0.00000  Uiso   1.00
H704   H     0.45456   0.29066   0.69980   0.00000  Uiso   1.00
N705   N     0.50000   0.28402   0.75000   0.00000  Uiso   1.00
N706   N     0.50000   0.04931   0.75000   0.00000  Uiso   1.00
O707   O     0.43988   0.20625   0.74999   0.00000  Uiso   1.00
O708   O     0.56012   0.12709   0.75000   0.00000  Uiso   1.00
O709   O     0.56012   0.20625   0.75000   0.00000  Uiso   1.00
O710   O     0.43988   0.12709   0.74999   0.00000  Uiso   1.00
O711   O     0.49999   0.20627   0.68513   0.00000  Uiso   1.00
O712   O     0.50001   0.12707   0.81487   0.00000  Uiso   1.00
O713   O     0.50001   0.20627   0.81487   0.00000  Uiso   1.00
O714   O     0.49999   0.12707   0.68513   0.00000  Uiso   1.00
N715   N     0.46141   0.08834   0.88596   0.00000  Uiso   1.00
H716   H     0.43947   0.10179   0.86378   0.00000  Uiso   1.00
H717   H     0.48342   0.06857   0.86944   0.00000  Uiso   1.00
N718   N     0.53859   0.24499   0.61404   0.00000  Uiso   1.00
H719   H     0.51658   0.26477   0.63056   0.00000  Uiso   1.00
H720   H     0.56053   0.23154   0.63622   0.00000  Uiso   1.00
N721   N     0.45288   0.04547   0.96186   0.00000  Uiso   1.00
H722   H     0.42287   0.04003   0.97316   0.00000  Uiso   1.00
H723   H     0.47095   0.01723   0.97294   0.00000  Uiso   1.00
N724   N     0.54712   0.28786   0.53814   0.00000  Uiso   1.00
H725   H     0.52905   0.31610   0.52705   0.00000  Uiso   1.00
H726   H     0.57713   0.29330   0.52684   0.00000  Uiso   1.00
C727   C     0.75400   0.16667   0.74998   0.00000  Uiso   1.00
C728   C     0.91267   0.16666   0.75002   0.00000  Uiso   1.00
C729   C     0.80329   0.08962   0.52717   0.00000  Uiso   1.00
C730   C     0.86338   0.24371   0.97283   0.00000  Uiso   1.00
C731   C     0.68797   0.12401   0.75062   0.00000  Uiso   1.00
C732   C     0.97870   0.20932   0.74938   0.00000  Uiso   1.00
C733   C     0.97874   0.12401   0.75064   0.00000  Uiso   1.00
C734   C     0.68793   0.20933   0.74936   0.00000  Uiso   1.00
C735   C     0.95727   0.16666   0.75002   0.00000  Uiso   1.00
C736   C     0.70940   0.16667   0.74998   0.00000  Uiso   1.00
C737   C     0.80807   0.02535   0.72213   0.00000  Uiso   1.00
C738   C     0.85860   0.30798   0.77787   0.00000  Uiso   1.00
C739   C     0.85858   0.02431   0.77789   0.00000  Uiso   1.00
C740   C     0.80808   0.30902   0.72211   0.00000  Uiso   1.00
C741   C     0.83443   0.16721   0.66431   0.00000  Uiso   1.00
C742   C     0.83224   0.16612   0.83568   0.00000  Uiso   1.00
C743   C     0.84710   0.20340   0.90614   0.00000  Uiso   1.00
C744   C     0.81956   0.12994   0.59386   0.00000  Uiso   1.00
C745   C     0.83121   0.16483   0.88410   0.00000  Uiso   1.00
C746   C     0.83545   0.16850   0.61590   0.00000  Uiso   1.00
C747   C     0.81462   0.12621   0.90834   0.00000  Uiso   1.00
C748   C     0.85204   0.20712   0.59166   0.00000  Uiso   1.00
C749   C     0.81606   0.12607   0.95513   0.00000  Uiso   1.00
C750   C     0.85061   0.20727   0.54486   0.00000  Uiso   1.00
C751   C     0.83260   0.16589   0.97674   0.00000  Uiso   1.00
C752   C     0.83407   0.16744   0.52326   0.00000  Uiso   1.00
C753   C     0.84766   0.20437   0.95189   0.00000  Uiso   1.00
C754   C     0.81901   0.12896   0.54811   0.00000  Uiso   1.00
C755   C     0.80176   0.08749   0.98124   0.00000  Uiso   1.00
C756   C     0.86491   0.24585   0.51876   0.00000  Uiso   1.00
Cu757  Cu    0.83333   0.21355   0.75000   0.00000  Uiso   1.00
Cu758  Cu    0.83333   0.11978   0.75000   0.00000  Uiso   1.00
H759   H     0.85956   0.23294   0.88744   0.00000  Uiso   1.00
H760   H     0.80711   0.10039   0.61256   0.00000  Uiso   1.00
H761   H     0.79214   0.05993   0.54661   0.00000  Uiso   1.00
H762   H     0.87452   0.27340   0.95339   0.00000  Uiso   1.00
H763   H     0.70399   0.09066   0.75112   0.00000  Uiso   1.00
H764   H     0.96267   0.24267   0.74888   0.00000  Uiso   1.00
H765   H     0.96274   0.09066   0.75117   0.00000  Uiso   1.00
H766   H     0.70393   0.24268   0.74883   0.00000  Uiso   1.00
H767   H     0.78783   0.04453   0.69983   0.00000  Uiso   1.00
H768   H     0.87884   0.28880   0.80016   0.00000  Uiso   1.00
H769   H     0.87878   0.04267   0.80020   0.00000  Uiso   1.00
H770   H     0.78789   0.29066   0.69980   0.00000  Uiso   1.00
N771   N     0.83333   0.28402   0.75000   0.00000  Uiso   1.00
N772   N     0.83333   0.04931   0.75000   0.00000  Uiso   1.00
O773   O     0.77321   0.20625   0.74999   0.00000  Uiso   1.00
O774   O     0.89345   0.12709   0.75000   0.00000  Uiso   1.00
O775   O     0.89345   0.20625   0.75000   0.00000  Uiso   1.00
O776   O     0.77321   0.12709   0.74999   0.00000  Uiso   1.00
O777   O     0.83332   0.20627   0.68513   0.00000  Uiso   1.00
O778   O     0.83334   0.12707   0.81487   0.00000  Uiso   1.00
O779   O     0.83334   0.20627   0.81487   0.00000  Uiso   1.00
O780   O     0.83332   0.12707   0.68513   0.00000  Uiso   1.00
N781   N     0.79475   0.08834   0.88596   0.00000  Uiso   1.00
H782   H     0.77280   0.10179   0.86378   0.00000  Uiso   1.00
H783   H     0.81675   0.06857   0.86944   0.00000  Uiso   1.00
N784   N     0.87192   0.24499   0.61404   0.00000  Uiso   1.00
H785   H     0.84992   0.26477   0.63056   0.00000  Uiso   1.00
H786   H     0.89387   0.23154   0.63622   0.00000  Uiso   1.00
N787   N     0.78621   0.04547   0.96186   0.00000  Uiso   1.00
H788   H     0.75620   0.04003   0.97316   0.00000  Uiso   1.00
H789   H     0.80428   0.01723   0.97294   0.00000  Uiso   1.00
N790   N     0.88045   0.28786   0.53814   0.00000  Uiso   1.00
H791   H     0.86238   0.31610   0.52705   0.00000  Uiso   1.00
H792   H     0.91047   0.29330   0.52684   0.00000  Uiso   1.00
C793   C     0.08733   0.50000   0.74998   0.00000  Uiso   1.00
C794   C     0.24600   0.50000   0.75002   0.00000  Uiso   1.00
C795   C     0.13662   0.42295   0.52717   0.00000  Uiso   1.00
C796   C     0.19671   0.57705   0.97283   0.00000  Uiso   1.00
C797   C     0.02130   0.45734   0.75062   0.00000  Uiso   1.00
C798   C     0.31203   0.54266   0.74938   0.00000  Uiso   1.00
C799   C     0.31207   0.45734   0.75064   0.00000  Uiso   1.00
C800   C     0.02126   0.54266   0.74936   0.00000  Uiso   1.00
C801   C     0.29060   0.49999   0.75002   0.00000  Uiso   1.00
C802   C     0.04273   0.50001   0.74998   0.00000  Uiso   1.00
C803   C     0.14140   0.35868   0.72213   0.00000  Uiso   1.00
C804   C     0.19193   0.64132   0.77787   0.00000  Uiso   1.00
C805   C     0.19192   0.35765   0.77789   0.00000  Uiso   1.00
C806   C     0.14142   0.64235   0.72211   0.00000  Uiso   1.00
C807   C     0.16776   0.50054   0.66431   0.00000  Uiso   1.00
C808   C     0.16557   0.49946   0.83568   0.00000  Uiso   1.00
C809   C     0.18044   0.53673   0.90614   0.00000  Uiso   1.00
C810   C     0.15290   0.46327   0.59386   0.00000  Uiso   1.00
C811   C     0.16455   0.49816   0.88410   0.00000  Uiso   1.00
C812   C     0.16879   0.50184   0.61590   0.00000  Uiso   1.00
C813   C     0.14796   0.45955   0.90834   0.00000  Uiso   1.00
C814   C     0.18538   0.54045   0.59166   0.00000  Uiso   1.00
C815   C     0.14939   0.45940   0.95513   0.00000  Uiso   1.00
C816   C     0.18394   0.54060   0.54486   0.00000  Uiso   1.00
C817   C     0.16593   0.49923   0.97674   0.00000  Uiso   1.00
C818   C     0.16740   0.50077   0.52326   0.00000  Uiso   1.00
C819   C     0.18099   0.53770   0.95189   0.00000  Uiso   1.00
C820   C     0.15234   0.46230   0.54811   0.00000  Uiso   1.00
C821   C     0.13509   0.42082   0.98124   0.00000  Uiso   1.00
C822   C     0.19824   0.57918   0.51876   0.00000  Uiso   1.00
Cu823  Cu    0.16667   0.54689   0.75000   0.00000  Uiso   1.00
Cu824  Cu    0.16667   0.45311   0.75000   0.00000  Uiso   1.00
H825   H     0.19289   0.56627   0.88744   0.00000  Uiso   1.00
H826   H     0.14044   0.43373   0.61256   0.00000  Uiso   1.00
H827   H     0.12548   0.39327   0.54661   0.00000  Uiso   1.00
H828   H     0.20786   0.60673   0.95339   0.00000  Uiso   1.00
H829   H     0.03733   0.42400   0.75112   0.00000  Uiso   1.00
H830   H     0.29601   0.57600   0.74888   0.00000  Uiso   1.00
H831   H     0.29607   0.42399   0.75117   0.00000  Uiso   1.00
H832   H     0.03726   0.57601   0.74883   0.00000  Uiso   1.00
H833   H     0.12116   0.37786   0.69983   0.00000  Uiso   1.00
H834   H     0.21217   0.62214   0.80016   0.00000  Uiso   1.00
H835   H     0.21211   0.37601   0.80020   0.00000  Uiso   1.00
H836   H     0.12122   0.62399   0.69980   0.00000  Uiso   1.00
N837   N     0.16667   0.61736   0.75000   0.00000  Uiso   1.00
N838   N     0.16667   0.38264   0.75000   0.00000  Uiso   1.00
O839   O     0.10655   0.53958   0.74999   0.00000  Uiso   1.00
O840   O     0.22679   0.46042   0.75000   0.00000  Uiso   1.00
O841   O     0.22679   0.53958   0.75000   0.00000  Uiso   1.00
O842   O     0.10655   0.46042   0.74999   0.00000  Uiso   1.00
O843   O     0.16666   0.53960   0.68513   0.00000  Uiso   1.00
O844   O     0.16668   0.46040   0.81487   0.00000  Uiso   1.00
O845   O     0.16668   0.53960   0.81487   0.00000  Uiso   1.00
O846   O     0.16666   0.46040   0.68513   0.00000  Uiso   1.00
N847   N     0.12808   0.42167   0.88596   0.00000  Uiso   1.00
H848   H     0.10613   0.43512   0.86378   0.00000  Uiso   1.00
H849   H     0.15008   0.40190   0.86944   0.00000  Uiso   1.00
N850   N     0.20525   0.57833   0.61404   0.00000  Uiso   1.00
H851   H     0.18325   0.59810   0.63056   0.00000  Uiso   1.00
H852   H     0.22720   0.56488   0.63622   0.00000  Uiso   1.00
N853   N     0.11955   0.37881   0.96186   0.00000  Uiso   1.00
H854   H     0.08953   0.37336   0.97316   0.00000  Uiso   1.00
H855   H     0.13762   0.35057   0.97294   0.00000  Uiso   1.00
N856   N     0.21379   0.62119   0.53814   0.00000  Uiso   1.00
H857   H     0.19572   0.64943   0.52705   0.00000  Uiso   1.00
H858   H     0.24380   0.62664   0.52684   0.00000  Uiso   1.00
C859   C     0.42067   0.50000   0.74998   0.00000  Uiso   1.00
C860   C     0.57933   0.50000   0.75002   0.00000  Uiso   1.00
C861   C     0.46995   0.42295   0.52717   0.00000  Uiso   1.00
C862   C     0.53005   0.57705   0.97283   0.00000  Uiso   1.00
C863   C     0.35463   0.45734   0.75062   0.00000  Uiso   1.00
C864   C     0.64537   0.54266   0.74938   0.00000  Uiso   1.00
C865   C     0.64540   0.45734   0.75064   0.00000  Uiso   1.00
C866   C     0.35460   0.54266   0.74936   0.00000  Uiso   1.00
C867   C     0.62394   0.49999   0.75002   0.00000  Uiso   1.00
C868   C     0.37606   0.50001   0.74998   0.00000  Uiso   1.00
C869   C     0.47473   0.35868   0.72213   0.00000  Uiso   1.00
C870   C     0.52527   0.64132   0.77787   0.00000  Uiso   1.00
C871   C     0.52525   0.35765   0.77789   0.00000  Uiso   1.00
C872   C     0.47475   0.64235   0.72211   0.00000  Uiso   1.00
C873   C     0.50109   0.50054   0.66431   0.00000  Uiso   1.00
C874   C     0.49891   0.49946   0.83568   0.00000  Uiso   1.00
C875   C     0.51377   0.53673   0.90614   0.00000  Uiso   1.00
C876   C     0.48623   0.46327   0.59386   0.00000  Uiso   1.00
C877   C     0.49788   0.49816   0.88410   0.00000  Uiso   1.00
C878   C     0.50212   0.50184   0.61590   0.00000  Uiso   1.00
C879   C     0.48129   0.45955   0.90834   0.00000  Uiso   1.00
C880   C     0.51871   0.54045   0.59166   0.00000  Uiso   1.00
C881   C     0.48273   0.45940   0.95513   0.00000  Uiso   1.00
C882   C     0.51727   0.54060   0.54486   0.00000  Uiso   1.00
C883   C     0.49926   0.49923   0.97674   0.00000  Uiso   1.00
C884   C     0.50074   0.50077   0.52326   0.00000  Uiso   1.00
C885   C     0.51433   0.53770   0.95189   0.00000  Uiso   1.00
C886   C     0.48567   0.46230   0.54811   0.00000  Uiso   1.00
C887   C     0.46843   0.42082   0.98124   0.00000  Uiso   1.00
C888   C     0.53157   0.57918   0.51876   0.00000  Uiso   1.00
Cu889  Cu    0.50000   0.54689   0.75000   0.00000  Uiso   1.00
Cu890  Cu    0.50000   0.45311   0.75000   0.00000  Uiso   1.00
H891   H     0.52622   0.56627   0.88744   0.00000  Uiso   1.00
H892   H     0.47378   0.43373   0.61256   0.00000  Uiso   1.00
H893   H     0.45881   0.39327   0.54661   0.00000  Uiso   1.00
H894   H     0.54119   0.60673   0.95339   0.00000  Uiso   1.00
H895   H     0.37066   0.42400   0.75112   0.00000  Uiso   1.00
H896   H     0.62934   0.57600   0.74888   0.00000  Uiso   1.00
H897   H     0.62940   0.42399   0.75117   0.00000  Uiso   1.00
H898   H     0.37060   0.57601   0.74883   0.00000  Uiso   1.00
H899   H     0.45450   0.37786   0.69983   0.00000  Uiso   1.00
H900   H     0.54550   0.62214   0.80016   0.00000  Uiso   1.00
H901   H     0.54545   0.37601   0.80020   0.00000  Uiso   1.00
H902   H     0.45456   0.62399   0.69980   0.00000  Uiso   1.00
N903   N     0.50000   0.61736   0.75000   0.00000  Uiso   1.00
N904   N     0.50000   0.38264   0.75000   0.00000  Uiso   1.00
O905   O     0.43988   0.53958   0.74999   0.00000  Uiso   1.00
O906   O     0.56012   0.46042   0.75000   0.00000  Uiso   1.00
O907   O     0.56012   0.53958   0.75000   0.00000  Uiso   1.00
O908   O     0.43988   0.46042   0.74999   0.00000  Uiso   1.00
O909   O     0.49999   0.53960   0.68513   0.00000  Uiso   1.00
O910   O     0.50001   0.46040   0.81487   0.00000  Uiso   1.00
O911   O     0.50001   0.53960   0.81487   0.00000  Uiso   1.00
O912   O     0.49999   0.46040   0.68513   0.00000  Uiso   1.00
N913   N     0.46141   0.42167   0.88596   0.00000  Uiso   1.00
H914   H     0.43947   0.43512   0.86378   0.00000  Uiso   1.00
H915   H     0.48342   0.40190   0.86944   0.00000  Uiso   1.00
N916   N     0.53859   0.57833   0.61404   0.00000  Uiso   1.00
H917   H     0.51658   0.59810   0.63056   0.00000  Uiso   1.00
H918   H     0.56053   0.56488   0.63622   0.00000  Uiso   1.00
N919   N     0.45288   0.37881   0.96186   0.00000  Uiso   1.00
H920   H     0.42287   0.37336   0.97316   0.00000  Uiso   1.00
H921   H     0.47095   0.35057   0.97294   0.00000  Uiso   1.00
N922   N     0.54712   0.62119   0.53814   0.00000  Uiso   1.00
H923   H     0.52905   0.64943   0.52705   0.00000  Uiso   1.00
H924   H     0.57713   0.62664   0.52684   0.00000  Uiso   1.00
C925   C     0.75400   0.50000   0.74998   0.00000  Uiso   1.00
C926   C     0.91267   0.50000   0.75002   0.00000  Uiso   1.00
C927   C     0.80329   0.42295   0.52717   0.00000  Uiso   1.00
C928   C     0.86338   0.57705   0.97283   0.00000  Uiso   1.00
C929   C     0.68797   0.45734   0.75062   0.00000  Uiso   1.00
C930   C     0.97870   0.54266   0.74938   0.00000  Uiso   1.00
C931   C     0.97874   0.45734   0.75064   0.00000  Uiso   1.00
C932   C     0.68793   0.54266   0.74936   0.00000  Uiso   1.00
C933   C     0.95727   0.49999   0.75002   0.00000  Uiso   1.00
C934   C     0.70940   0.50001   0.74998   0.00000  Uiso   1.00
C935   C     0.80807   0.35868   0.72213   0.00000  Uiso   1.00
C936   C     0.85860   0.64132   0.77787   0.00000  Uiso   1.00
C937   C     0.85858   0.35765   0.77789   0.00000  Uiso   1.00
C938   C     0.80808   0.64235   0.72211   0.00000  Uiso   1.00
C939   C     0.83443   0.50054   0.66431   0.00000  Uiso   1.00
C940   C     0.83224   0.49946   0.83568   0.00000  Uiso   1.00
C941   C     0.84710   0.53673   0.90614   0.00000  Uiso   1.00
C942   C     0.81956   0.46327   0.59386   0.00000  Uiso   1.00
C943   C     0.83121   0.49816   0.88410   0.00000  Uiso   1.00
C944   C     0.83545   0.50184   0.61590   0.00000  Uiso   1.00
C945   C     0.81462   0.45955   0.90834   0.00000  Uiso   1.00
C946   C     0.85204   0.54045   0.59166   0.00000  Uiso   1.00
C947   C     0.81606   0.45940   0.95513   0.00000  Uiso   1.00
C948   C     0.85061   0.54060   0.54486   0.00000  Uiso   1.00
C949   C     0.83260   0.49923   0.97674   0.00000  Uiso   1.00
C950   C     0.83407   0.50077   0.52326   0.00000  Uiso   1.00
C951   C     0.84766   0.53770   0.95189   0.00000  Uiso   1.00
C952   C     0.81901   0.46230   0.54811   0.00000  Uiso   1.00
C953   C     0.80176   0.42082   0.98124   0.00000  Uiso   1.00
C954   C     0.86491   0.57918   0.51876   0.00000  Uiso   1.00
Cu955  Cu    0.83333   0.54689   0.75000   0.00000  Uiso   1.00
Cu956  Cu    0.83333   0.45311   0.75000   0.00000  Uiso   1.00
H957   H     0.85956   0.56627   0.88744   0.00000  Uiso   1.00
H958   H     0.80711   0.43373   0.61256   0.00000  Uiso   1.00
H959   H     0.79214   0.39327   0.54661   0.00000  Uiso   1.00
H960   H     0.87452   0.60673   0.95339   0.00000  Uiso   1.00
H961   H     0.70399   0.42400   0.75112   0.00000  Uiso   1.00
H962   H     0.96267   0.57600   0.74888   0.00000  Uiso   1.00
H963   H     0.96274   0.42399   0.75117   0.00000  Uiso   1.00
H964   H     0.70393   0.57601   0.74883   0.00000  Uiso   1.00
H965   H     0.78783   0.37786   0.69983   0.00000  Uiso   1.00
H966   H     0.87884   0.62214   0.80016   0.00000  Uiso   1.00
H967   H     0.87878   0.37601   0.80020   0.00000  Uiso   1.00
H968   H     0.78789   0.62399   0.69980   0.00000  Uiso   1.00
N969   N     0.83333   0.61736   0.75000   0.00000  Uiso   1.00
N970   N     0.83333   0.38264   0.75000   0.00000  Uiso   1.00
O971   O     0.77321   0.53958   0.74999   0.00000  Uiso   1.00
O972   O     0.89345   0.46042   0.75000   0.00000  Uiso   1.00
O973   O     0.89345   0.53958   0.75000   0.00000  Uiso   1.00
O974   O     0.77321   0.46042   0.74999   0.00000  Uiso   1.00
O975   O     0.83332   0.53960   0.68513   0.00000  Uiso   1.00
O976   O     0.83334   0.46040   0.81487   0.00000  Uiso   1.00
O977   O     0.83334   0.53960   0.81487   0.00000  Uiso   1.00
O978   O     0.83332   0.46040   0.68513   0.00000  Uiso   1.00
N979   N     0.79475   0.42167   0.88596   0.00000  Uiso   1.00
H980   H     0.77280   0.43512   0.86378   0.00000  Uiso   1.00
H981   H     0.81675   0.40190   0.86944   0.00000  Uiso   1.00
N982   N     0.87192   0.57833   0.61404   0.00000  Uiso   1.00
H983   H     0.84992   0.59810   0.63056   0.00000  Uiso   1.00
H984   H     0.89387   0.56488   0.63622   0.00000  Uiso   1.00
N985   N     0.78621   0.37881   0.96186   0.00000  Uiso   1.00
H986   H     0.75620   0.37336   0.97316   0.00000  Uiso   1.00
H987   H     0.80428   0.35057   0.97294   0.00000  Uiso   1.00
N988   N     0.88045   0.62119   0.53814   0.00000  Uiso   1.00
H989   H     0.86238   0.64943   0.52705   0.00000  Uiso   1.00
H990   H     0.91047   0.62664   0.52684   0.00000  Uiso   1.00
C991   C     0.08733   0.83334   0.74998   0.00000  Uiso   1.00
C992   C     0.24600   0.83333   0.75002   0.00000  Uiso   1.00
C993   C     0.13662   0.75629   0.52717   0.00000  Uiso   1.00
C994   C     0.19671   0.91038   0.97283   0.00000  Uiso   1.00
C995   C     0.02130   0.79068   0.75062   0.00000  Uiso   1.00
C996   C     0.31203   0.87599   0.74938   0.00000  Uiso   1.00
C997   C     0.31207   0.79067   0.75064   0.00000  Uiso   1.00
C998   C     0.02126   0.87599   0.74936   0.00000  Uiso   1.00
C999   C     0.29060   0.83333   0.75002   0.00000  Uiso   1.00
C1000  C     0.04273   0.83334   0.74998   0.00000  Uiso   1.00
C1001  C     0.14140   0.69202   0.72213   0.00000  Uiso   1.00
C1002  C     0.19193   0.97465   0.77787   0.00000  Uiso   1.00
C1003  C     0.19192   0.69098   0.77789   0.00000  Uiso   1.00
C1004  C     0.14142   0.97569   0.72211   0.00000  Uiso   1.00
C1005  C     0.16776   0.83388   0.66431   0.00000  Uiso   1.00
C1006  C     0.16557   0.83279   0.83568   0.00000  Uiso   1.00
C1007  C     0.18044   0.87006   0.90614   0.00000  Uiso   1.00
C1008  C     0.15290   0.79660   0.59386   0.00000  Uiso   1.00
C1009  C     0.16455   0.83150   0.88410   0.00000  Uiso   1.00
C1010  C     0.16879   0.83517   0.61590   0.00000  Uiso   1.00
C1011  C     0.14796   0.79288   0.90834   0.00000  Uiso   1.00
C1012  C     0.18538   0.87379   0.59166   0.00000  Uiso   1.00
C1013  C     0.14939   0.79273   0.95513   0.00000  Uiso   1.00
C1014  C     0.18394   0.87393   0.54486   0.00000  Uiso   1.00
C1015  C     0.16593   0.83256   0.97674   0.00000  Uiso   1.00
C1016  C     0.16740   0.83411   0.52326   0.00000  Uiso   1.00
C1017  C     0.18099   0.87103   0.95189   0.00000  Uiso   1.00
C1018  C     0.15234   0.79563   0.54811   0.00000  Uiso   1.00
C1019  C     0.13509   0.75415   0.98124   0.00000  Uiso   1.00
C1020  C     0.19824   0.91251   0.51876   0.00000  Uiso   1.00
Cu1021 Cu    0.16667   0.88022   0.75000   0.00000  Uiso   1.00
Cu1022 Cu    0.16667   0.78645   0.75000   0.00000  Uiso   1.00
H1023  H     0.19289   0.89961   0.88744   0.00000  Uiso   1.00
H1024  H     0.14044   0.76706   0.61256   0.00000  Uiso   1.00
H1025  H     0.12548   0.72660   0.54661   0.00000  Uiso   1.00
H1026  H     0.20786   0.94007   0.95339   0.00000  Uiso   1.00
H1027  H     0.03733   0.75733   0.75112   0.00000  Uiso   1.00
H1028  H     0.29601   0.90934   0.74888   0.00000  Uiso   1.00
H1029  H     0.29607   0.75732   0.75117   0.00000  Uiso   1.00
H1030  H     0.03726   0.90934   0.74883   0.00000  Uiso   1.00
H1031  H     0.12116   0.71119   0.69983   0.00000  Uiso   1.00
H1032  H     0.21217   0.95547   0.80016   0.00000  Uiso   1.00
H1033  H     0.21211   0.70934   0.80020   0.00000  Uiso   1.00
H1034  H     0.12122   0.95733   0.69980   0.00000  Uiso   1.00
N1035  N     0.16667   0.95069   0.75000   0.00000  Uiso   1.00
N1036  N     0.16667   0.71598   0.75000   0.00000  Uiso   1.00
O1037  O     0.10655   0.87291   0.74999   0.00000  Uiso   1.00
O1038  O     0.22679   0.79375   0.75000   0.00000  Uiso   1.00
O1039  O     0.22679   0.87291   0.75000   0.00000  Uiso   1.00
O1040  O     0.10655   0.79375   0.74999   0.00000  Uiso   1.00
O1041  O     0.16666   0.87293   0.68513   0.00000  Uiso   1.00
O1042  O     0.16668   0.79373   0.81487   0.00000  Uiso   1.00
O1043  O     0.16668   0.87293   0.81487   0.00000  Uiso   1.00
O1044  O     0.16666   0.79373   0.68513   0.00000  Uiso   1.00
N1045  N     0.12808   0.75501   0.88596   0.00000  Uiso   1.00
H1046  H     0.10613   0.76846   0.86378   0.00000  Uiso   1.00
H1047  H     0.15008   0.73523   0.86944   0.00000  Uiso   1.00
N1048  N     0.20525   0.91166   0.61404   0.00000  Uiso   1.00
H1049  H     0.18325   0.93143   0.63056   0.00000  Uiso   1.00
H1050  H     0.22720   0.89821   0.63622   0.00000  Uiso   1.00
N1051  N     0.11955   0.71214   0.96186   0.00000  Uiso   1.00
H1052  H     0.08953   0.70670   0.97316   0.00000  Uiso   1.00
H1053  H     0.13762   0.68390   0.97294   0.00000  Uiso   1.00
N1054  N     0.21379   0.95453   0.53814   0.00000  Uiso   1.00
H1055  H     0.19572   0.98276   0.52705   0.00000  Uiso   1.00
H1056  H     0.24380   0.95997   0.52684   0.00000  Uiso   1.00
C1057  C     0.42067   0.83334   0.74998   0.00000  Uiso   1.00
C1058  C     0.57933   0.83333   0.75002   0.00000  Uiso   1.00
C1059  C     0.46995   0.75629   0.52717   0.00000  Uiso   1.00
C1060  C     0.53005   0.91038   0.97283   0.00000  Uiso   1.00
C1061  C     0.35463   0.79068   0.75062   0.00000  Uiso   1.00
C1062  C     0.64537   0.87599   0.74938   0.00000  Uiso   1.00
C1063  C     0.64540   0.79067   0.75064   0.00000  Uiso   1.00
C1064  C     0.35460   0.87599   0.74936   0.00000  Uiso   1.00
C1065  C     0.62394   0.83333   0.75002   0.00000  Uiso   1.00
C1066  C     0.37606   0.83334   0.74998   0.00000  Uiso   1.00
C1067  C     0.47473   0.69202   0.72213   0.00000  Uiso   1.00
C1068  C     0.52527   0.97465   0.77787   0.00000  Uiso   1.00
C1069  C     0.52525   0.69098   0.77789   0.00000  Uiso   1.00
C1070  C     0.47475   0.97569   0.72211   0.00000  Uiso   1.00
C1071  C     0.50109   0.83388   0.66431   0.00000  Uiso   1.00
C1072  C     0.49891   0.83279   0.83568   0.00000  Uiso   1.00
C1073  C     0.51377   0.87006   0.90614   0.00000  Uiso   1.00
C1074  C     0.48623   0.79660   0.59386   0.00000  Uiso   1.00
C1075  C     0.49788   0.83150   0.88410   0.00000  Uiso   1.00
C1076  C     0.50212   0.83517   0.61590   0.00000  Uiso   1.00
C1077  C     0.48129   0.79288   0.90834   0.00000  Uiso   1.00
C1078  C     0.51871   0.87379   0.59166   0.00000  Uiso   1.00
C1079  C     0.48273   0.79273   0.95513   0.00000  Uiso   1.00
C1080  C     0.51727   0.87393   0.54486   0.00000  Uiso   1.00
C1081  C     0.49926   0.83256   0.97674   0.00000  Uiso   1.00
C1082  C     0.50074   0.83411   0.52326   0.00000  Uiso   1.00
C1083  C     0.51433   0.87103   0.95189   0.00000  Uiso   1.00
C1084  C     0.48567   0.79563   0.54811   0.00000  Uiso   1.00
C1085  C     0.46843   0.75415   0.98124   0.00000  Uiso   1.00
C1086  C     0.53157   0.91251   0.51876   0.00000  Uiso   1.00
Cu1087 Cu    0.50000   0.88022   0.75000   0.00000  Uiso   1.00
Cu1088 Cu    0.50000   0.78645   0.75000   0.00000  Uiso   1.00
H1089  H     0.52622   0.89961   0.88744   0.00000  Uiso   1.00
H1090  H     0.47378   0.76706   0.61256   0.00000  Uiso   1.00
H1091  H     0.45881   0.72660   0.54661   0.00000  Uiso   1.00
H1092  H     0.54119   0.94007   0.95339   0.00000  Uiso   1.00
H1093  H     0.37066   0.75733   0.75112   0.00000  Uiso   1.00
H1094  H     0.62934   0.90934   0.74888   0.00000  Uiso   1.00
H1095  H     0.62940   0.75732   0.75117   0.00000  Uiso   1.00
H1096  H     0.37060   0.90934   0.74883   0.00000  Uiso   1.00
H1097  H     0.45450   0.71119   0.69983   0.00000  Uiso   1.00
H1098  H     0.54550   0.95547   0.80016   0.00000  Uiso   1.00
H1099  H     0.54545   0.70934   0.80020   0.00000  Uiso   1.00
H1100  H     0.45456   0.95733   0.69980   0.00000  Uiso   1.00
N1101  N     0.50000   0.95069   0.75000   0.00000  Uiso   1.00
N1102  N     0.50000   0.71598   0.75000   0.00000  Uiso   1.00
O1103  O     0.43988   0.87291   0.74999   0.00000  Uiso   1.00
O1104  O     0.56012   0.79375   0.75000   0.00000  Uiso   1.00
O1105  O     0.56012   0.87291   0.75000   0.00000  Uiso   1.00
O1106  O     0.43988   0.79375   0.74999   0.00000  Uiso   1.00
O1107  O     0.49999   0.87293   0.68513   0.00000  Uiso   1.00
O1108  O     0.50001   0.79373   0.81487   0.00000  Uiso   1.00
O1109  O     0.50001   0.87293   0.81487   0.00000  Uiso   1.00
O1110  O     0.49999   0.79373   0.68513   0.00000  Uiso   1.00
N1111  N     0.46141   0.75501   0.88596   0.00000  Uiso   1.00
H1112  H     0.43947   0.76846   0.86378   0.00000  Uiso   1.00
H1113  H     0.48342   0.73523   0.86944   0.00000  Uiso   1.00
N1114  N     0.53859   0.91166   0.61404   0.00000  Uiso   1.00
H1115  H     0.51658   0.93143   0.63056   0.00000  Uiso   1.00
H1116  H     0.56053   0.89821   0.63622   0.00000  Uiso   1.00
N1117  N     0.45288   0.71214   0.96186   0.00000  Uiso   1.00
H1118  H     0.42287   0.70670   0.97316   0.00000  Uiso   1.00
H1119  H     0.47095   0.68390   0.97294   0.00000  Uiso   1.00
N1120  N     0.54712   0.95453   0.53814   0.00000  Uiso   1.00
H1121  H     0.52905   0.98276   0.52705   0.00000  Uiso   1.00
H1122  H     0.57713   0.95997   0.52684   0.00000  Uiso   1.00
C1123  C     0.75400   0.83334   0.74998   0.00000  Uiso   1.00
C1124  C     0.91267   0.83333   0.75002   0.00000  Uiso   1.00
C1125  C     0.80329   0.75629   0.52717   0.00000  Uiso   1.00
C1126  C     0.86338   0.91038   0.97283   0.00000  Uiso   1.00
C1127  C     0.68797   0.79068   0.75062   0.00000  Uiso   1.00
C1128  C     0.97870   0.87599   0.74938   0.00000  Uiso   1.00
C1129  C     0.97874   0.79067   0.75064   0.00000  Uiso   1.00
C1130  C     0.68793   0.87599   0.74936   0.00000  Uiso   1.00
C1131  C     0.95727   0.83333   0.75002   0.00000  Uiso   1.00
C1132  C     0.70940   0.83334   0.74998   0.00000  Uiso   1.00
C1133  C     0.80807   0.69202   0.72213   0.00000  Uiso   1.00
C1134  C     0.85860   0.97465   0.77787   0.00000  Uiso   1.00
C1135  C     0.85858   0.69098   0.77789   0.00000  Uiso   1.00
C1136  C     0.80808   0.97569   0.72211   0.00000  Uiso   1.00
C1137  C     0.83443   0.83388   0.66431   0.00000  Uiso   1.00
C1138  C     0.83224   0.83279   0.83568   0.00000  Uiso   1.00
C1139  C     0.84710   0.87006   0.90614   0.00000  Uiso   1.00
C1140  C     0.81956   0.79660   0.59386   0.00000  Uiso   1.00
C1141  C     0.83121   0.83150   0.88410   0.00000  Uiso   1.00
C1142  C     0.83545   0.83517   0.61590   0.00000  Uiso   1.00
C1143  C     0.81462   0.79288   0.90834   0.00000  Uiso   1.00
C1144  C     0.85204   0.87379   0.59166   0.00000  Uiso   1.00
C1145  C     0.81606   0.79273   0.95513   0.00000  Uiso   1.00
C1146  C     0.85061   0.87393   0.54486   0.00000  Uiso   1.00
C1147  C     0.83260   0.83256   0.97674   0.00000  Uiso   1.00
C1148  C     0.83407   0.83411   0.52326   0.00000  Uiso   1.00
C1149  C     0.84766   0.87103   0.95189   0.00000  Uiso   1.00
C1150  C     0.81901   0.79563   0.54811   0.00000  Uiso   1.00
C1151  C     0.80176   0.75415   0.98124   0.00000  Uiso   1.00
C1152  C     0.86491   0.91251   0.51876   0.00000  Uiso   1.00
Cu1153 Cu    0.83333   0.88022   0.75000   0.00000  Uiso   1.00
Cu1154 Cu    0.83333   0.78645   0.75000   0.00000  Uiso   1.00
H1155  H     0.85956   0.89961   0.88744   0.00000  Uiso   1.00
H1156  H     0.80711   0.76706   0.61256   0.00000  Uiso   1.00
H1157  H     0.79214   0.72660   0.54661   0.00000  Uiso   1.00
H1158  H     0.87452   0.94007   0.95339   0.00000  Uiso   1.00
H1159  H     0.70399   0.75733   0.75112   0.00000  Uiso   1.00
H1160  H     0.96267   0.90934   0.74888   0.00000  Uiso   1.00
H1161  H     0.96274   0.75732   0.75117   0.00000  Uiso   1.00
H1162  H     0.70393   0.90934   0.74883   0.00000  Uiso   1.00
H1163  H     0.78783   0.71119   0.69983   0.00000  Uiso   1.00
H1164  H     0.87884   0.95547   0.80016   0.00000  Uiso   1.00
H1165  H     0.87878   0.70934   0.80020   0.00000  Uiso   1.00
H1166  H     0.78789   0.95733   0.69980   0.00000  Uiso   1.00
N1167  N     0.83333   0.95069   0.75000   0.00000  Uiso   1.00
N1168  N     0.83333   0.71598   0.75000   0.00000  Uiso   1.00
O1169  O     0.77321   0.87291   0.74999   0.00000  Uiso   1.00
O1170  O     0.89345   0.79375   0.75000   0.00000  Uiso   1.00
O1171  O     0.89345   0.87291   0.75000   0.00000  Uiso   1.00
O1172  O     0.77321   0.79375   0.74999   0.00000  Uiso   1.00
O1173  O     0.83332   0.87293   0.68513   0.00000  Uiso   1.00
O1174  O     0.83334   0.79373   0.81487   0.00000  Uiso   1.00
O1175  O     0.83334   0.87293   0.81487   0.00000  Uiso   1.00
O1176  O     0.83332   0.79373   0.68513   0.00000  Uiso   1.00
N1177  N     0.79475   0.75501   0.88596   0.00000  Uiso   1.00
H1178  H     0.77280   0.76846   0.86378   0.00000  Uiso   1.00
H1179  H     0.81675   0.73523   0.86944   0.00000  Uiso   1.00
N1180  N     0.87192   0.91166   0.61404   0.00000  Uiso   1.00
H1181  H     0.84992   0.93143   0.63056   0.00000  Uiso   1.00
H1182  H     0.89387   0.89821   0.63622   0.00000  Uiso   1.00
N1183  N     0.78621   0.71214   0.96186   0.00000  Uiso   1.00
H1184  H     0.75620   0.70670   0.97316   0.00000  Uiso   1.00
H1185  H     0.80428   0.68390   0.97294   0.00000  Uiso   1.00
N1186  N     0.88045   0.95453   0.53814   0.00000  Uiso   1.00
H1187  H     0.86238   0.98276   0.52705   0.00000  Uiso   1.00
H1188  H     0.91047   0.95997   0.52684   0.00000  Uiso   1.00
loop_
_geom_bond_atom_site_label_1
_geom_bond_atom_site_label_2
_geom_bond_distance
_geom_bond_site_symmetry_2
_ccdc_geom_bond_type
C1     O50     1.289   .     A
C1     O47     1.289   .     A
C1     C10     1.450   .     S
C2     O49     1.289   .     A
C2     O48     1.289   .     A
C2     C9      1.450   .     S
C3     H35     1.085   .     S
C3     C28     1.394   .     A
C3     C623    1.394   1_554 S
C4     H36     1.085   .     S
C4     C27     1.394   .     A
C4     C624    1.394   .     S
C5     C10     1.401   .     A
C5     H37     1.083   .     S
C5     C139    1.383   1_455 S
C6     H38     1.083   .     S
C6     C9      1.401   .     A
C6     C74     1.383   .     S
C7     C9      1.401   .     A
C7     H39     1.083   .     S
C7     C71     1.383   .     S
C8     C10     1.401   .     A
C8     H40     1.083   .     S
C8     C138    1.383   1_455 S
C11    H41     1.082   .     S
C11    N46     1.367   .     A
C11    C410    1.415   1_545 S
C12    H42     1.082   .     S
C12    N45     1.367   .     A
C12    C211    1.415   .     S
C13    H43     1.082   .     S
C13    N46     1.366   .     A
C13    C408    1.415   1_545 S
C14    H44     1.082   .     S
C14    N45     1.366   .     A
C14    C209    1.415   .     S
C15    C20     1.466   .     S
C15    O51     1.289   .     A
C15    O54     1.297   .     A
C16    C19     1.466   .     S
C16    O52     1.289   .     A
C16    O53     1.297   .     A
C17    C19     1.394   .     A
C17    H33     1.085   .     S
C17    C27     1.386   .     A
C18    H34     1.085   .     S
C18    C28     1.386   .     A
C18    C20     1.394   .     A
C19    C21     1.420   .     A
C20    C22     1.420   .     A
C21    C23     1.417   .     A
C21    N55     1.437   .     S
C22    N58     1.437   .     S
C22    C24     1.417   .     A
C23    C29     1.422   .     A
C23    C25     1.424   .     A
C24    C30     1.422   .     A
C24    C26     1.424   .     A
C25    C27     1.408   .     A
C25    C620    1.411   .     S
C26    C28     1.408   .     A
C26    C619    1.411   1_554 S
C29    N61     1.434   .     S
C29    C597    1.394   .     S
C30    N64     1.434   .     S
C30    C598    1.394   1_554 S
Cu31   Cu32    2.672   .     S
Cu31   O47     1.965   .     S
Cu31   O53     1.971   .     S
Cu31   O49     1.965   .     S
Cu31   N45     2.008   .     S
Cu31   O51     1.978   .     S
Cu32   O50     1.965   .     S
Cu32   O48     1.965   .     S
Cu32   O54     1.971   .     S
Cu32   N46     2.008   .     S
Cu32   O52     1.978   .     S
N55    H56     1.046   .     S
N55    H57     1.045   .     S
N58    H60     1.046   .     S
N58    H59     1.045   .     S
N61    H62     1.046   .     S
N61    H63     1.046   .     S
N64    H65     1.046   .     S
N64    H66     1.046   .     S
C67    O116    1.289   .     A
C67    O113    1.289   .     A
C67    C76     1.450   .     S
C68    O115    1.289   .     A
C68    O114    1.289   .     A
C68    C75     1.450   .     S
C69    H101    1.085   .     S
C69    C94     1.394   .     A
C69    C689    1.394   1_554 S
C70    H102    1.085   .     S
C70    C93     1.394   .     A
C70    C690    1.394   .     S
C71    C76     1.401   .     A
C71    H103    1.083   .     S
C72    H104    1.083   .     S
C72    C75     1.401   .     A
C72    C140    1.383   .     S
C73    C75     1.401   .     A
C73    H105    1.083   .     S
C73    C137    1.383   .     S
C74    C76     1.401   .     A
C74    H106    1.083   .     S
C77    H107    1.082   .     S
C77    N112    1.367   .     A
C77    C476    1.415   1_545 S
C78    H108    1.082   .     S
C78    N111    1.367   .     A
C78    C277    1.415   .     S
C79    H109    1.082   .     S
C79    N112    1.366   .     A
C79    C474    1.415   1_545 S
C80    H110    1.082   .     S
C80    N111    1.366   .     A
C80    C275    1.415   .     S
C81    C86     1.466   .     S
C81    O117    1.289   .     A
C81    O120    1.297   .     A
C82    C85     1.466   .     S
C82    O118    1.289   .     A
C82    O119    1.297   .     A
C83    C85     1.394   .     A
C83    H99     1.085   .     S
C83    C93     1.386   .     A
C84    H100    1.085   .     S
C84    C94     1.386   .     A
C84    C86     1.394   .     A
C85    C87     1.420   .     A
C86    C88     1.420   .     A
C87    C89     1.417   .     A
C87    N121    1.437   .     S
C88    N124    1.437   .     S
C88    C90     1.417   .     A
C89    C95     1.422   .     A
C89    C91     1.424   .     A
C90    C96     1.422   .     A
C90    C92     1.424   .     A
C91    C93     1.408   .     A
C91    C686    1.411   .     S
C92    C94     1.408   .     A
C92    C685    1.411   1_554 S
C95    N127    1.434   .     S
C95    C663    1.394   .     S
C96    N130    1.434   .     S
C96    C664    1.394   1_554 S
Cu97   Cu98    2.672   .     S
Cu97   O113    1.965   .     S
Cu97   O119    1.971   .     S
Cu97   O115    1.965   .     S
Cu97   N111    2.008   .     S
Cu97   O117    1.978   .     S
Cu98   O116    1.965   .     S
Cu98   O114    1.965   .     S
Cu98   O120    1.971   .     S
Cu98   N112    2.008   .     S
Cu98   O118    1.978   .     S
N121   H122    1.046   .     S
N121   H123    1.045   .     S
N124   H126    1.046   .     S
N124   H125    1.045   .     S
N127   H128    1.046   .     S
N127   H129    1.046   .     S
N130   H131    1.046   .     S
N130   H132    1.046   .     S
C133   O182    1.289   .     A
C133   O179    1.289   .     A
C133   C142    1.450   .     S
C134   O181    1.289   .     A
C134   O180    1.289   .     A
C134   C141    1.450   .     S
C135   H167    1.085   .     S
C135   C160    1.394   .     A
C135   C755    1.394   1_554 S
C136   H168    1.085   .     S
C136   C159    1.394   .     A
C136   C756    1.394   .     S
C137   C142    1.401   .     A
C137   H169    1.083   .     S
C138   H170    1.083   .     S
C138   C141    1.401   .     A
C138   C8      1.383   1_655 S
C139   C141    1.401   .     A
C139   H171    1.083   .     S
C139   C5      1.383   1_655 S
C140   C142    1.401   .     A
C140   H172    1.083   .     S
C143   H173    1.082   .     S
C143   N178    1.367   .     A
C143   C542    1.415   1_545 S
C144   H174    1.082   .     S
C144   N177    1.367   .     A
C144   C343    1.415   .     S
C145   H175    1.082   .     S
C145   N178    1.366   .     A
C145   C540    1.415   1_545 S
C146   H176    1.082   .     S
C146   N177    1.366   .     A
C146   C341    1.415   .     S
C147   C152    1.466   .     S
C147   O183    1.289   .     A
C147   O186    1.297   .     A
C148   C151    1.466   .     S
C148   O184    1.289   .     A
C148   O185    1.297   .     A
C149   C151    1.394   .     A
C149   H165    1.085   .     S
C149   C159    1.386   .     A
C150   H166    1.085   .     S
C150   C160    1.386   .     A
C150   C152    1.394   .     A
C151   C153    1.420   .     A
C152   C154    1.420   .     A
C153   C155    1.417   .     A
C153   N187    1.437   .     S
C154   N190    1.437   .     S
C154   C156    1.417   .     A
C155   C161    1.422   .     A
C155   C157    1.424   .     A
C156   C162    1.422   .     A
C156   C158    1.424   .     A
C157   C159    1.408   .     A
C157   C752    1.411   .     S
C158   C160    1.408   .     A
C158   C751    1.411   1_554 S
C161   N193    1.434   .     S
C161   C729    1.394   .     S
C162   N196    1.434   .     S
C162   C730    1.394   1_554 S
Cu163  Cu164   2.672   .     S
Cu163  O179    1.965   .     S
Cu163  O185    1.971   .     S
Cu163  O181    1.965   .     S
Cu163  N177    2.008   .     S
Cu163  O183    1.978   .     S
Cu164  O182    1.965   .     S
Cu164  O180    1.965   .     S
Cu164  O186    1.971   .     S
Cu164  N178    2.008   .     S
Cu164  O184    1.978   .     S
N187   H188    1.046   .     S
N187   H189    1.045   .     S
N190   H192    1.046   .     S
N190   H191    1.045   .     S
N193   H194    1.046   .     S
N193   H195    1.046   .     S
N196   H197    1.046   .     S
N196   H198    1.046   .     S
C199   O248    1.289   .     A
C199   O245    1.289   .     A
C199   C208    1.450   .     S
C200   O247    1.289   .     A
C200   O246    1.289   .     A
C200   C207    1.450   .     S
C201   H233    1.085   .     S
C201   C226    1.394   .     A
C201   C821    1.394   1_554 S
C202   H234    1.085   .     S
C202   C225    1.394   .     A
C202   C822    1.394   .     S
C203   C208    1.401   .     A
C203   H235    1.083   .     S
C203   C337    1.383   1_455 S
C204   H236    1.083   .     S
C204   C207    1.401   .     A
C204   C272    1.383   .     S
C205   C207    1.401   .     A
C205   H237    1.083   .     S
C205   C269    1.383   .     S
C206   C208    1.401   .     A
C206   H238    1.083   .     S
C206   C336    1.383   1_455 S
C209   H239    1.082   .     S
C209   N244    1.367   .     A
C210   H240    1.082   .     S
C210   N243    1.367   .     A
C210   C409    1.415   .     S
C211   H241    1.082   .     S
C211   N244    1.366   .     A
C212   H242    1.082   .     S
C212   N243    1.366   .     A
C212   C407    1.415   .     S
C213   C218    1.466   .     S
C213   O249    1.289   .     A
C213   O252    1.297   .     A
C214   C217    1.466   .     S
C214   O250    1.289   .     A
C214   O251    1.297   .     A
C215   C217    1.394   .     A
C215   H231    1.085   .     S
C215   C225    1.386   .     A
C216   H232    1.085   .     S
C216   C226    1.386   .     A
C216   C218    1.394   .     A
C217   C219    1.420   .     A
C218   C220    1.420   .     A
C219   C221    1.417   .     A
C219   N253    1.437   .     S
C220   N256    1.437   .     S
C220   C222    1.417   .     A
C221   C227    1.422   .     A
C221   C223    1.424   .     A
C222   C228    1.422   .     A
C222   C224    1.424   .     A
C223   C225    1.408   .     A
C223   C818    1.411   .     S
C224   C226    1.408   .     A
C224   C817    1.411   1_554 S
C227   N259    1.434   .     S
C227   C795    1.394   .     S
C228   N262    1.434   .     S
C228   C796    1.394   1_554 S
Cu229  Cu230   2.672   .     S
Cu229  O245    1.965   .     S
Cu229  O251    1.971   .     S
Cu229  O247    1.965   .     S
Cu229  N243    2.008   .     S
Cu229  O249    1.978   .     S
Cu230  O248    1.965   .     S
Cu230  O246    1.965   .     S
Cu230  O252    1.971   .     S
Cu230  N244    2.008   .     S
Cu230  O250    1.978   .     S
N253   H254    1.046   .     S
N253   H255    1.045   .     S
N256   H258    1.046   .     S
N256   H257    1.045   .     S
N259   H260    1.046   .     S
N259   H261    1.046   .     S
N262   H263    1.046   .     S
N262   H264    1.046   .     S
C265   O314    1.289   .     A
C265   O311    1.289   .     A
C265   C274    1.450   .     S
C266   O313    1.289   .     A
C266   O312    1.289   .     A
C266   C273    1.450   .     S
C267   H299    1.085   .     S
C267   C292    1.394   .     A
C267   C887    1.394   1_554 S
C268   H300    1.085   .     S
C268   C291    1.394   .     A
C268   C888    1.394   .     S
C269   C274    1.401   .     A
C269   H301    1.083   .     S
C270   H302    1.083   .     S
C270   C273    1.401   .     A
C270   C338    1.383   .     S
C271   C273    1.401   .     A
C271   H303    1.083   .     S
C271   C335    1.383   .     S
C272   C274    1.401   .     A
C272   H304    1.083   .     S
C275   H305    1.082   .     S
C275   N310    1.367   .     A
C276   H306    1.082   .     S
C276   N309    1.367   .     A
C276   C475    1.415   .     S
C277   H307    1.082   .     S
C277   N310    1.366   .     A
C278   H308    1.082   .     S
C278   N309    1.366   .     A
C278   C473    1.415   .     S
C279   C284    1.466   .     S
C279   O315    1.289   .     A
C279   O318    1.297   .     A
C280   C283    1.466   .     S
C280   O316    1.289   .     A
C280   O317    1.297   .     A
C281   C283    1.394   .     A
C281   H297    1.085   .     S
C281   C291    1.386   .     A
C282   H298    1.085   .     S
C282   C292    1.386   .     A
C282   C284    1.394   .     A
C283   C285    1.420   .     A
C284   C286    1.420   .     A
C285   C287    1.417   .     A
C285   N319    1.437   .     S
C286   N322    1.437   .     S
C286   C288    1.417   .     A
C287   C293    1.422   .     A
C287   C289    1.424   .     A
C288   C294    1.422   .     A
C288   C290    1.424   .     A
C289   C291    1.408   .     A
C289   C884    1.411   .     S
C290   C292    1.408   .     A
C290   C883    1.411   1_554 S
C293   N325    1.434   .     S
C293   C861    1.394   .     S
C294   N328    1.434   .     S
C294   C862    1.394   1_554 S
Cu295  Cu296   2.672   .     S
Cu295  O311    1.965   .     S
Cu295  O317    1.971   .     S
Cu295  O313    1.965   .     S
Cu295  N309    2.008   .     S
Cu295  O315    1.978   .     S
Cu296  O314    1.965   .     S
Cu296  O312    1.965   .     S
Cu296  O318    1.971   .     S
Cu296  N310    2.008   .     S
Cu296  O316    1.978   .     S
N319   H320    1.046   .     S
N319   H321    1.045   .     S
N322   H324    1.046   .     S
N322   H323    1.045   .     S
N325   H326    1.046   .     S
N325   H327    1.046   .     S
N328   H329    1.046   .     S
N328   H330    1.046   .     S
C331   O380    1.289   .     A
C331   O377    1.289   .     A
C331   C340    1.450   .     S
C332   O379    1.289   .     A
C332   O378    1.289   .     A
C332   C339    1.450   .     S
C333   H365    1.085   .     S
C333   C358    1.394   .     A
C333   C953    1.394   1_554 S
C334   H366    1.085   .     S
C334   C357    1.394   .     A
C334   C954    1.394   .     S
C335   C340    1.401   .     A
C335   H367    1.083   .     S
C336   H368    1.083   .     S
C336   C339    1.401   .     A
C336   C206    1.383   1_655 S
C337   C339    1.401   .     A
C337   H369    1.083   .     S
C337   C203    1.383   1_655 S
C338   C340    1.401   .     A
C338   H370    1.083   .     S
C341   H371    1.082   .     S
C341   N376    1.367   .     A
C342   H372    1.082   .     S
C342   N375    1.367   .     A
C342   C541    1.415   .     S
C343   H373    1.082   .     S
C343   N376    1.366   .     A
C344   H374    1.082   .     S
C344   N375    1.366   .     A
C344   C539    1.415   .     S
C345   C350    1.466   .     S
C345   O381    1.289   .     A
C345   O384    1.297   .     A
C346   C349    1.466   .     S
C346   O382    1.289   .     A
C346   O383    1.297   .     A
C347   C349    1.394   .     A
C347   H363    1.085   .     S
C347   C357    1.386   .     A
C348   H364    1.085   .     S
C348   C358    1.386   .     A
C348   C350    1.394   .     A
C349   C351    1.420   .     A
C350   C352    1.420   .     A
C351   C353    1.417   .     A
C351   N385    1.437   .     S
C352   N388    1.437   .     S
C352   C354    1.417   .     A
C353   C359    1.422   .     A
C353   C355    1.424   .     A
C354   C360    1.422   .     A
C354   C356    1.424   .     A
C355   C357    1.408   .     A
C355   C950    1.411   .     S
C356   C358    1.408   .     A
C356   C949    1.411   1_554 S
C359   N391    1.434   .     S
C359   C927    1.394   .     S
C360   N394    1.434   .     S
C360   C928    1.394   1_554 S
Cu361  Cu362   2.672   .     S
Cu361  O377    1.965   .     S
Cu361  O383    1.971   .     S
Cu361  O379    1.965   .     S
Cu361  N375    2.008   .     S
Cu361  O381    1.978   .     S
Cu362  O380    1.965   .     S
Cu362  O378    1.965   .     S
Cu362  O384    1.971   .     S
Cu362  N376    2.008   .     S
Cu362  O382    1.978   .     S
N385   H386    1.046   .     S
N385   H387    1.045   .     S
N388   H390    1.046   .     S
N388   H389    1.045   .     S
N391   H392    1.046   .     S
N391   H393    1.046   .     S
N394   H395    1.046   .     S
N394   H396    1.046   .     S
C397   O446    1.289   .     A
C397   O443    1.289   .     A
C397   C406    1.450   .     S
C398   O445    1.289   .     A
C398   O444    1.289   .     A
C398   C405    1.450   .     S
C399   H431    1.085   .     S
C399   C424    1.394   .     A
C399   C1019   1.394   1_554 S
C400   H432    1.085   .     S
C400   C423    1.394   .     A
C400   C1020   1.394   .     S
C401   C406    1.401   .     A
C401   H433    1.083   .     S
C401   C535    1.383   1_455 S
C402   H434    1.083   .     S
C402   C405    1.401   .     A
C402   C470    1.383   .     S
C403   C405    1.401   .     A
C403   H435    1.083   .     S
C403   C467    1.383   .     S
C404   C406    1.401   .     A
C404   H436    1.083   .     S
C404   C534    1.383   1_455 S
C407   H437    1.082   .     S
C407   N442    1.367   .     A
C408   H438    1.082   .     S
C408   N441    1.367   .     A
C408   C13     1.415   1_565 S
C409   H439    1.082   .     S
C409   N442    1.366   .     A
C410   H440    1.082   .     S
C410   N441    1.366   .     A
C410   C11     1.415   1_565 S
C411   C416    1.466   .     S
C411   O447    1.289   .     A
C411   O450    1.297   .     A
C412   C415    1.466   .     S
C412   O448    1.289   .     A
C412   O449    1.297   .     A
C413   C415    1.394   .     A
C413   H429    1.085   .     S
C413   C423    1.386   .     A
C414   H430    1.085   .     S
C414   C424    1.386   .     A
C414   C416    1.394   .     A
C415   C417    1.420   .     A
C416   C418    1.420   .     A
C417   C419    1.417   .     A
C417   N451    1.437   .     S
C418   N454    1.437   .     S
C418   C420    1.417   .     A
C419   C425    1.422   .     A
C419   C421    1.424   .     A
C420   C426    1.422   .     A
C420   C422    1.424   .     A
C421   C423    1.408   .     A
C421   C1016   1.411   .     S
C422   C424    1.408   .     A
C422   C1015   1.411   1_554 S
C425   N457    1.434   .     S
C425   C993    1.394   .     S
C426   N460    1.434   .     S
C426   C994    1.394   1_554 S
Cu427  Cu428   2.672   .     S
Cu427  O443    1.965   .     S
Cu427  O449    1.971   .     S
Cu427  O445    1.965   .     S
Cu427  N441    2.008   .     S
Cu427  O447    1.978   .     S
Cu428  O446    1.965   .     S
Cu428  O444    1.965   .     S
Cu428  O450    1.971   .     S
Cu428  N442    2.008   .     S
Cu428  O448    1.978   .     S
N451   H452    1.046   .     S
N451   H453    1.045   .     S
N454   H456    1.046   .     S
N454   H455    1.045   .     S
N457   H458    1.046   .     S
N457   H459    1.046   .     S
N460   H461    1.046   .     S
N460   H462    1.046   .     S
C463   O512    1.289   .     A
C463   O509    1.289   .     A
C463   C472    1.450   .     S
C464   O511    1.289   .     A
C464   O510    1.289   .     A
C464   C471    1.450   .     S
C465   H497    1.085   .     S
C465   C490    1.394   .     A
C465   C1085   1.394   1_554 S
C466   H498    1.085   .     S
C466   C489    1.394   .     A
C466   C1086   1.394   .     S
C467   C472    1.401   .     A
C467   H499    1.083   .     S
C468   H500    1.083   .     S
C468   C471    1.401   .     A
C468   C536    1.383   .     S
C469   C471    1.401   .     A
C469   H501    1.083   .     S
C469   C533    1.383   .     S
C470   C472    1.401   .     A
C470   H502    1.083   .     S
C473   H503    1.082   .     S
C473   N508    1.367   .     A
C474   H504    1.082   .     S
C474   N507    1.367   .     A
C474   C79     1.415   1_565 S
C475   H505    1.082   .     S
C475   N508    1.366   .     A
C476   H506    1.082   .     S
C476   N507    1.366   .     A
C476   C77     1.415   1_565 S
C477   C482    1.466   .     S
C477   O513    1.289   .     A
C477   O516    1.297   .     A
C478   C481    1.466   .     S
C478   O514    1.289   .     A
C478   O515    1.297   .     A
C479   C481    1.394   .     A
C479   H495    1.085   .     S
C479   C489    1.386   .     A
C480   H496    1.085   .     S
C480   C490    1.386   .     A
C480   C482    1.394   .     A
C481   C483    1.420   .     A
C482   C484    1.420   .     A
C483   C485    1.417   .     A
C483   N517    1.437   .     S
C484   N520    1.437   .     S
C484   C486    1.417   .     A
C485   C491    1.422   .     A
C485   C487    1.424   .     A
C486   C492    1.422   .     A
C486   C488    1.424   .     A
C487   C489    1.408   .     A
C487   C1082   1.411   .     S
C488   C490    1.408   .     A
C488   C1081   1.411   1_554 S
C491   N523    1.434   .     S
C491   C1059   1.394   .     S
C492   N526    1.434   .     S
C492   C1060   1.394   1_554 S
Cu493  Cu494   2.672   .     S
Cu493  O509    1.965   .     S
Cu493  O515    1.971   .     S
Cu493  O511    1.965   .     S
Cu493  N507    2.008   .     S
Cu493  O513    1.978   .     S
Cu494  O512    1.965   .     S
Cu494  O510    1.965   .     S
Cu494  O516    1.971   .     S
Cu494  N508    2.008   .     S
Cu494  O514    1.978   .     S
N517   H518    1.046   .     S
N517   H519    1.045   .     S
N520   H522    1.046   .     S
N520   H521    1.045   .     S
N523   H524    1.046   .     S
N523   H525    1.046   .     S
N526   H527    1.046   .     S
N526   H528    1.046   .     S
C529   O578    1.289   .     A
C529   O575    1.289   .     A
C529   C538    1.450   .     S
C530   O577    1.289   .     A
C530   O576    1.289   .     A
C530   C537    1.450   .     S
C531   H563    1.085   .     S
C531   C556    1.394   .     A
C531   C1151   1.394   1_554 S
C532   H564    1.085   .     S
C532   C555    1.394   .     A
C532   C1152   1.394   .     S
C533   C538    1.401   .     A
C533   H565    1.083   .     S
C534   H566    1.083   .     S
C534   C537    1.401   .     A
C534   C404    1.383   1_655 S
C535   C537    1.401   .     A
C535   H567    1.083   .     S
C535   C401    1.383   1_655 S
C536   C538    1.401   .     A
C536   H568    1.083   .     S
C539   H569    1.082   .     S
C539   N574    1.367   .     A
C540   H570    1.082   .     S
C540   N573    1.367   .     A
C540   C145    1.415   1_565 S
C541   H571    1.082   .     S
C541   N574    1.366   .     A
C542   H572    1.082   .     S
C542   N573    1.366   .     A
C542   C143    1.415   1_565 S
C543   C548    1.466   .     S
C543   O579    1.289   .     A
C543   O582    1.297   .     A
C544   C547    1.466   .     S
C544   O580    1.289   .     A
C544   O581    1.297   .     A
C545   C547    1.394   .     A
C545   H561    1.085   .     S
C545   C555    1.386   .     A
C546   H562    1.085   .     S
C546   C556    1.386   .     A
C546   C548    1.394   .     A
C547   C549    1.420   .     A
C548   C550    1.420   .     A
C549   C551    1.417   .     A
C549   N583    1.437   .     S
C550   N586    1.437   .     S
C550   C552    1.417   .     A
C551   C557    1.422   .     A
C551   C553    1.424   .     A
C552   C558    1.422   .     A
C552   C554    1.424   .     A
C553   C555    1.408   .     A
C553   C1148   1.411   .     S
C554   C556    1.408   .     A
C554   C1147   1.411   1_554 S
C557   N589    1.434   .     S
C557   C1125   1.394   .     S
C558   N592    1.434   .     S
C558   C1126   1.394   1_554 S
Cu559  Cu560   2.672   .     S
Cu559  O575    1.965   .     S
Cu559  O581    1.971   .     S
Cu559  O577    1.965   .     S
Cu559  N573    2.008   .     S
Cu559  O579    1.978   .     S
Cu560  O578    1.965   .     S
Cu560  O576    1.965   .     S
Cu560  O582    1.971   .     S
Cu560  N574    2.008   .     S
Cu560  O580    1.978   .     S
N583   H584    1.046   .     S
N583   H585    1.045   .     S
N586   H588    1.046   .     S
N586   H587    1.045   .     S
N589   H590    1.046   .     S
N589   H591    1.046   .     S
N592   H593    1.046   .     S
N592   H594    1.046   .     S
C595   O644    1.289   .     A
C595   O641    1.289   .     A
C595   C604    1.450   .     S
C596   O643    1.289   .     A
C596   O642    1.289   .     A
C596   C603    1.450   .     S
C597   H629    1.085   .     S
C597   C622    1.394   .     A
C598   H630    1.085   .     S
C598   C621    1.394   .     A
C598   C30     1.394   1_556 S
C599   C604    1.401   .     A
C599   H631    1.083   .     S
C599   C733    1.383   1_455 S
C600   H632    1.083   .     S
C600   C603    1.401   .     A
C600   C668    1.383   .     S
C601   C603    1.401   .     A
C601   H633    1.083   .     S
C601   C665    1.383   .     S
C602   C604    1.401   .     A
C602   H634    1.083   .     S
C602   C732    1.383   1_455 S
C605   H635    1.082   .     S
C605   N640    1.367   .     A
C605   C1004   1.415   1_545 S
C606   H636    1.082   .     S
C606   N639    1.367   .     A
C606   C805    1.415   .     S
C607   H637    1.082   .     S
C607   N640    1.366   .     A
C607   C1002   1.415   1_545 S
C608   H638    1.082   .     S
C608   N639    1.366   .     A
C608   C803    1.415   .     S
C609   C614    1.466   .     S
C609   O645    1.289   .     A
C609   O648    1.297   .     A
C610   C613    1.466   .     S
C610   O646    1.289   .     A
C610   O647    1.297   .     A
C611   C613    1.394   .     A
C611   H627    1.085   .     S
C611   C621    1.386   .     A
C612   H628    1.085   .     S
C612   C622    1.386   .     A
C612   C614    1.394   .     A
C613   C615    1.420   .     A
C614   C616    1.420   .     A
C615   C617    1.417   .     A
C615   N649    1.437   .     S
C616   N652    1.437   .     S
C616   C618    1.417   .     A
C617   C623    1.422   .     A
C617   C619    1.424   .     A
C618   C624    1.422   .     A
C618   C620    1.424   .     A
C619   C621    1.408   .     A
C619   C26     1.411   1_556 S
C620   C622    1.408   .     A
C623   N655    1.434   .     S
C623   C3      1.394   1_556 S
C624   N658    1.434   .     S
Cu625  Cu626   2.672   .     S
Cu625  O641    1.965   .     S
Cu625  O647    1.971   .     S
Cu625  O643    1.965   .     S
Cu625  N639    2.008   .     S
Cu625  O645    1.978   .     S
Cu626  O644    1.965   .     S
Cu626  O642    1.965   .     S
Cu626  O648    1.971   .     S
Cu626  N640    2.008   .     S
Cu626  O646    1.978   .     S
N649   H650    1.046   .     S
N649   H651    1.045   .     S
N652   H654    1.046   .     S
N652   H653    1.045   .     S
N655   H656    1.046   .     S
N655   H657    1.046   .     S
N658   H659    1.046   .     S
N658   H660    1.046   .     S
C661   O710    1.289   .     A
C661   O707    1.289   .     A
C661   C670    1.450   .     S
C662   O709    1.289   .     A
C662   O708    1.289   .     A
C662   C669    1.450   .     S
C663   H695    1.085   .     S
C663   C688    1.394   .     A
C664   H696    1.085   .     S
C664   C687    1.394   .     A
C664   C96     1.394   1_556 S
C665   C670    1.401   .     A
C665   H697    1.083   .     S
C666   H698    1.083   .     S
C666   C669    1.401   .     A
C666   C734    1.383   .     S
C667   C669    1.401   .     A
C667   H699    1.083   .     S
C667   C731    1.383   .     S
C668   C670    1.401   .     A
C668   H700    1.083   .     S
C671   H701    1.082   .     S
C671   N706    1.367   .     A
C671   C1070   1.415   1_545 S
C672   H702    1.082   .     S
C672   N705    1.367   .     A
C672   C871    1.415   .     S
C673   H703    1.082   .     S
C673   N706    1.366   .     A
C673   C1068   1.415   1_545 S
C674   H704    1.082   .     S
C674   N705    1.366   .     A
C674   C869    1.415   .     S
C675   C680    1.466   .     S
C675   O711    1.289   .     A
C675   O714    1.297   .     A
C676   C679    1.466   .     S
C676   O712    1.289   .     A
C676   O713    1.297   .     A
C677   C679    1.394   .     A
C677   H693    1.085   .     S
C677   C687    1.386   .     A
C678   H694    1.085   .     S
C678   C688    1.386   .     A
C678   C680    1.394   .     A
C679   C681    1.420   .     A
C680   C682    1.420   .     A
C681   C683    1.417   .     A
C681   N715    1.437   .     S
C682   N718    1.437   .     S
C682   C684    1.417   .     A
C683   C689    1.422   .     A
C683   C685    1.424   .     A
C684   C690    1.422   .     A
C684   C686    1.424   .     A
C685   C687    1.408   .     A
C685   C92     1.411   1_556 S
C686   C688    1.408   .     A
C689   N721    1.434   .     S
C689   C69     1.394   1_556 S
C690   N724    1.434   .     S
Cu691  Cu692   2.672   .     S
Cu691  O707    1.965   .     S
Cu691  O713    1.971   .     S
Cu691  O709    1.965   .     S
Cu691  N705    2.008   .     S
Cu691  O711    1.978   .     S
Cu692  O710    1.965   .     S
Cu692  O708    1.965   .     S
Cu692  O714    1.971   .     S
Cu692  N706    2.008   .     S
Cu692  O712    1.978   .     S
N715   H716    1.046   .     S
N715   H717    1.045   .     S
N718   H720    1.046   .     S
N718   H719    1.045   .     S
N721   H722    1.046   .     S
N721   H723    1.046   .     S
N724   H725    1.046   .     S
N724   H726    1.046   .     S
C727   O776    1.289   .     A
C727   O773    1.289   .     A
C727   C736    1.450   .     S
C728   O775    1.289   .     A
C728   O774    1.289   .     A
C728   C735    1.450   .     S
C729   H761    1.085   .     S
C729   C754    1.394   .     A
C730   H762    1.085   .     S
C730   C753    1.394   .     A
C730   C162    1.394   1_556 S
C731   C736    1.401   .     A
C731   H763    1.083   .     S
C732   H764    1.083   .     S
C732   C735    1.401   .     A
C732   C602    1.383   1_655 S
C733   C735    1.401   .     A
C733   H765    1.083   .     S
C733   C599    1.383   1_655 S
C734   C736    1.401   .     A
C734   H766    1.083   .     S
C737   H767    1.082   .     S
C737   N772    1.367   .     A
C737   C1136   1.415   1_545 S
C738   H768    1.082   .     S
C738   N771    1.367   .     A
C738   C937    1.415   .     S
C739   H769    1.082   .     S
C739   N772    1.366   .     A
C739   C1134   1.415   1_545 S
C740   H770    1.082   .     S
C740   N771    1.366   .     A
C740   C935    1.415   .     S
C741   C746    1.466   .     S
C741   O777    1.289   .     A
C741   O780    1.297   .     A
C742   C745    1.466   .     S
C742   O778    1.289   .     A
C742   O779    1.297   .     A
C743   C745    1.394   .     A
C743   H759    1.085   .     S
C743   C753    1.386   .     A
C744   H760    1.085   .     S
C744   C754    1.386   .     A
C744   C746    1.394   .     A
C745   C747    1.420   .     A
C746   C748    1.420   .     A
C747   C749    1.417   .     A
C747   N781    1.437   .     S
C748   N784    1.437   .     S
C748   C750    1.417   .     A
C749   C755    1.422   .     A
C749   C751    1.424   .     A
C750   C756    1.422   .     A
C750   C752    1.424   .     A
C751   C753    1.408   .     A
C751   C158    1.411   1_556 S
C752   C754    1.408   .     A
C755   N787    1.434   .     S
C755   C135    1.394   1_556 S
C756   N790    1.434   .     S
Cu757  Cu758   2.672   .     S
Cu757  O773    1.965   .     S
Cu757  O779    1.971   .     S
Cu757  O775    1.965   .     S
Cu757  N771    2.008   .     S
Cu757  O777    1.978   .     S
Cu758  O776    1.965   .     S
Cu758  O774    1.965   .     S
Cu758  O780    1.971   .     S
Cu758  N772    2.008   .     S
Cu758  O778    1.978   .     S
N781   H782    1.046   .     S
N781   H783    1.045   .     S
N784   H786    1.046   .     S
N784   H785    1.045   .     S
N787   H788    1.046   .     S
N787   H789    1.046   .     S
N790   H791    1.046   .     S
N790   H792    1.046   .     S
C793   O842    1.289   .     A
C793   O839    1.289   .     A
C793   C802    1.450   .     S
C794   O841    1.289   .     A
C794   O840    1.289   .     A
C794   C801    1.450   .     S
C795   H827    1.085   .     S
C795   C820    1.394   .     A
C796   H828    1.085   .     S
C796   C819    1.394   .     A
C796   C228    1.394   1_556 S
C797   C802    1.401   .     A
C797   H829    1.083   .     S
C797   C931    1.383   1_455 S
C798   H830    1.083   .     S
C798   C801    1.401   .     A
C798   C866    1.383   .     S
C799   C801    1.401   .     A
C799   H831    1.083   .     S
C799   C863    1.383   .     S
C800   C802    1.401   .     A
C800   H832    1.083   .     S
C800   C930    1.383   1_455 S
C803   H833    1.082   .     S
C803   N838    1.367   .     A
C804   H834    1.082   .     S
C804   N837    1.367   .     A
C804   C1003   1.415   .     S
C805   H835    1.082   .     S
C805   N838    1.366   .     A
C806   H836    1.082   .     S
C806   N837    1.366   .     A
C806   C1001   1.415   .     S
C807   C812    1.466   .     S
C807   O843    1.289   .     A
C807   O846    1.297   .     A
C808   C811    1.466   .     S
C808   O844    1.289   .     A
C808   O845    1.297   .     A
C809   C811    1.394   .     A
C809   H825    1.085   .     S
C809   C819    1.386   .     A
C810   H826    1.085   .     S
C810   C820    1.386   .     A
C810   C812    1.394   .     A
C811   C813    1.420   .     A
C812   C814    1.420   .     A
C813   C815    1.417   .     A
C813   N847    1.437   .     S
C814   N850    1.437   .     S
C814   C816    1.417   .     A
C815   C821    1.422   .     A
C815   C817    1.424   .     A
C816   C822    1.422   .     A
C816   C818    1.424   .     A
C817   C819    1.408   .     A
C817   C224    1.411   1_556 S
C818   C820    1.408   .     A
C821   N853    1.434   .     S
C821   C201    1.394   1_556 S
C822   N856    1.434   .     S
Cu823  Cu824   2.672   .     S
Cu823  O839    1.965   .     S
Cu823  O845    1.971   .     S
Cu823  O841    1.965   .     S
Cu823  N837    2.008   .     S
Cu823  O843    1.978   .     S
Cu824  O842    1.965   .     S
Cu824  O840    1.965   .     S
Cu824  O846    1.971   .     S
Cu824  N838    2.008   .     S
Cu824  O844    1.978   .     S
N847   H848    1.046   .     S
N847   H849    1.045   .     S
N850   H852    1.046   .     S
N850   H851    1.045   .     S
N853   H854    1.046   .     S
N853   H855    1.046   .     S
N856   H857    1.046   .     S
N856   H858    1.046   .     S
C859   O908    1.289   .     A
C859   O905    1.289   .     A
C859   C868    1.450   .     S
C860   O907    1.289   .     A
C860   O906    1.289   .     A
C860   C867    1.450   .     S
C861   H893    1.085   .     S
C861   C886    1.394   .     A
C862   H894    1.085   .     S
C862   C885    1.394   .     A
C862   C294    1.394   1_556 S
C863   C868    1.401   .     A
C863   H895    1.083   .     S
C864   H896    1.083   .     S
C864   C867    1.401   .     A
C864   C932    1.383   .     S
C865   C867    1.401   .     A
C865   H897    1.083   .     S
C865   C929    1.383   .     S
C866   C868    1.401   .     A
C866   H898    1.083   .     S
C869   H899    1.082   .     S
C869   N904    1.367   .     A
C870   H900    1.082   .     S
C870   N903    1.367   .     A
C870   C1069   1.415   .     S
C871   H901    1.082   .     S
C871   N904    1.366   .     A
C872   H902    1.082   .     S
C872   N903    1.366   .     A
C872   C1067   1.415   .     S
C873   C878    1.466   .     S
C873   O909    1.289   .     A
C873   O912    1.297   .     A
C874   C877    1.466   .     S
C874   O910    1.289   .     A
C874   O911    1.297   .     A
C875   C877    1.394   .     A
C875   H891    1.085   .     S
C875   C885    1.386   .     A
C876   H892    1.085   .     S
C876   C886    1.386   .     A
C876   C878    1.394   .     A
C877   C879    1.420   .     A
C878   C880    1.420   .     A
C879   C881    1.417   .     A
C879   N913    1.437   .     S
C880   N916    1.437   .     S
C880   C882    1.417   .     A
C881   C887    1.422   .     A
C881   C883    1.424   .     A
C882   C888    1.422   .     A
C882   C884    1.424   .     A
C883   C885    1.408   .     A
C883   C290    1.411   1_556 S
C884   C886    1.408   .     A
C887   N919    1.434   .     S
C887   C267    1.394   1_556 S
C888   N922    1.434   .     S
Cu889  Cu890   2.672   .     S
Cu889  O905    1.965   .     S
Cu889  O911    1.971   .     S
Cu889  O907    1.965   .     S
Cu889  N903    2.008   .     S
Cu889  O909    1.978   .     S
Cu890  O908    1.965   .     S
Cu890  O906    1.965   .     S
Cu890  O912    1.971   .     S
Cu890  N904    2.008   .     S
Cu890  O910    1.978   .     S
N913   H914    1.046   .     S
N913   H915    1.045   .     S
N916   H918    1.046   .     S
N916   H917    1.045   .     S
N919   H920    1.046   .     S
N919   H921    1.046   .     S
N922   H923    1.046   .     S
N922   H924    1.046   .     S
C925   O974    1.289   .     A
C925   O971    1.289   .     A
C925   C934    1.450   .     S
C926   O973    1.289   .     A
C926   O972    1.289   .     A
C926   C933    1.450   .     S
C927   H959    1.085   .     S
C927   C952    1.394   .     A
C928   H960    1.085   .     S
C928   C951    1.394   .     A
C928   C360    1.394   1_556 S
C929   C934    1.401   .     A
C929   H961    1.083   .     S
C930   H962    1.083   .     S
C930   C933    1.401   .     A
C930   C800    1.383   1_655 S
C931   C933    1.401   .     A
C931   H963    1.083   .     S
C931   C797    1.383   1_655 S
C932   C934    1.401   .     A
C932   H964    1.083   .     S
C935   H965    1.082   .     S
C935   N970    1.367   .     A
C936   H966    1.082   .     S
C936   N969    1.367   .     A
C936   C1135   1.415   .     S
C937   H967    1.082   .     S
C937   N970    1.366   .     A
C938   H968    1.082   .     S
C938   N969    1.366   .     A
C938   C1133   1.415   .     S
C939   C944    1.466   .     S
C939   O975    1.289   .     A
C939   O978    1.297   .     A
C940   C943    1.466   .     S
C940   O976    1.289   .     A
C940   O977    1.297   .     A
C941   C943    1.394   .     A
C941   H957    1.085   .     S
C941   C951    1.386   .     A
C942   H958    1.085   .     S
C942   C952    1.386   .     A
C942   C944    1.394   .     A
C943   C945    1.420   .     A
C944   C946    1.420   .     A
C945   C947    1.417   .     A
C945   N979    1.437   .     S
C946   N982    1.437   .     S
C946   C948    1.417   .     A
C947   C953    1.422   .     A
C947   C949    1.424   .     A
C948   C954    1.422   .     A
C948   C950    1.424   .     A
C949   C951    1.408   .     A
C949   C356    1.411   1_556 S
C950   C952    1.408   .     A
C953   N985    1.434   .     S
C953   C333    1.394   1_556 S
C954   N988    1.434   .     S
Cu955  Cu956   2.672   .     S
Cu955  O971    1.965   .     S
Cu955  O977    1.971   .     S
Cu955  O973    1.965   .     S
Cu955  N969    2.008   .     S
Cu955  O975    1.978   .     S
Cu956  O974    1.965   .     S
Cu956  O972    1.965   .     S
Cu956  O978    1.971   .     S
Cu956  N970    2.008   .     S
Cu956  O976    1.978   .     S
N979   H980    1.046   .     S
N979   H981    1.045   .     S
N982   H984    1.046   .     S
N982   H983    1.045   .     S
N985   H986    1.046   .     S
N985   H987    1.046   .     S
N988   H989    1.046   .     S
N988   H990    1.046   .     S
C991   O1040   1.289   .     A
C991   O1037   1.289   .     A
C991   C1000   1.450   .     S
C992   O1039   1.289   .     A
C992   O1038   1.289   .     A
C992   C999    1.450   .     S
C993   H1025   1.085   .     S
C993   C1018   1.394   .     A
C994   H1026   1.085   .     S
C994   C1017   1.394   .     A
C994   C426    1.394   1_556 S
C995   C1000   1.401   .     A
C995   H1027   1.083   .     S
C995   C1129   1.383   1_455 S
C996   H1028   1.083   .     S
C996   C999    1.401   .     A
C996   C1064   1.383   .     S
C997   C999    1.401   .     A
C997   H1029   1.083   .     S
C997   C1061   1.383   .     S
C998   C1000   1.401   .     A
C998   H1030   1.083   .     S
C998   C1128   1.383   1_455 S
C1001  H1031   1.082   .     S
C1001  N1036   1.367   .     A
C1002  H1032   1.082   .     S
C1002  N1035   1.367   .     A
C1002  C607    1.415   1_565 S
C1003  H1033   1.082   .     S
C1003  N1036   1.366   .     A
C1004  H1034   1.082   .     S
C1004  N1035   1.366   .     A
C1004  C605    1.415   1_565 S
C1005  C1010   1.466   .     S
C1005  O1041   1.289   .     A
C1005  O1044   1.297   .     A
C1006  C1009   1.466   .     S
C1006  O1042   1.289   .     A
C1006  O1043   1.297   .     A
C1007  C1009   1.394   .     A
C1007  H1023   1.085   .     S
C1007  C1017   1.386   .     A
C1008  H1024   1.085   .     S
C1008  C1018   1.386   .     A
C1008  C1010   1.394   .     A
C1009  C1011   1.420   .     A
C1010  C1012   1.420   .     A
C1011  C1013   1.417   .     A
C1011  N1045   1.437   .     S
C1012  N1048   1.437   .     S
C1012  C1014   1.417   .     A
C1013  C1019   1.422   .     A
C1013  C1015   1.424   .     A
C1014  C1020   1.422   .     A
C1014  C1016   1.424   .     A
C1015  C1017   1.408   .     A
C1015  C422    1.411   1_556 S
C1016  C1018   1.408   .     A
C1019  N1051   1.434   .     S
C1019  C399    1.394   1_556 S
C1020  N1054   1.434   .     S
Cu1021 Cu1022  2.672   .     S
Cu1021 O1037   1.965   .     S
Cu1021 O1043   1.971   .     S
Cu1021 O1039   1.965   .     S
Cu1021 N1035   2.008   .     S
Cu1021 O1041   1.978   .     S
Cu1022 O1040   1.965   .     S
Cu1022 O1038   1.965   .     S
Cu1022 O1044   1.971   .     S
Cu1022 N1036   2.008   .     S
Cu1022 O1042   1.978   .     S
N1045  H1046   1.046   .     S
N1045  H1047   1.045   .     S
N1048  H1050   1.046   .     S
N1048  H1049   1.045   .     S
N1051  H1052   1.046   .     S
N1051  H1053   1.046   .     S
N1054  H1055   1.046   .     S
N1054  H1056   1.046   .     S
C1057  O1106   1.289   .     A
C1057  O1103   1.289   .     A
C1057  C1066   1.450   .     S
C1058  O1105   1.289   .     A
C1058  O1104   1.289   .     A
C1058  C1065   1.450   .     S
C1059  H1091   1.085   .     S
C1059  C1084   1.394   .     A
C1060  H1092   1.085   .     S
C1060  C1083   1.394   .     A
C1060  C492    1.394   1_556 S
C1061  C1066   1.401   .     A
C1061  H1093   1.083   .     S
C1062  H1094   1.083   .     S
C1062  C1065   1.401   .     A
C1062  C1130   1.383   .     S
C1063  C1065   1.401   .     A
C1063  H1095   1.083   .     S
C1063  C1127   1.383   .     S
C1064  C1066   1.401   .     A
C1064  H1096   1.083   .     S
C1067  H1097   1.082   .     S
C1067  N1102   1.367   .     A
C1068  H1098   1.082   .     S
C1068  N1101   1.367   .     A
C1068  C673    1.415   1_565 S
C1069  H1099   1.082   .     S
C1069  N1102   1.366   .     A
C1070  H1100   1.082   .     S
C1070  N1101   1.366   .     A
C1070  C671    1.415   1_565 S
C1071  C1076   1.466   .     S
C1071  O1107   1.289   .     A
C1071  O1110   1.297   .     A
C1072  C1075   1.466   .     S
C1072  O1108   1.289   .     A
C1072  O1109   1.297   .     A
C1073  C1075   1.394   .     A
C1073  H1089   1.085   .     S
C1073  C1083   1.386   .     A
C1074  H1090   1.085   .     S
C1074  C1084   1.386   .     A
C1074  C1076   1.394   .     A
C1075  C1077   1.420   .     A
C1076  C1078   1.420   .     A
C1077  C1079   1.417   .     A
C1077  N1111   1.437   .     S
C1078  N1114   1.437   .     S
C1078  C1080   1.417   .     A
C1079  C1085   1.422   .     A
C1079  C1081   1.424   .     A
C1080  C1086   1.422   .     A
C1080  C1082   1.424   .     A
C1081  C1083   1.408   .     A
C1081  C488    1.411   1_556 S
C1082  C1084   1.408   .     A
C1085  N1117   1.434   .     S
C1085  C465    1.394   1_556 S
C1086  N1120   1.434   .     S
Cu1087 Cu1088  2.672   .     S
Cu1087 O1103   1.965   .     S
Cu1087 O1109   1.971   .     S
Cu1087 O1105   1.965   .     S
Cu1087 N1101   2.008   .     S
Cu1087 O1107   1.978   .     S
Cu1088 O1106   1.965   .     S
Cu1088 O1104   1.965   .     S
Cu1088 O1110   1.971   .     S
Cu1088 N1102   2.008   .     S
Cu1088 O1108   1.978   .     S
N1111  H1112   1.046   .     S
N1111  H1113   1.045   .     S
N1114  H1116   1.046   .     S
N1114  H1115   1.045   .     S
N1117  H1118   1.046   .     S
N1117  H1119   1.046   .     S
N1120  H1121   1.046   .     S
N1120  H1122   1.046   .     S
C1123  O1172   1.289   .     A
C1123  O1169   1.289   .     A
C1123  C1132   1.450   .     S
C1124  O1171   1.289   .     A
C1124  O1170   1.289   .     A
C1124  C1131   1.450   .     S
C1125  H1157   1.085   .     S
C1125  C1150   1.394   .     A
C1126  H1158   1.085   .     S
C1126  C1149   1.394   .     A
C1126  C558    1.394   1_556 S
C1127  C1132   1.401   .     A
C1127  H1159   1.083   .     S
C1128  H1160   1.083   .     S
C1128  C1131   1.401   .     A
C1128  C998    1.383   1_655 S
C1129  C1131   1.401   .     A
C1129  H1161   1.083   .     S
C1129  C995    1.383   1_655 S
C1130  C1132   1.401   .     A
C1130  H1162   1.083   .     S
C1133  H1163   1.082   .     S
C1133  N1168   1.367   .     A
C1134  H1164   1.082   .     S
C1134  N1167   1.367   .     A
C1134  C739    1.415   1_565 S
C1135  H1165   1.082   .     S
C1135  N1168   1.366   .     A
C1136  H1166   1.082   .     S
C1136  N1167   1.366   .     A
C1136  C737    1.415   1_565 S
C1137  C1142   1.466   .     S
C1137  O1173   1.289   .     A
C1137  O1176   1.297   .     A
C1138  C1141   1.466   .     S
C1138  O1174   1.289   .     A
C1138  O1175   1.297   .     A
C1139  C1141   1.394   .     A
C1139  H1155   1.085   .     S
C1139  C1149   1.386   .     A
C1140  H1156   1.085   .     S
C1140  C1150   1.386   .     A
C1140  C1142   1.394   .     A
C1141  C1143   1.420   .     A
C1142  C1144   1.420   .     A
C1143  C1145   1.417   .     A
C1143  N1177   1.437   .     S
C1144  N1180   1.437   .     S
C1144  C1146   1.417   .     A
C1145  C1151   1.422   .     A
C1145  C1147   1.424   .     A
C1146  C1152   1.422   .     A
C1146  C1148   1.424   .     A
C1147  C1149   1.408   .     A
C1147  C554    1.411   1_556 S
C1148  C1150   1.408   .     A
C1151  N1183   1.434   .     S
C1151  C531    1.394   1_556 S
C1152  N1186   1.434   .     S
Cu1153 Cu1154  2.672   .     S
Cu1153 O1169   1.965   .     S
Cu1153 O1175   1.971   .     S
Cu1153 O1171   1.965   .     S
Cu1153 N1167   2.008   .     S
Cu1153 O1173   1.978   .     S
Cu1154 O1172   1.965   .     S
Cu1154 O1170   1.965   .     S
Cu1154 O1176   1.971   .     S
Cu1154 N1168   2.008   .     S
Cu1154 O1174   1.978   .     S
N1177  H1178   1.046   .     S
N1177  H1179   1.045   .     S
N1180  H1182   1.046   .     S
N1180  H1181   1.045   .     S
N1183  H1184   1.046   .     S
N1183  H1185   1.046   .     S
N1186  H1187   1.046   .     S
N1186  H1188   1.046   .     S
