data_str_m1_o10_o16_pcu_sym.115
_audit_creation_date              2020-01-03
_audit_creation_method            'Materials Studio'
_symmetry_space_group_name_H-M    'P1'
_symmetry_Int_Tables_number       1
_symmetry_cell_setting            triclinic
loop_
_symmetry_equiv_pos_as_xyz
  x,y,z
_cell_length_a                    32.5327
_cell_length_b                    32.5943
_cell_length_c                    30.9974
_cell_angle_alpha                 97.0056
_cell_angle_beta                  74.9821
_cell_angle_gamma                 98.6072
loop_
_atom_site_label
_atom_site_type_symbol
_atom_site_fract_x
_atom_site_fract_y
_atom_site_fract_z
_atom_site_U_iso_or_equiv
_atom_site_adp_type
_atom_site_occupancy
C1     C     0.05269   0.15956   0.25998   0.00000  Uiso   1.00
C2     C     0.18032   0.16594   0.05671   0.00000  Uiso   1.00
C3     C     0.19567   0.09709   0.06318   0.00000  Uiso   1.00
C4     C     0.28071   0.17379   0.24007   0.00000  Uiso   1.00
C5     C     0.14352   0.19548   0.41979   0.00000  Uiso   1.00
C6     C     0.32654   0.17659   0.23619   0.00000  Uiso   1.00
C7     C     0.00743   0.15694   0.26374   0.00000  Uiso   1.00
C8     C     0.18011   0.32241   0.23726   0.00000  Uiso   1.00
C9     C     0.15118   0.01202   0.26391   0.00000  Uiso   1.00
C10    C     0.15621   0.05590   0.25995   0.00000  Uiso   1.00
C11    C     0.17643   0.27786   0.24033   0.00000  Uiso   1.00
C12    C     0.14364   0.25020   0.48031   0.00000  Uiso   1.00
C13    C     0.18516   0.14768   0.12933   0.00000  Uiso   1.00
C14    C     0.14845   0.18475   0.37104   0.00000  Uiso   1.00
C15    C     0.18664   0.08301   0.02204   0.00000  Uiso   1.00
C16    C     0.19090   0.13794   0.08120   0.00000  Uiso   1.00
C17    C     0.13927   0.23727   0.43694   0.00000  Uiso   1.00
C18    C     0.15427   0.22317   0.00572   0.00000  Uiso   1.00
C19    C     0.15829   0.18097   0.48992   0.00000  Uiso   1.00
C20    C     0.14923   0.16628   0.44782   0.00000  Uiso   1.00
C21    C     0.17081   0.15304   0.01479   0.00000  Uiso   1.00
C22    C     0.17321   0.11054   0.49770   0.00000  Uiso   1.00
C23    C     0.16059   0.09612   0.45789   0.00000  Uiso   1.00
C24    C     0.14561   0.12292   0.43496   0.00000  Uiso   1.00
F25    F     0.20553   0.06967   0.08754   0.00000  Uiso   1.00
F26    F     0.11647   0.32882   0.29450   0.00000  Uiso   1.00
F27    F     0.16227   0.05576   0.44095   0.00000  Uiso   1.00
H28    H     0.31919   0.13865   0.28935   0.00000  Uiso   1.00
H29    H     0.20703   0.00356   0.21281   0.00000  Uiso   1.00
H30    H     0.17692   0.19674   0.07308   0.00000  Uiso   1.00
H31    H     0.15879   0.23670   0.03781   0.00000  Uiso   1.00
H32    H     0.14063   0.28213   0.49396   0.00000  Uiso   1.00
H33    H     0.01549   0.19470   0.21080   0.00000  Uiso   1.00
H34    H     0.15902   0.02895   0.00876   0.00000  Uiso   1.00
H35    H     0.13091   0.29322   0.42723   0.00000  Uiso   1.00
H36    H     0.12256   0.07625   0.39809   0.00000  Uiso   1.00
O37    O     0.16667   0.16667   0.25000   0.00000  Uiso   1.00
O38    O     0.15451   0.12637   0.15459   0.00000  Uiso   1.00
O39    O     0.12940   0.20391   0.34968   0.00000  Uiso   1.00
O40    O     0.20824   0.17759   0.14606   0.00000  Uiso   1.00
O41    O     0.17451   0.15880   0.34968   0.00000  Uiso   1.00
O42    O     0.18889   0.04160   0.00784   0.00000  Uiso   1.00
O43    O     0.13269   0.26546   0.41020   0.00000  Uiso   1.00
O44    O     0.12472   0.10704   0.40171   0.00000  Uiso   1.00
O45    O     0.17930   0.08019   0.28214   0.00000  Uiso   1.00
O46    O     0.14632   0.26085   0.27014   0.00000  Uiso   1.00
O47    O     0.07412   0.13291   0.23413   0.00000  Uiso   1.00
O48    O     0.26693   0.19272   0.21361   0.00000  Uiso   1.00
O49    O     0.07071   0.18878   0.28213   0.00000  Uiso   1.00
O50    O     0.25491   0.15226   0.27014   0.00000  Uiso   1.00
O51    O     0.13760   0.06944   0.23413   0.00000  Uiso   1.00
O52    O     0.20345   0.25620   0.21361   0.00000  Uiso   1.00
Zn53   Zn    0.19338   0.13994   0.28734   0.00000  Uiso   1.00
Zn54   Zn    0.13379   0.12458   0.21876   0.00000  Uiso   1.00
Zn55   Zn    0.21056   0.19775   0.20657   0.00000  Uiso   1.00
Zn56   Zn    0.12893   0.20439   0.28734   0.00000  Uiso   1.00
C57    C     0.38602   0.15956   0.25998   0.00000  Uiso   1.00
C58    C     0.51365   0.16594   0.05671   0.00000  Uiso   1.00
C59    C     0.52900   0.09709   0.06318   0.00000  Uiso   1.00
C60    C     0.61404   0.17379   0.24007   0.00000  Uiso   1.00
C61    C     0.47685   0.19548   0.41979   0.00000  Uiso   1.00
C62    C     0.65987   0.17659   0.23619   0.00000  Uiso   1.00
C63    C     0.34077   0.15694   0.26374   0.00000  Uiso   1.00
C64    C     0.51345   0.32241   0.23726   0.00000  Uiso   1.00
C65    C     0.48452   0.01202   0.26391   0.00000  Uiso   1.00
C66    C     0.48954   0.05590   0.25995   0.00000  Uiso   1.00
C67    C     0.50977   0.27786   0.24033   0.00000  Uiso   1.00
C68    C     0.47697   0.25020   0.48031   0.00000  Uiso   1.00
C69    C     0.51849   0.14768   0.12933   0.00000  Uiso   1.00
C70    C     0.48179   0.18475   0.37104   0.00000  Uiso   1.00
C71    C     0.51997   0.08301   0.02204   0.00000  Uiso   1.00
C72    C     0.52424   0.13794   0.08120   0.00000  Uiso   1.00
C73    C     0.47260   0.23727   0.43694   0.00000  Uiso   1.00
C74    C     0.48760   0.22317   0.00572   0.00000  Uiso   1.00
C75    C     0.49162   0.18097   0.48992   0.00000  Uiso   1.00
C76    C     0.48256   0.16628   0.44782   0.00000  Uiso   1.00
C77    C     0.50414   0.15304   0.01479   0.00000  Uiso   1.00
C78    C     0.50655   0.11054   0.49770   0.00000  Uiso   1.00
C79    C     0.49393   0.09612   0.45789   0.00000  Uiso   1.00
C80    C     0.47894   0.12292   0.43496   0.00000  Uiso   1.00
F81    F     0.53887   0.06967   0.08754   0.00000  Uiso   1.00
F82    F     0.44980   0.32882   0.29450   0.00000  Uiso   1.00
F83    F     0.49561   0.05576   0.44095   0.00000  Uiso   1.00
H84    H     0.65252   0.13865   0.28935   0.00000  Uiso   1.00
H85    H     0.54036   0.00356   0.21281   0.00000  Uiso   1.00
H86    H     0.51025   0.19674   0.07308   0.00000  Uiso   1.00
H87    H     0.49213   0.23670   0.03781   0.00000  Uiso   1.00
H88    H     0.47397   0.28213   0.49396   0.00000  Uiso   1.00
H89    H     0.34883   0.19470   0.21080   0.00000  Uiso   1.00
H90    H     0.49236   0.02895   0.00876   0.00000  Uiso   1.00
H91    H     0.46425   0.29322   0.42723   0.00000  Uiso   1.00
H92    H     0.45589   0.07625   0.39809   0.00000  Uiso   1.00
O93    O     0.50000   0.16667   0.25000   0.00000  Uiso   1.00
O94    O     0.48784   0.12637   0.15459   0.00000  Uiso   1.00
O95    O     0.46274   0.20391   0.34968   0.00000  Uiso   1.00
O96    O     0.54157   0.17759   0.14606   0.00000  Uiso   1.00
O97    O     0.50785   0.15880   0.34968   0.00000  Uiso   1.00
O98    O     0.52223   0.04160   0.00784   0.00000  Uiso   1.00
O99    O     0.46602   0.26546   0.41020   0.00000  Uiso   1.00
O100   O     0.45805   0.10704   0.40171   0.00000  Uiso   1.00
O101   O     0.51264   0.08019   0.28214   0.00000  Uiso   1.00
O102   O     0.47965   0.26085   0.27014   0.00000  Uiso   1.00
O103   O     0.40745   0.13291   0.23413   0.00000  Uiso   1.00
O104   O     0.60026   0.19272   0.21361   0.00000  Uiso   1.00
O105   O     0.40405   0.18878   0.28213   0.00000  Uiso   1.00
O106   O     0.58824   0.15226   0.27014   0.00000  Uiso   1.00
O107   O     0.47093   0.06944   0.23413   0.00000  Uiso   1.00
O108   O     0.53678   0.25620   0.21361   0.00000  Uiso   1.00
Zn109  Zn    0.52672   0.13994   0.28734   0.00000  Uiso   1.00
Zn110  Zn    0.46713   0.12458   0.21876   0.00000  Uiso   1.00
Zn111  Zn    0.54389   0.19775   0.20657   0.00000  Uiso   1.00
Zn112  Zn    0.46226   0.20439   0.28734   0.00000  Uiso   1.00
C113   C     0.71936   0.15956   0.25998   0.00000  Uiso   1.00
C114   C     0.84698   0.16594   0.05671   0.00000  Uiso   1.00
C115   C     0.86233   0.09709   0.06318   0.00000  Uiso   1.00
C116   C     0.94738   0.17379   0.24007   0.00000  Uiso   1.00
C117   C     0.81019   0.19548   0.41979   0.00000  Uiso   1.00
C118   C     0.99321   0.17659   0.23619   0.00000  Uiso   1.00
C119   C     0.67410   0.15694   0.26374   0.00000  Uiso   1.00
C120   C     0.84678   0.32241   0.23726   0.00000  Uiso   1.00
C121   C     0.81785   0.01202   0.26391   0.00000  Uiso   1.00
C122   C     0.82288   0.05590   0.25995   0.00000  Uiso   1.00
C123   C     0.84310   0.27786   0.24033   0.00000  Uiso   1.00
C124   C     0.81030   0.25020   0.48031   0.00000  Uiso   1.00
C125   C     0.85183   0.14768   0.12933   0.00000  Uiso   1.00
C126   C     0.81512   0.18475   0.37104   0.00000  Uiso   1.00
C127   C     0.85331   0.08301   0.02204   0.00000  Uiso   1.00
C128   C     0.85757   0.13794   0.08120   0.00000  Uiso   1.00
C129   C     0.80593   0.23727   0.43694   0.00000  Uiso   1.00
C130   C     0.82093   0.22317   0.00572   0.00000  Uiso   1.00
C131   C     0.82496   0.18097   0.48992   0.00000  Uiso   1.00
C132   C     0.81589   0.16628   0.44782   0.00000  Uiso   1.00
C133   C     0.83747   0.15304   0.01479   0.00000  Uiso   1.00
C134   C     0.83988   0.11054   0.49770   0.00000  Uiso   1.00
C135   C     0.82726   0.09612   0.45789   0.00000  Uiso   1.00
C136   C     0.81227   0.12292   0.43496   0.00000  Uiso   1.00
F137   F     0.87220   0.06967   0.08754   0.00000  Uiso   1.00
F138   F     0.78313   0.32882   0.29450   0.00000  Uiso   1.00
F139   F     0.82894   0.05576   0.44095   0.00000  Uiso   1.00
H140   H     0.98586   0.13865   0.28935   0.00000  Uiso   1.00
H141   H     0.87369   0.00356   0.21281   0.00000  Uiso   1.00
H142   H     0.84358   0.19674   0.07308   0.00000  Uiso   1.00
H143   H     0.82546   0.23670   0.03781   0.00000  Uiso   1.00
H144   H     0.80730   0.28213   0.49396   0.00000  Uiso   1.00
H145   H     0.68216   0.19470   0.21080   0.00000  Uiso   1.00
H146   H     0.82569   0.02895   0.00876   0.00000  Uiso   1.00
H147   H     0.79758   0.29322   0.42723   0.00000  Uiso   1.00
H148   H     0.78922   0.07625   0.39809   0.00000  Uiso   1.00
O149   O     0.83333   0.16667   0.25000   0.00000  Uiso   1.00
O150   O     0.82118   0.12637   0.15459   0.00000  Uiso   1.00
O151   O     0.79607   0.20391   0.34968   0.00000  Uiso   1.00
O152   O     0.87491   0.17759   0.14606   0.00000  Uiso   1.00
O153   O     0.84118   0.15880   0.34968   0.00000  Uiso   1.00
O154   O     0.85556   0.04160   0.00784   0.00000  Uiso   1.00
O155   O     0.79935   0.26546   0.41020   0.00000  Uiso   1.00
O156   O     0.79139   0.10704   0.40171   0.00000  Uiso   1.00
O157   O     0.84597   0.08019   0.28214   0.00000  Uiso   1.00
O158   O     0.81298   0.26085   0.27014   0.00000  Uiso   1.00
O159   O     0.74078   0.13291   0.23413   0.00000  Uiso   1.00
O160   O     0.93360   0.19272   0.21361   0.00000  Uiso   1.00
O161   O     0.73738   0.18878   0.28213   0.00000  Uiso   1.00
O162   O     0.92158   0.15226   0.27014   0.00000  Uiso   1.00
O163   O     0.80426   0.06944   0.23413   0.00000  Uiso   1.00
O164   O     0.87012   0.25620   0.21361   0.00000  Uiso   1.00
Zn165  Zn    0.86005   0.13994   0.28734   0.00000  Uiso   1.00
Zn166  Zn    0.80046   0.12458   0.21876   0.00000  Uiso   1.00
Zn167  Zn    0.87723   0.19775   0.20657   0.00000  Uiso   1.00
Zn168  Zn    0.79560   0.20439   0.28734   0.00000  Uiso   1.00
C169   C     0.05269   0.49289   0.25998   0.00000  Uiso   1.00
C170   C     0.18032   0.49928   0.05671   0.00000  Uiso   1.00
C171   C     0.19567   0.43042   0.06318   0.00000  Uiso   1.00
C172   C     0.28071   0.50712   0.24007   0.00000  Uiso   1.00
C173   C     0.14352   0.52882   0.41979   0.00000  Uiso   1.00
C174   C     0.32654   0.50992   0.23619   0.00000  Uiso   1.00
C175   C     0.00743   0.49028   0.26374   0.00000  Uiso   1.00
C176   C     0.18011   0.65574   0.23726   0.00000  Uiso   1.00
C177   C     0.15118   0.34535   0.26391   0.00000  Uiso   1.00
C178   C     0.15621   0.38923   0.25995   0.00000  Uiso   1.00
C179   C     0.17643   0.61119   0.24033   0.00000  Uiso   1.00
C180   C     0.14364   0.58354   0.48031   0.00000  Uiso   1.00
C181   C     0.18516   0.48102   0.12933   0.00000  Uiso   1.00
C182   C     0.14845   0.51809   0.37104   0.00000  Uiso   1.00
C183   C     0.18664   0.41635   0.02204   0.00000  Uiso   1.00
C184   C     0.19090   0.47128   0.08120   0.00000  Uiso   1.00
C185   C     0.13927   0.57061   0.43694   0.00000  Uiso   1.00
C186   C     0.15427   0.55650   0.00572   0.00000  Uiso   1.00
C187   C     0.15829   0.51430   0.48992   0.00000  Uiso   1.00
C188   C     0.14923   0.49962   0.44782   0.00000  Uiso   1.00
C189   C     0.17081   0.48637   0.01479   0.00000  Uiso   1.00
C190   C     0.17321   0.44388   0.49770   0.00000  Uiso   1.00
C191   C     0.16059   0.42945   0.45789   0.00000  Uiso   1.00
C192   C     0.14561   0.45625   0.43496   0.00000  Uiso   1.00
F193   F     0.20553   0.40301   0.08754   0.00000  Uiso   1.00
F194   F     0.11647   0.66215   0.29450   0.00000  Uiso   1.00
F195   F     0.16227   0.38910   0.44095   0.00000  Uiso   1.00
H196   H     0.31919   0.47199   0.28935   0.00000  Uiso   1.00
H197   H     0.20703   0.33689   0.21281   0.00000  Uiso   1.00
H198   H     0.17692   0.53007   0.07308   0.00000  Uiso   1.00
H199   H     0.15879   0.57003   0.03781   0.00000  Uiso   1.00
H200   H     0.14063   0.61547   0.49396   0.00000  Uiso   1.00
H201   H     0.01549   0.52803   0.21080   0.00000  Uiso   1.00
H202   H     0.15902   0.36228   0.00876   0.00000  Uiso   1.00
H203   H     0.13091   0.62655   0.42723   0.00000  Uiso   1.00
H204   H     0.12256   0.40958   0.39809   0.00000  Uiso   1.00
O205   O     0.16667   0.50000   0.25000   0.00000  Uiso   1.00
O206   O     0.15451   0.45970   0.15459   0.00000  Uiso   1.00
O207   O     0.12940   0.53724   0.34968   0.00000  Uiso   1.00
O208   O     0.20824   0.51092   0.14606   0.00000  Uiso   1.00
O209   O     0.17451   0.49213   0.34968   0.00000  Uiso   1.00
O210   O     0.18889   0.37493   0.00784   0.00000  Uiso   1.00
O211   O     0.13269   0.59879   0.41020   0.00000  Uiso   1.00
O212   O     0.12472   0.44037   0.40171   0.00000  Uiso   1.00
O213   O     0.17930   0.41352   0.28214   0.00000  Uiso   1.00
O214   O     0.14632   0.59418   0.27014   0.00000  Uiso   1.00
O215   O     0.07412   0.46625   0.23413   0.00000  Uiso   1.00
O216   O     0.26693   0.52605   0.21361   0.00000  Uiso   1.00
O217   O     0.07071   0.52211   0.28213   0.00000  Uiso   1.00
O218   O     0.25491   0.48559   0.27014   0.00000  Uiso   1.00
O219   O     0.13760   0.40277   0.23413   0.00000  Uiso   1.00
O220   O     0.20345   0.58953   0.21361   0.00000  Uiso   1.00
Zn221  Zn    0.19338   0.47327   0.28734   0.00000  Uiso   1.00
Zn222  Zn    0.13379   0.45791   0.21876   0.00000  Uiso   1.00
Zn223  Zn    0.21056   0.53109   0.20657   0.00000  Uiso   1.00
Zn224  Zn    0.12893   0.53773   0.28734   0.00000  Uiso   1.00
C225   C     0.38602   0.49289   0.25998   0.00000  Uiso   1.00
C226   C     0.51365   0.49928   0.05671   0.00000  Uiso   1.00
C227   C     0.52900   0.43042   0.06318   0.00000  Uiso   1.00
C228   C     0.61404   0.50712   0.24007   0.00000  Uiso   1.00
C229   C     0.47685   0.52882   0.41979   0.00000  Uiso   1.00
C230   C     0.65987   0.50992   0.23619   0.00000  Uiso   1.00
C231   C     0.34077   0.49028   0.26374   0.00000  Uiso   1.00
C232   C     0.51345   0.65574   0.23726   0.00000  Uiso   1.00
C233   C     0.48452   0.34535   0.26391   0.00000  Uiso   1.00
C234   C     0.48954   0.38923   0.25995   0.00000  Uiso   1.00
C235   C     0.50977   0.61119   0.24033   0.00000  Uiso   1.00
C236   C     0.47697   0.58354   0.48031   0.00000  Uiso   1.00
C237   C     0.51849   0.48102   0.12933   0.00000  Uiso   1.00
C238   C     0.48179   0.51809   0.37104   0.00000  Uiso   1.00
C239   C     0.51997   0.41635   0.02204   0.00000  Uiso   1.00
C240   C     0.52424   0.47128   0.08120   0.00000  Uiso   1.00
C241   C     0.47260   0.57061   0.43694   0.00000  Uiso   1.00
C242   C     0.48760   0.55650   0.00572   0.00000  Uiso   1.00
C243   C     0.49162   0.51430   0.48992   0.00000  Uiso   1.00
C244   C     0.48256   0.49962   0.44782   0.00000  Uiso   1.00
C245   C     0.50414   0.48637   0.01479   0.00000  Uiso   1.00
C246   C     0.50655   0.44388   0.49770   0.00000  Uiso   1.00
C247   C     0.49393   0.42945   0.45789   0.00000  Uiso   1.00
C248   C     0.47894   0.45625   0.43496   0.00000  Uiso   1.00
F249   F     0.53887   0.40301   0.08754   0.00000  Uiso   1.00
F250   F     0.44980   0.66215   0.29450   0.00000  Uiso   1.00
F251   F     0.49561   0.38910   0.44095   0.00000  Uiso   1.00
H252   H     0.65252   0.47199   0.28935   0.00000  Uiso   1.00
H253   H     0.54036   0.33689   0.21281   0.00000  Uiso   1.00
H254   H     0.51025   0.53007   0.07308   0.00000  Uiso   1.00
H255   H     0.49213   0.57003   0.03781   0.00000  Uiso   1.00
H256   H     0.47397   0.61547   0.49396   0.00000  Uiso   1.00
H257   H     0.34883   0.52803   0.21080   0.00000  Uiso   1.00
H258   H     0.49236   0.36228   0.00876   0.00000  Uiso   1.00
H259   H     0.46425   0.62655   0.42723   0.00000  Uiso   1.00
H260   H     0.45589   0.40958   0.39809   0.00000  Uiso   1.00
O261   O     0.50000   0.50000   0.25000   0.00000  Uiso   1.00
O262   O     0.48784   0.45970   0.15459   0.00000  Uiso   1.00
O263   O     0.46274   0.53724   0.34968   0.00000  Uiso   1.00
O264   O     0.54157   0.51092   0.14606   0.00000  Uiso   1.00
O265   O     0.50785   0.49213   0.34968   0.00000  Uiso   1.00
O266   O     0.52223   0.37493   0.00784   0.00000  Uiso   1.00
O267   O     0.46602   0.59879   0.41020   0.00000  Uiso   1.00
O268   O     0.45805   0.44037   0.40171   0.00000  Uiso   1.00
O269   O     0.51264   0.41352   0.28214   0.00000  Uiso   1.00
O270   O     0.47965   0.59418   0.27014   0.00000  Uiso   1.00
O271   O     0.40745   0.46625   0.23413   0.00000  Uiso   1.00
O272   O     0.60026   0.52605   0.21361   0.00000  Uiso   1.00
O273   O     0.40405   0.52211   0.28213   0.00000  Uiso   1.00
O274   O     0.58824   0.48559   0.27014   0.00000  Uiso   1.00
O275   O     0.47093   0.40277   0.23413   0.00000  Uiso   1.00
O276   O     0.53678   0.58953   0.21361   0.00000  Uiso   1.00
Zn277  Zn    0.52672   0.47327   0.28734   0.00000  Uiso   1.00
Zn278  Zn    0.46713   0.45791   0.21876   0.00000  Uiso   1.00
Zn279  Zn    0.54389   0.53109   0.20657   0.00000  Uiso   1.00
Zn280  Zn    0.46226   0.53773   0.28734   0.00000  Uiso   1.00
C281   C     0.71936   0.49289   0.25998   0.00000  Uiso   1.00
C282   C     0.84698   0.49928   0.05671   0.00000  Uiso   1.00
C283   C     0.86233   0.43042   0.06318   0.00000  Uiso   1.00
C284   C     0.94738   0.50712   0.24007   0.00000  Uiso   1.00
C285   C     0.81019   0.52882   0.41979   0.00000  Uiso   1.00
C286   C     0.99321   0.50992   0.23619   0.00000  Uiso   1.00
C287   C     0.67410   0.49028   0.26374   0.00000  Uiso   1.00
C288   C     0.84678   0.65574   0.23726   0.00000  Uiso   1.00
C289   C     0.81785   0.34535   0.26391   0.00000  Uiso   1.00
C290   C     0.82288   0.38923   0.25995   0.00000  Uiso   1.00
C291   C     0.84310   0.61119   0.24033   0.00000  Uiso   1.00
C292   C     0.81030   0.58354   0.48031   0.00000  Uiso   1.00
C293   C     0.85183   0.48102   0.12933   0.00000  Uiso   1.00
C294   C     0.81512   0.51809   0.37104   0.00000  Uiso   1.00
C295   C     0.85331   0.41635   0.02204   0.00000  Uiso   1.00
C296   C     0.85757   0.47128   0.08120   0.00000  Uiso   1.00
C297   C     0.80593   0.57061   0.43694   0.00000  Uiso   1.00
C298   C     0.82093   0.55650   0.00572   0.00000  Uiso   1.00
C299   C     0.82496   0.51430   0.48992   0.00000  Uiso   1.00
C300   C     0.81589   0.49962   0.44782   0.00000  Uiso   1.00
C301   C     0.83747   0.48637   0.01479   0.00000  Uiso   1.00
C302   C     0.83988   0.44388   0.49770   0.00000  Uiso   1.00
C303   C     0.82726   0.42945   0.45789   0.00000  Uiso   1.00
C304   C     0.81227   0.45625   0.43496   0.00000  Uiso   1.00
F305   F     0.87220   0.40301   0.08754   0.00000  Uiso   1.00
F306   F     0.78313   0.66215   0.29450   0.00000  Uiso   1.00
F307   F     0.82894   0.38910   0.44095   0.00000  Uiso   1.00
H308   H     0.98586   0.47199   0.28935   0.00000  Uiso   1.00
H309   H     0.87369   0.33689   0.21281   0.00000  Uiso   1.00
H310   H     0.84358   0.53007   0.07308   0.00000  Uiso   1.00
H311   H     0.82546   0.57003   0.03781   0.00000  Uiso   1.00
H312   H     0.80730   0.61547   0.49396   0.00000  Uiso   1.00
H313   H     0.68216   0.52803   0.21080   0.00000  Uiso   1.00
H314   H     0.82569   0.36228   0.00876   0.00000  Uiso   1.00
H315   H     0.79758   0.62655   0.42723   0.00000  Uiso   1.00
H316   H     0.78922   0.40958   0.39809   0.00000  Uiso   1.00
O317   O     0.83333   0.50000   0.25000   0.00000  Uiso   1.00
O318   O     0.82118   0.45970   0.15459   0.00000  Uiso   1.00
O319   O     0.79607   0.53724   0.34968   0.00000  Uiso   1.00
O320   O     0.87491   0.51092   0.14606   0.00000  Uiso   1.00
O321   O     0.84118   0.49213   0.34968   0.00000  Uiso   1.00
O322   O     0.85556   0.37493   0.00784   0.00000  Uiso   1.00
O323   O     0.79935   0.59879   0.41020   0.00000  Uiso   1.00
O324   O     0.79139   0.44037   0.40171   0.00000  Uiso   1.00
O325   O     0.84597   0.41352   0.28214   0.00000  Uiso   1.00
O326   O     0.81298   0.59418   0.27014   0.00000  Uiso   1.00
O327   O     0.74078   0.46625   0.23413   0.00000  Uiso   1.00
O328   O     0.93360   0.52605   0.21361   0.00000  Uiso   1.00
O329   O     0.73738   0.52211   0.28213   0.00000  Uiso   1.00
O330   O     0.92158   0.48559   0.27014   0.00000  Uiso   1.00
O331   O     0.80426   0.40277   0.23413   0.00000  Uiso   1.00
O332   O     0.87012   0.58953   0.21361   0.00000  Uiso   1.00
Zn333  Zn    0.86005   0.47327   0.28734   0.00000  Uiso   1.00
Zn334  Zn    0.80046   0.45791   0.21876   0.00000  Uiso   1.00
Zn335  Zn    0.87723   0.53109   0.20657   0.00000  Uiso   1.00
Zn336  Zn    0.79560   0.53773   0.28734   0.00000  Uiso   1.00
C337   C     0.05269   0.82622   0.25998   0.00000  Uiso   1.00
C338   C     0.18032   0.83261   0.05671   0.00000  Uiso   1.00
C339   C     0.19567   0.76376   0.06318   0.00000  Uiso   1.00
C340   C     0.28071   0.84046   0.24007   0.00000  Uiso   1.00
C341   C     0.14352   0.86215   0.41979   0.00000  Uiso   1.00
C342   C     0.32654   0.84325   0.23619   0.00000  Uiso   1.00
C343   C     0.00743   0.82361   0.26374   0.00000  Uiso   1.00
C344   C     0.18011   0.98907   0.23726   0.00000  Uiso   1.00
C345   C     0.15118   0.67869   0.26391   0.00000  Uiso   1.00
C346   C     0.15621   0.72257   0.25995   0.00000  Uiso   1.00
C347   C     0.17643   0.94453   0.24033   0.00000  Uiso   1.00
C348   C     0.14364   0.91687   0.48031   0.00000  Uiso   1.00
C349   C     0.18516   0.81435   0.12933   0.00000  Uiso   1.00
C350   C     0.14845   0.85142   0.37104   0.00000  Uiso   1.00
C351   C     0.18664   0.74968   0.02204   0.00000  Uiso   1.00
C352   C     0.19090   0.80461   0.08120   0.00000  Uiso   1.00
C353   C     0.13927   0.90394   0.43694   0.00000  Uiso   1.00
C354   C     0.15427   0.88983   0.00572   0.00000  Uiso   1.00
C355   C     0.15829   0.84764   0.48992   0.00000  Uiso   1.00
C356   C     0.14923   0.83295   0.44782   0.00000  Uiso   1.00
C357   C     0.17081   0.81971   0.01479   0.00000  Uiso   1.00
C358   C     0.17321   0.77721   0.49770   0.00000  Uiso   1.00
C359   C     0.16059   0.76279   0.45789   0.00000  Uiso   1.00
C360   C     0.14561   0.78958   0.43496   0.00000  Uiso   1.00
F361   F     0.20553   0.73634   0.08754   0.00000  Uiso   1.00
F362   F     0.11647   0.99548   0.29450   0.00000  Uiso   1.00
F363   F     0.16227   0.72243   0.44095   0.00000  Uiso   1.00
H364   H     0.31919   0.80532   0.28935   0.00000  Uiso   1.00
H365   H     0.20703   0.67022   0.21281   0.00000  Uiso   1.00
H366   H     0.17692   0.86340   0.07308   0.00000  Uiso   1.00
H367   H     0.15879   0.90337   0.03781   0.00000  Uiso   1.00
H368   H     0.14063   0.94880   0.49396   0.00000  Uiso   1.00
H369   H     0.01549   0.86137   0.21080   0.00000  Uiso   1.00
H370   H     0.15902   0.69562   0.00876   0.00000  Uiso   1.00
H371   H     0.13091   0.95989   0.42723   0.00000  Uiso   1.00
H372   H     0.12256   0.74291   0.39809   0.00000  Uiso   1.00
O373   O     0.16667   0.83333   0.25000   0.00000  Uiso   1.00
O374   O     0.15451   0.79304   0.15459   0.00000  Uiso   1.00
O375   O     0.12940   0.87058   0.34968   0.00000  Uiso   1.00
O376   O     0.20824   0.84425   0.14606   0.00000  Uiso   1.00
O377   O     0.17451   0.82546   0.34968   0.00000  Uiso   1.00
O378   O     0.18889   0.70827   0.00784   0.00000  Uiso   1.00
O379   O     0.13269   0.93212   0.41020   0.00000  Uiso   1.00
O380   O     0.12472   0.77371   0.40171   0.00000  Uiso   1.00
O381   O     0.17930   0.74686   0.28214   0.00000  Uiso   1.00
O382   O     0.14632   0.92751   0.27014   0.00000  Uiso   1.00
O383   O     0.07412   0.79958   0.23413   0.00000  Uiso   1.00
O384   O     0.26693   0.85939   0.21361   0.00000  Uiso   1.00
O385   O     0.07071   0.85544   0.28213   0.00000  Uiso   1.00
O386   O     0.25491   0.81892   0.27014   0.00000  Uiso   1.00
O387   O     0.13760   0.73610   0.23413   0.00000  Uiso   1.00
O388   O     0.20345   0.92286   0.21361   0.00000  Uiso   1.00
Zn389  Zn    0.19338   0.80661   0.28734   0.00000  Uiso   1.00
Zn390  Zn    0.13379   0.79124   0.21876   0.00000  Uiso   1.00
Zn391  Zn    0.21056   0.86442   0.20657   0.00000  Uiso   1.00
Zn392  Zn    0.12893   0.87106   0.28734   0.00000  Uiso   1.00
C393   C     0.38602   0.82622   0.25998   0.00000  Uiso   1.00
C394   C     0.51365   0.83261   0.05671   0.00000  Uiso   1.00
C395   C     0.52900   0.76376   0.06318   0.00000  Uiso   1.00
C396   C     0.61404   0.84046   0.24007   0.00000  Uiso   1.00
C397   C     0.47685   0.86215   0.41979   0.00000  Uiso   1.00
C398   C     0.65987   0.84325   0.23619   0.00000  Uiso   1.00
C399   C     0.34077   0.82361   0.26374   0.00000  Uiso   1.00
C400   C     0.51345   0.98907   0.23726   0.00000  Uiso   1.00
C401   C     0.48452   0.67869   0.26391   0.00000  Uiso   1.00
C402   C     0.48954   0.72257   0.25995   0.00000  Uiso   1.00
C403   C     0.50977   0.94453   0.24033   0.00000  Uiso   1.00
C404   C     0.47697   0.91687   0.48031   0.00000  Uiso   1.00
C405   C     0.51849   0.81435   0.12933   0.00000  Uiso   1.00
C406   C     0.48179   0.85142   0.37104   0.00000  Uiso   1.00
C407   C     0.51997   0.74968   0.02204   0.00000  Uiso   1.00
C408   C     0.52424   0.80461   0.08120   0.00000  Uiso   1.00
C409   C     0.47260   0.90394   0.43694   0.00000  Uiso   1.00
C410   C     0.48760   0.88983   0.00572   0.00000  Uiso   1.00
C411   C     0.49162   0.84764   0.48992   0.00000  Uiso   1.00
C412   C     0.48256   0.83295   0.44782   0.00000  Uiso   1.00
C413   C     0.50414   0.81971   0.01479   0.00000  Uiso   1.00
C414   C     0.50655   0.77721   0.49770   0.00000  Uiso   1.00
C415   C     0.49393   0.76279   0.45789   0.00000  Uiso   1.00
C416   C     0.47894   0.78958   0.43496   0.00000  Uiso   1.00
F417   F     0.53887   0.73634   0.08754   0.00000  Uiso   1.00
F418   F     0.44980   0.99548   0.29450   0.00000  Uiso   1.00
F419   F     0.49561   0.72243   0.44095   0.00000  Uiso   1.00
H420   H     0.65252   0.80532   0.28935   0.00000  Uiso   1.00
H421   H     0.54036   0.67022   0.21281   0.00000  Uiso   1.00
H422   H     0.51025   0.86340   0.07308   0.00000  Uiso   1.00
H423   H     0.49213   0.90337   0.03781   0.00000  Uiso   1.00
H424   H     0.47397   0.94880   0.49396   0.00000  Uiso   1.00
H425   H     0.34883   0.86137   0.21080   0.00000  Uiso   1.00
H426   H     0.49236   0.69562   0.00876   0.00000  Uiso   1.00
H427   H     0.46425   0.95989   0.42723   0.00000  Uiso   1.00
H428   H     0.45589   0.74291   0.39809   0.00000  Uiso   1.00
O429   O     0.50000   0.83333   0.25000   0.00000  Uiso   1.00
O430   O     0.48784   0.79304   0.15459   0.00000  Uiso   1.00
O431   O     0.46274   0.87058   0.34968   0.00000  Uiso   1.00
O432   O     0.54157   0.84425   0.14606   0.00000  Uiso   1.00
O433   O     0.50785   0.82546   0.34968   0.00000  Uiso   1.00
O434   O     0.52223   0.70827   0.00784   0.00000  Uiso   1.00
O435   O     0.46602   0.93212   0.41020   0.00000  Uiso   1.00
O436   O     0.45805   0.77371   0.40171   0.00000  Uiso   1.00
O437   O     0.51264   0.74686   0.28214   0.00000  Uiso   1.00
O438   O     0.47965   0.92751   0.27014   0.00000  Uiso   1.00
O439   O     0.40745   0.79958   0.23413   0.00000  Uiso   1.00
O440   O     0.60026   0.85939   0.21361   0.00000  Uiso   1.00
O441   O     0.40405   0.85544   0.28213   0.00000  Uiso   1.00
O442   O     0.58824   0.81892   0.27014   0.00000  Uiso   1.00
O443   O     0.47093   0.73610   0.23413   0.00000  Uiso   1.00
O444   O     0.53678   0.92286   0.21361   0.00000  Uiso   1.00
Zn445  Zn    0.52672   0.80661   0.28734   0.00000  Uiso   1.00
Zn446  Zn    0.46713   0.79124   0.21876   0.00000  Uiso   1.00
Zn447  Zn    0.54389   0.86442   0.20657   0.00000  Uiso   1.00
Zn448  Zn    0.46226   0.87106   0.28734   0.00000  Uiso   1.00
C449   C     0.71936   0.82622   0.25998   0.00000  Uiso   1.00
C450   C     0.84698   0.83261   0.05671   0.00000  Uiso   1.00
C451   C     0.86233   0.76376   0.06318   0.00000  Uiso   1.00
C452   C     0.94738   0.84046   0.24007   0.00000  Uiso   1.00
C453   C     0.81019   0.86215   0.41979   0.00000  Uiso   1.00
C454   C     0.99321   0.84325   0.23619   0.00000  Uiso   1.00
C455   C     0.67410   0.82361   0.26374   0.00000  Uiso   1.00
C456   C     0.84678   0.98907   0.23726   0.00000  Uiso   1.00
C457   C     0.81785   0.67869   0.26391   0.00000  Uiso   1.00
C458   C     0.82288   0.72257   0.25995   0.00000  Uiso   1.00
C459   C     0.84310   0.94453   0.24033   0.00000  Uiso   1.00
C460   C     0.81030   0.91687   0.48031   0.00000  Uiso   1.00
C461   C     0.85183   0.81435   0.12933   0.00000  Uiso   1.00
C462   C     0.81512   0.85142   0.37104   0.00000  Uiso   1.00
C463   C     0.85331   0.74968   0.02204   0.00000  Uiso   1.00
C464   C     0.85757   0.80461   0.08120   0.00000  Uiso   1.00
C465   C     0.80593   0.90394   0.43694   0.00000  Uiso   1.00
C466   C     0.82093   0.88983   0.00572   0.00000  Uiso   1.00
C467   C     0.82496   0.84764   0.48992   0.00000  Uiso   1.00
C468   C     0.81589   0.83295   0.44782   0.00000  Uiso   1.00
C469   C     0.83747   0.81971   0.01479   0.00000  Uiso   1.00
C470   C     0.83988   0.77721   0.49770   0.00000  Uiso   1.00
C471   C     0.82726   0.76279   0.45789   0.00000  Uiso   1.00
C472   C     0.81227   0.78958   0.43496   0.00000  Uiso   1.00
F473   F     0.87220   0.73634   0.08754   0.00000  Uiso   1.00
F474   F     0.78313   0.99548   0.29450   0.00000  Uiso   1.00
F475   F     0.82894   0.72243   0.44095   0.00000  Uiso   1.00
H476   H     0.98586   0.80532   0.28935   0.00000  Uiso   1.00
H477   H     0.87369   0.67022   0.21281   0.00000  Uiso   1.00
H478   H     0.84358   0.86340   0.07308   0.00000  Uiso   1.00
H479   H     0.82546   0.90337   0.03781   0.00000  Uiso   1.00
H480   H     0.80730   0.94880   0.49396   0.00000  Uiso   1.00
H481   H     0.68216   0.86137   0.21080   0.00000  Uiso   1.00
H482   H     0.82569   0.69562   0.00876   0.00000  Uiso   1.00
H483   H     0.79758   0.95989   0.42723   0.00000  Uiso   1.00
H484   H     0.78922   0.74291   0.39809   0.00000  Uiso   1.00
O485   O     0.83333   0.83333   0.25000   0.00000  Uiso   1.00
O486   O     0.82118   0.79304   0.15459   0.00000  Uiso   1.00
O487   O     0.79607   0.87058   0.34968   0.00000  Uiso   1.00
O488   O     0.87491   0.84425   0.14606   0.00000  Uiso   1.00
O489   O     0.84118   0.82546   0.34968   0.00000  Uiso   1.00
O490   O     0.85556   0.70827   0.00784   0.00000  Uiso   1.00
O491   O     0.79935   0.93212   0.41020   0.00000  Uiso   1.00
O492   O     0.79139   0.77371   0.40171   0.00000  Uiso   1.00
O493   O     0.84597   0.74686   0.28214   0.00000  Uiso   1.00
O494   O     0.81298   0.92751   0.27014   0.00000  Uiso   1.00
O495   O     0.74078   0.79958   0.23413   0.00000  Uiso   1.00
O496   O     0.93360   0.85939   0.21361   0.00000  Uiso   1.00
O497   O     0.73738   0.85544   0.28213   0.00000  Uiso   1.00
O498   O     0.92158   0.81892   0.27014   0.00000  Uiso   1.00
O499   O     0.80426   0.73610   0.23413   0.00000  Uiso   1.00
O500   O     0.87012   0.92286   0.21361   0.00000  Uiso   1.00
Zn501  Zn    0.86005   0.80661   0.28734   0.00000  Uiso   1.00
Zn502  Zn    0.80046   0.79124   0.21876   0.00000  Uiso   1.00
Zn503  Zn    0.87723   0.86442   0.20657   0.00000  Uiso   1.00
Zn504  Zn    0.79560   0.87106   0.28734   0.00000  Uiso   1.00
C505   C     0.05269   0.15956   0.75998   0.00000  Uiso   1.00
C506   C     0.18032   0.16594   0.55671   0.00000  Uiso   1.00
C507   C     0.19567   0.09709   0.56318   0.00000  Uiso   1.00
C508   C     0.28071   0.17379   0.74007   0.00000  Uiso   1.00
C509   C     0.14352   0.19548   0.91979   0.00000  Uiso   1.00
C510   C     0.32654   0.17659   0.73619   0.00000  Uiso   1.00
C511   C     0.00743   0.15694   0.76374   0.00000  Uiso   1.00
C512   C     0.18011   0.32241   0.73726   0.00000  Uiso   1.00
C513   C     0.15118   0.01202   0.76391   0.00000  Uiso   1.00
C514   C     0.15621   0.05590   0.75995   0.00000  Uiso   1.00
C515   C     0.17643   0.27786   0.74033   0.00000  Uiso   1.00
C516   C     0.14364   0.25020   0.98031   0.00000  Uiso   1.00
C517   C     0.18516   0.14768   0.62933   0.00000  Uiso   1.00
C518   C     0.14845   0.18475   0.87104   0.00000  Uiso   1.00
C519   C     0.18664   0.08301   0.52204   0.00000  Uiso   1.00
C520   C     0.19090   0.13794   0.58120   0.00000  Uiso   1.00
C521   C     0.13927   0.23727   0.93694   0.00000  Uiso   1.00
C522   C     0.15427   0.22317   0.50572   0.00000  Uiso   1.00
C523   C     0.15829   0.18097   0.98992   0.00000  Uiso   1.00
C524   C     0.14923   0.16628   0.94782   0.00000  Uiso   1.00
C525   C     0.17081   0.15304   0.51479   0.00000  Uiso   1.00
C526   C     0.17321   0.11054   0.99770   0.00000  Uiso   1.00
C527   C     0.16059   0.09612   0.95789   0.00000  Uiso   1.00
C528   C     0.14561   0.12292   0.93496   0.00000  Uiso   1.00
F529   F     0.20553   0.06967   0.58754   0.00000  Uiso   1.00
F530   F     0.11647   0.32882   0.79450   0.00000  Uiso   1.00
F531   F     0.16227   0.05576   0.94095   0.00000  Uiso   1.00
H532   H     0.31919   0.13865   0.78935   0.00000  Uiso   1.00
H533   H     0.20703   0.00356   0.71281   0.00000  Uiso   1.00
H534   H     0.17692   0.19674   0.57308   0.00000  Uiso   1.00
H535   H     0.15879   0.23670   0.53781   0.00000  Uiso   1.00
H536   H     0.14063   0.28213   0.99396   0.00000  Uiso   1.00
H537   H     0.01549   0.19470   0.71080   0.00000  Uiso   1.00
H538   H     0.15902   0.02895   0.50876   0.00000  Uiso   1.00
H539   H     0.13091   0.29322   0.92723   0.00000  Uiso   1.00
H540   H     0.12256   0.07625   0.89809   0.00000  Uiso   1.00
O541   O     0.16667   0.16667   0.75000   0.00000  Uiso   1.00
O542   O     0.15451   0.12637   0.65459   0.00000  Uiso   1.00
O543   O     0.12940   0.20391   0.84968   0.00000  Uiso   1.00
O544   O     0.20824   0.17759   0.64606   0.00000  Uiso   1.00
O545   O     0.17451   0.15880   0.84968   0.00000  Uiso   1.00
O546   O     0.18889   0.04160   0.50784   0.00000  Uiso   1.00
O547   O     0.13269   0.26546   0.91020   0.00000  Uiso   1.00
O548   O     0.12472   0.10704   0.90171   0.00000  Uiso   1.00
O549   O     0.17930   0.08019   0.78214   0.00000  Uiso   1.00
O550   O     0.14632   0.26085   0.77014   0.00000  Uiso   1.00
O551   O     0.07412   0.13291   0.73413   0.00000  Uiso   1.00
O552   O     0.26693   0.19272   0.71361   0.00000  Uiso   1.00
O553   O     0.07071   0.18878   0.78213   0.00000  Uiso   1.00
O554   O     0.25491   0.15226   0.77014   0.00000  Uiso   1.00
O555   O     0.13760   0.06944   0.73413   0.00000  Uiso   1.00
O556   O     0.20345   0.25620   0.71361   0.00000  Uiso   1.00
Zn557  Zn    0.19338   0.13994   0.78734   0.00000  Uiso   1.00
Zn558  Zn    0.13379   0.12458   0.71876   0.00000  Uiso   1.00
Zn559  Zn    0.21056   0.19775   0.70657   0.00000  Uiso   1.00
Zn560  Zn    0.12893   0.20439   0.78734   0.00000  Uiso   1.00
C561   C     0.38602   0.15956   0.75998   0.00000  Uiso   1.00
C562   C     0.51365   0.16594   0.55671   0.00000  Uiso   1.00
C563   C     0.52900   0.09709   0.56318   0.00000  Uiso   1.00
C564   C     0.61404   0.17379   0.74007   0.00000  Uiso   1.00
C565   C     0.47685   0.19548   0.91979   0.00000  Uiso   1.00
C566   C     0.65987   0.17659   0.73619   0.00000  Uiso   1.00
C567   C     0.34077   0.15694   0.76374   0.00000  Uiso   1.00
C568   C     0.51345   0.32241   0.73726   0.00000  Uiso   1.00
C569   C     0.48452   0.01202   0.76391   0.00000  Uiso   1.00
C570   C     0.48954   0.05590   0.75995   0.00000  Uiso   1.00
C571   C     0.50977   0.27786   0.74033   0.00000  Uiso   1.00
C572   C     0.47697   0.25020   0.98031   0.00000  Uiso   1.00
C573   C     0.51849   0.14768   0.62933   0.00000  Uiso   1.00
C574   C     0.48179   0.18475   0.87104   0.00000  Uiso   1.00
C575   C     0.51997   0.08301   0.52204   0.00000  Uiso   1.00
C576   C     0.52424   0.13794   0.58120   0.00000  Uiso   1.00
C577   C     0.47260   0.23727   0.93694   0.00000  Uiso   1.00
C578   C     0.48760   0.22317   0.50572   0.00000  Uiso   1.00
C579   C     0.49162   0.18097   0.98992   0.00000  Uiso   1.00
C580   C     0.48256   0.16628   0.94782   0.00000  Uiso   1.00
C581   C     0.50414   0.15304   0.51479   0.00000  Uiso   1.00
C582   C     0.50655   0.11054   0.99770   0.00000  Uiso   1.00
C583   C     0.49393   0.09612   0.95789   0.00000  Uiso   1.00
C584   C     0.47894   0.12292   0.93496   0.00000  Uiso   1.00
F585   F     0.53887   0.06967   0.58754   0.00000  Uiso   1.00
F586   F     0.44980   0.32882   0.79450   0.00000  Uiso   1.00
F587   F     0.49561   0.05576   0.94095   0.00000  Uiso   1.00
H588   H     0.65252   0.13865   0.78935   0.00000  Uiso   1.00
H589   H     0.54036   0.00356   0.71281   0.00000  Uiso   1.00
H590   H     0.51025   0.19674   0.57308   0.00000  Uiso   1.00
H591   H     0.49213   0.23670   0.53781   0.00000  Uiso   1.00
H592   H     0.47397   0.28213   0.99396   0.00000  Uiso   1.00
H593   H     0.34883   0.19470   0.71080   0.00000  Uiso   1.00
H594   H     0.49236   0.02895   0.50876   0.00000  Uiso   1.00
H595   H     0.46425   0.29322   0.92723   0.00000  Uiso   1.00
H596   H     0.45589   0.07625   0.89809   0.00000  Uiso   1.00
O597   O     0.50000   0.16667   0.75000   0.00000  Uiso   1.00
O598   O     0.48784   0.12637   0.65459   0.00000  Uiso   1.00
O599   O     0.46274   0.20391   0.84968   0.00000  Uiso   1.00
O600   O     0.54157   0.17759   0.64606   0.00000  Uiso   1.00
O601   O     0.50785   0.15880   0.84968   0.00000  Uiso   1.00
O602   O     0.52223   0.04160   0.50784   0.00000  Uiso   1.00
O603   O     0.46602   0.26546   0.91020   0.00000  Uiso   1.00
O604   O     0.45805   0.10704   0.90171   0.00000  Uiso   1.00
O605   O     0.51264   0.08019   0.78214   0.00000  Uiso   1.00
O606   O     0.47965   0.26085   0.77014   0.00000  Uiso   1.00
O607   O     0.40745   0.13291   0.73413   0.00000  Uiso   1.00
O608   O     0.60026   0.19272   0.71361   0.00000  Uiso   1.00
O609   O     0.40405   0.18878   0.78213   0.00000  Uiso   1.00
O610   O     0.58824   0.15226   0.77014   0.00000  Uiso   1.00
O611   O     0.47093   0.06944   0.73413   0.00000  Uiso   1.00
O612   O     0.53678   0.25620   0.71361   0.00000  Uiso   1.00
Zn613  Zn    0.52672   0.13994   0.78734   0.00000  Uiso   1.00
Zn614  Zn    0.46713   0.12458   0.71876   0.00000  Uiso   1.00
Zn615  Zn    0.54389   0.19775   0.70657   0.00000  Uiso   1.00
Zn616  Zn    0.46226   0.20439   0.78734   0.00000  Uiso   1.00
C617   C     0.71936   0.15956   0.75998   0.00000  Uiso   1.00
C618   C     0.84698   0.16594   0.55671   0.00000  Uiso   1.00
C619   C     0.86233   0.09709   0.56318   0.00000  Uiso   1.00
C620   C     0.94738   0.17379   0.74007   0.00000  Uiso   1.00
C621   C     0.81019   0.19548   0.91979   0.00000  Uiso   1.00
C622   C     0.99321   0.17659   0.73619   0.00000  Uiso   1.00
C623   C     0.67410   0.15694   0.76374   0.00000  Uiso   1.00
C624   C     0.84678   0.32241   0.73726   0.00000  Uiso   1.00
C625   C     0.81785   0.01202   0.76391   0.00000  Uiso   1.00
C626   C     0.82288   0.05590   0.75995   0.00000  Uiso   1.00
C627   C     0.84310   0.27786   0.74033   0.00000  Uiso   1.00
C628   C     0.81030   0.25020   0.98031   0.00000  Uiso   1.00
C629   C     0.85183   0.14768   0.62933   0.00000  Uiso   1.00
C630   C     0.81512   0.18475   0.87104   0.00000  Uiso   1.00
C631   C     0.85331   0.08301   0.52204   0.00000  Uiso   1.00
C632   C     0.85757   0.13794   0.58120   0.00000  Uiso   1.00
C633   C     0.80593   0.23727   0.93694   0.00000  Uiso   1.00
C634   C     0.82093   0.22317   0.50572   0.00000  Uiso   1.00
C635   C     0.82496   0.18097   0.98992   0.00000  Uiso   1.00
C636   C     0.81589   0.16628   0.94782   0.00000  Uiso   1.00
C637   C     0.83747   0.15304   0.51479   0.00000  Uiso   1.00
C638   C     0.83988   0.11054   0.99770   0.00000  Uiso   1.00
C639   C     0.82726   0.09612   0.95789   0.00000  Uiso   1.00
C640   C     0.81227   0.12292   0.93496   0.00000  Uiso   1.00
F641   F     0.87220   0.06967   0.58754   0.00000  Uiso   1.00
F642   F     0.78313   0.32882   0.79450   0.00000  Uiso   1.00
F643   F     0.82894   0.05576   0.94095   0.00000  Uiso   1.00
H644   H     0.98586   0.13865   0.78935   0.00000  Uiso   1.00
H645   H     0.87369   0.00356   0.71281   0.00000  Uiso   1.00
H646   H     0.84358   0.19674   0.57308   0.00000  Uiso   1.00
H647   H     0.82546   0.23670   0.53781   0.00000  Uiso   1.00
H648   H     0.80730   0.28213   0.99396   0.00000  Uiso   1.00
H649   H     0.68216   0.19470   0.71080   0.00000  Uiso   1.00
H650   H     0.82569   0.02895   0.50876   0.00000  Uiso   1.00
H651   H     0.79758   0.29322   0.92723   0.00000  Uiso   1.00
H652   H     0.78922   0.07625   0.89809   0.00000  Uiso   1.00
O653   O     0.83333   0.16667   0.75000   0.00000  Uiso   1.00
O654   O     0.82118   0.12637   0.65459   0.00000  Uiso   1.00
O655   O     0.79607   0.20391   0.84968   0.00000  Uiso   1.00
O656   O     0.87491   0.17759   0.64606   0.00000  Uiso   1.00
O657   O     0.84118   0.15880   0.84968   0.00000  Uiso   1.00
O658   O     0.85556   0.04160   0.50784   0.00000  Uiso   1.00
O659   O     0.79935   0.26546   0.91020   0.00000  Uiso   1.00
O660   O     0.79139   0.10704   0.90171   0.00000  Uiso   1.00
O661   O     0.84597   0.08019   0.78214   0.00000  Uiso   1.00
O662   O     0.81298   0.26085   0.77014   0.00000  Uiso   1.00
O663   O     0.74078   0.13291   0.73413   0.00000  Uiso   1.00
O664   O     0.93360   0.19272   0.71361   0.00000  Uiso   1.00
O665   O     0.73738   0.18878   0.78213   0.00000  Uiso   1.00
O666   O     0.92158   0.15226   0.77014   0.00000  Uiso   1.00
O667   O     0.80426   0.06944   0.73413   0.00000  Uiso   1.00
O668   O     0.87012   0.25620   0.71361   0.00000  Uiso   1.00
Zn669  Zn    0.86005   0.13994   0.78734   0.00000  Uiso   1.00
Zn670  Zn    0.80046   0.12458   0.71876   0.00000  Uiso   1.00
Zn671  Zn    0.87723   0.19775   0.70657   0.00000  Uiso   1.00
Zn672  Zn    0.79560   0.20439   0.78734   0.00000  Uiso   1.00
C673   C     0.05269   0.49289   0.75998   0.00000  Uiso   1.00
C674   C     0.18032   0.49928   0.55671   0.00000  Uiso   1.00
C675   C     0.19567   0.43042   0.56318   0.00000  Uiso   1.00
C676   C     0.28071   0.50712   0.74007   0.00000  Uiso   1.00
C677   C     0.14352   0.52882   0.91979   0.00000  Uiso   1.00
C678   C     0.32654   0.50992   0.73619   0.00000  Uiso   1.00
C679   C     0.00743   0.49028   0.76374   0.00000  Uiso   1.00
C680   C     0.18011   0.65574   0.73726   0.00000  Uiso   1.00
C681   C     0.15118   0.34535   0.76391   0.00000  Uiso   1.00
C682   C     0.15621   0.38923   0.75995   0.00000  Uiso   1.00
C683   C     0.17643   0.61119   0.74033   0.00000  Uiso   1.00
C684   C     0.14364   0.58354   0.98031   0.00000  Uiso   1.00
C685   C     0.18516   0.48102   0.62933   0.00000  Uiso   1.00
C686   C     0.14845   0.51809   0.87104   0.00000  Uiso   1.00
C687   C     0.18664   0.41635   0.52204   0.00000  Uiso   1.00
C688   C     0.19090   0.47128   0.58120   0.00000  Uiso   1.00
C689   C     0.13927   0.57061   0.93694   0.00000  Uiso   1.00
C690   C     0.15427   0.55650   0.50572   0.00000  Uiso   1.00
C691   C     0.15829   0.51430   0.98992   0.00000  Uiso   1.00
C692   C     0.14923   0.49962   0.94782   0.00000  Uiso   1.00
C693   C     0.17081   0.48637   0.51479   0.00000  Uiso   1.00
C694   C     0.17321   0.44388   0.99770   0.00000  Uiso   1.00
C695   C     0.16059   0.42945   0.95789   0.00000  Uiso   1.00
C696   C     0.14561   0.45625   0.93496   0.00000  Uiso   1.00
F697   F     0.20553   0.40301   0.58754   0.00000  Uiso   1.00
F698   F     0.11647   0.66215   0.79450   0.00000  Uiso   1.00
F699   F     0.16227   0.38910   0.94095   0.00000  Uiso   1.00
H700   H     0.31919   0.47199   0.78935   0.00000  Uiso   1.00
H701   H     0.20703   0.33689   0.71281   0.00000  Uiso   1.00
H702   H     0.17692   0.53007   0.57308   0.00000  Uiso   1.00
H703   H     0.15879   0.57003   0.53781   0.00000  Uiso   1.00
H704   H     0.14063   0.61547   0.99396   0.00000  Uiso   1.00
H705   H     0.01549   0.52803   0.71080   0.00000  Uiso   1.00
H706   H     0.15902   0.36228   0.50876   0.00000  Uiso   1.00
H707   H     0.13091   0.62655   0.92723   0.00000  Uiso   1.00
H708   H     0.12256   0.40958   0.89809   0.00000  Uiso   1.00
O709   O     0.16667   0.50000   0.75000   0.00000  Uiso   1.00
O710   O     0.15451   0.45970   0.65459   0.00000  Uiso   1.00
O711   O     0.12940   0.53724   0.84968   0.00000  Uiso   1.00
O712   O     0.20824   0.51092   0.64606   0.00000  Uiso   1.00
O713   O     0.17451   0.49213   0.84968   0.00000  Uiso   1.00
O714   O     0.18889   0.37493   0.50784   0.00000  Uiso   1.00
O715   O     0.13269   0.59879   0.91020   0.00000  Uiso   1.00
O716   O     0.12472   0.44037   0.90171   0.00000  Uiso   1.00
O717   O     0.17930   0.41352   0.78214   0.00000  Uiso   1.00
O718   O     0.14632   0.59418   0.77014   0.00000  Uiso   1.00
O719   O     0.07412   0.46625   0.73413   0.00000  Uiso   1.00
O720   O     0.26693   0.52605   0.71361   0.00000  Uiso   1.00
O721   O     0.07071   0.52211   0.78213   0.00000  Uiso   1.00
O722   O     0.25491   0.48559   0.77014   0.00000  Uiso   1.00
O723   O     0.13760   0.40277   0.73413   0.00000  Uiso   1.00
O724   O     0.20345   0.58953   0.71361   0.00000  Uiso   1.00
Zn725  Zn    0.19338   0.47327   0.78734   0.00000  Uiso   1.00
Zn726  Zn    0.13379   0.45791   0.71876   0.00000  Uiso   1.00
Zn727  Zn    0.21056   0.53109   0.70657   0.00000  Uiso   1.00
Zn728  Zn    0.12893   0.53773   0.78734   0.00000  Uiso   1.00
C729   C     0.38602   0.49289   0.75998   0.00000  Uiso   1.00
C730   C     0.51365   0.49928   0.55671   0.00000  Uiso   1.00
C731   C     0.52900   0.43042   0.56318   0.00000  Uiso   1.00
C732   C     0.61404   0.50712   0.74007   0.00000  Uiso   1.00
C733   C     0.47685   0.52882   0.91979   0.00000  Uiso   1.00
C734   C     0.65987   0.50992   0.73619   0.00000  Uiso   1.00
C735   C     0.34077   0.49028   0.76374   0.00000  Uiso   1.00
C736   C     0.51345   0.65574   0.73726   0.00000  Uiso   1.00
C737   C     0.48452   0.34535   0.76391   0.00000  Uiso   1.00
C738   C     0.48954   0.38923   0.75995   0.00000  Uiso   1.00
C739   C     0.50977   0.61119   0.74033   0.00000  Uiso   1.00
C740   C     0.47697   0.58354   0.98031   0.00000  Uiso   1.00
C741   C     0.51849   0.48102   0.62933   0.00000  Uiso   1.00
C742   C     0.48179   0.51809   0.87104   0.00000  Uiso   1.00
C743   C     0.51997   0.41635   0.52204   0.00000  Uiso   1.00
C744   C     0.52424   0.47128   0.58120   0.00000  Uiso   1.00
C745   C     0.47260   0.57061   0.93694   0.00000  Uiso   1.00
C746   C     0.48760   0.55650   0.50572   0.00000  Uiso   1.00
C747   C     0.49162   0.51430   0.98992   0.00000  Uiso   1.00
C748   C     0.48256   0.49962   0.94782   0.00000  Uiso   1.00
C749   C     0.50414   0.48637   0.51479   0.00000  Uiso   1.00
C750   C     0.50655   0.44388   0.99770   0.00000  Uiso   1.00
C751   C     0.49393   0.42945   0.95789   0.00000  Uiso   1.00
C752   C     0.47894   0.45625   0.93496   0.00000  Uiso   1.00
F753   F     0.53887   0.40301   0.58754   0.00000  Uiso   1.00
F754   F     0.44980   0.66215   0.79450   0.00000  Uiso   1.00
F755   F     0.49561   0.38910   0.94095   0.00000  Uiso   1.00
H756   H     0.65252   0.47199   0.78935   0.00000  Uiso   1.00
H757   H     0.54036   0.33689   0.71281   0.00000  Uiso   1.00
H758   H     0.51025   0.53007   0.57308   0.00000  Uiso   1.00
H759   H     0.49213   0.57003   0.53781   0.00000  Uiso   1.00
H760   H     0.47397   0.61547   0.99396   0.00000  Uiso   1.00
H761   H     0.34883   0.52803   0.71080   0.00000  Uiso   1.00
H762   H     0.49236   0.36228   0.50876   0.00000  Uiso   1.00
H763   H     0.46425   0.62655   0.92723   0.00000  Uiso   1.00
H764   H     0.45589   0.40958   0.89809   0.00000  Uiso   1.00
O765   O     0.50000   0.50000   0.75000   0.00000  Uiso   1.00
O766   O     0.48784   0.45970   0.65459   0.00000  Uiso   1.00
O767   O     0.46274   0.53724   0.84968   0.00000  Uiso   1.00
O768   O     0.54157   0.51092   0.64606   0.00000  Uiso   1.00
O769   O     0.50785   0.49213   0.84968   0.00000  Uiso   1.00
O770   O     0.52223   0.37493   0.50784   0.00000  Uiso   1.00
O771   O     0.46602   0.59879   0.91020   0.00000  Uiso   1.00
O772   O     0.45805   0.44037   0.90171   0.00000  Uiso   1.00
O773   O     0.51264   0.41352   0.78214   0.00000  Uiso   1.00
O774   O     0.47965   0.59418   0.77014   0.00000  Uiso   1.00
O775   O     0.40745   0.46625   0.73413   0.00000  Uiso   1.00
O776   O     0.60026   0.52605   0.71361   0.00000  Uiso   1.00
O777   O     0.40405   0.52211   0.78213   0.00000  Uiso   1.00
O778   O     0.58824   0.48559   0.77014   0.00000  Uiso   1.00
O779   O     0.47093   0.40277   0.73413   0.00000  Uiso   1.00
O780   O     0.53678   0.58953   0.71361   0.00000  Uiso   1.00
Zn781  Zn    0.52672   0.47327   0.78734   0.00000  Uiso   1.00
Zn782  Zn    0.46713   0.45791   0.71876   0.00000  Uiso   1.00
Zn783  Zn    0.54389   0.53109   0.70657   0.00000  Uiso   1.00
Zn784  Zn    0.46226   0.53773   0.78734   0.00000  Uiso   1.00
C785   C     0.71936   0.49289   0.75998   0.00000  Uiso   1.00
C786   C     0.84698   0.49928   0.55671   0.00000  Uiso   1.00
C787   C     0.86233   0.43042   0.56318   0.00000  Uiso   1.00
C788   C     0.94738   0.50712   0.74007   0.00000  Uiso   1.00
C789   C     0.81019   0.52882   0.91979   0.00000  Uiso   1.00
C790   C     0.99321   0.50992   0.73619   0.00000  Uiso   1.00
C791   C     0.67410   0.49028   0.76374   0.00000  Uiso   1.00
C792   C     0.84678   0.65574   0.73726   0.00000  Uiso   1.00
C793   C     0.81785   0.34535   0.76391   0.00000  Uiso   1.00
C794   C     0.82288   0.38923   0.75995   0.00000  Uiso   1.00
C795   C     0.84310   0.61119   0.74033   0.00000  Uiso   1.00
C796   C     0.81030   0.58354   0.98031   0.00000  Uiso   1.00
C797   C     0.85183   0.48102   0.62933   0.00000  Uiso   1.00
C798   C     0.81512   0.51809   0.87104   0.00000  Uiso   1.00
C799   C     0.85331   0.41635   0.52204   0.00000  Uiso   1.00
C800   C     0.85757   0.47128   0.58120   0.00000  Uiso   1.00
C801   C     0.80593   0.57061   0.93694   0.00000  Uiso   1.00
C802   C     0.82093   0.55650   0.50572   0.00000  Uiso   1.00
C803   C     0.82496   0.51430   0.98992   0.00000  Uiso   1.00
C804   C     0.81589   0.49962   0.94782   0.00000  Uiso   1.00
C805   C     0.83747   0.48637   0.51479   0.00000  Uiso   1.00
C806   C     0.83988   0.44388   0.99770   0.00000  Uiso   1.00
C807   C     0.82726   0.42945   0.95789   0.00000  Uiso   1.00
C808   C     0.81227   0.45625   0.93496   0.00000  Uiso   1.00
F809   F     0.87220   0.40301   0.58754   0.00000  Uiso   1.00
F810   F     0.78313   0.66215   0.79450   0.00000  Uiso   1.00
F811   F     0.82894   0.38910   0.94095   0.00000  Uiso   1.00
H812   H     0.98586   0.47199   0.78935   0.00000  Uiso   1.00
H813   H     0.87369   0.33689   0.71281   0.00000  Uiso   1.00
H814   H     0.84358   0.53007   0.57308   0.00000  Uiso   1.00
H815   H     0.82546   0.57003   0.53781   0.00000  Uiso   1.00
H816   H     0.80730   0.61547   0.99396   0.00000  Uiso   1.00
H817   H     0.68216   0.52803   0.71080   0.00000  Uiso   1.00
H818   H     0.82569   0.36228   0.50876   0.00000  Uiso   1.00
H819   H     0.79758   0.62655   0.92723   0.00000  Uiso   1.00
H820   H     0.78922   0.40958   0.89809   0.00000  Uiso   1.00
O821   O     0.83333   0.50000   0.75000   0.00000  Uiso   1.00
O822   O     0.82118   0.45970   0.65459   0.00000  Uiso   1.00
O823   O     0.79607   0.53724   0.84968   0.00000  Uiso   1.00
O824   O     0.87491   0.51092   0.64606   0.00000  Uiso   1.00
O825   O     0.84118   0.49213   0.84968   0.00000  Uiso   1.00
O826   O     0.85556   0.37493   0.50784   0.00000  Uiso   1.00
O827   O     0.79935   0.59879   0.91020   0.00000  Uiso   1.00
O828   O     0.79139   0.44037   0.90171   0.00000  Uiso   1.00
O829   O     0.84597   0.41352   0.78214   0.00000  Uiso   1.00
O830   O     0.81298   0.59418   0.77014   0.00000  Uiso   1.00
O831   O     0.74078   0.46625   0.73413   0.00000  Uiso   1.00
O832   O     0.93360   0.52605   0.71361   0.00000  Uiso   1.00
O833   O     0.73738   0.52211   0.78213   0.00000  Uiso   1.00
O834   O     0.92158   0.48559   0.77014   0.00000  Uiso   1.00
O835   O     0.80426   0.40277   0.73413   0.00000  Uiso   1.00
O836   O     0.87012   0.58953   0.71361   0.00000  Uiso   1.00
Zn837  Zn    0.86005   0.47327   0.78734   0.00000  Uiso   1.00
Zn838  Zn    0.80046   0.45791   0.71876   0.00000  Uiso   1.00
Zn839  Zn    0.87723   0.53109   0.70657   0.00000  Uiso   1.00
Zn840  Zn    0.79560   0.53773   0.78734   0.00000  Uiso   1.00
C841   C     0.05269   0.82622   0.75998   0.00000  Uiso   1.00
C842   C     0.18032   0.83261   0.55671   0.00000  Uiso   1.00
C843   C     0.19567   0.76376   0.56318   0.00000  Uiso   1.00
C844   C     0.28071   0.84046   0.74007   0.00000  Uiso   1.00
C845   C     0.14352   0.86215   0.91979   0.00000  Uiso   1.00
C846   C     0.32654   0.84325   0.73619   0.00000  Uiso   1.00
C847   C     0.00743   0.82361   0.76374   0.00000  Uiso   1.00
C848   C     0.18011   0.98907   0.73726   0.00000  Uiso   1.00
C849   C     0.15118   0.67869   0.76391   0.00000  Uiso   1.00
C850   C     0.15621   0.72257   0.75995   0.00000  Uiso   1.00
C851   C     0.17643   0.94453   0.74033   0.00000  Uiso   1.00
C852   C     0.14364   0.91687   0.98031   0.00000  Uiso   1.00
C853   C     0.18516   0.81435   0.62933   0.00000  Uiso   1.00
C854   C     0.14845   0.85142   0.87104   0.00000  Uiso   1.00
C855   C     0.18664   0.74968   0.52204   0.00000  Uiso   1.00
C856   C     0.19090   0.80461   0.58120   0.00000  Uiso   1.00
C857   C     0.13927   0.90394   0.93694   0.00000  Uiso   1.00
C858   C     0.15427   0.88983   0.50572   0.00000  Uiso   1.00
C859   C     0.15829   0.84764   0.98992   0.00000  Uiso   1.00
C860   C     0.14923   0.83295   0.94782   0.00000  Uiso   1.00
C861   C     0.17081   0.81971   0.51479   0.00000  Uiso   1.00
C862   C     0.17321   0.77721   0.99770   0.00000  Uiso   1.00
C863   C     0.16059   0.76279   0.95789   0.00000  Uiso   1.00
C864   C     0.14561   0.78958   0.93496   0.00000  Uiso   1.00
F865   F     0.20553   0.73634   0.58754   0.00000  Uiso   1.00
F866   F     0.11647   0.99548   0.79450   0.00000  Uiso   1.00
F867   F     0.16227   0.72243   0.94095   0.00000  Uiso   1.00
H868   H     0.31919   0.80532   0.78935   0.00000  Uiso   1.00
H869   H     0.20703   0.67022   0.71281   0.00000  Uiso   1.00
H870   H     0.17692   0.86340   0.57308   0.00000  Uiso   1.00
H871   H     0.15879   0.90337   0.53781   0.00000  Uiso   1.00
H872   H     0.14063   0.94880   0.99396   0.00000  Uiso   1.00
H873   H     0.01549   0.86137   0.71080   0.00000  Uiso   1.00
H874   H     0.15902   0.69562   0.50876   0.00000  Uiso   1.00
H875   H     0.13091   0.95989   0.92723   0.00000  Uiso   1.00
H876   H     0.12256   0.74291   0.89809   0.00000  Uiso   1.00
O877   O     0.16667   0.83333   0.75000   0.00000  Uiso   1.00
O878   O     0.15451   0.79304   0.65459   0.00000  Uiso   1.00
O879   O     0.12940   0.87058   0.84968   0.00000  Uiso   1.00
O880   O     0.20824   0.84425   0.64606   0.00000  Uiso   1.00
O881   O     0.17451   0.82546   0.84968   0.00000  Uiso   1.00
O882   O     0.18889   0.70827   0.50784   0.00000  Uiso   1.00
O883   O     0.13269   0.93212   0.91020   0.00000  Uiso   1.00
O884   O     0.12472   0.77371   0.90171   0.00000  Uiso   1.00
O885   O     0.17930   0.74686   0.78214   0.00000  Uiso   1.00
O886   O     0.14632   0.92751   0.77014   0.00000  Uiso   1.00
O887   O     0.07412   0.79958   0.73413   0.00000  Uiso   1.00
O888   O     0.26693   0.85939   0.71361   0.00000  Uiso   1.00
O889   O     0.07071   0.85544   0.78213   0.00000  Uiso   1.00
O890   O     0.25491   0.81892   0.77014   0.00000  Uiso   1.00
O891   O     0.13760   0.73610   0.73413   0.00000  Uiso   1.00
O892   O     0.20345   0.92286   0.71361   0.00000  Uiso   1.00
Zn893  Zn    0.19338   0.80661   0.78734   0.00000  Uiso   1.00
Zn894  Zn    0.13379   0.79124   0.71876   0.00000  Uiso   1.00
Zn895  Zn    0.21056   0.86442   0.70657   0.00000  Uiso   1.00
Zn896  Zn    0.12893   0.87106   0.78734   0.00000  Uiso   1.00
C897   C     0.38602   0.82622   0.75998   0.00000  Uiso   1.00
C898   C     0.51365   0.83261   0.55671   0.00000  Uiso   1.00
C899   C     0.52900   0.76376   0.56318   0.00000  Uiso   1.00
C900   C     0.61404   0.84046   0.74007   0.00000  Uiso   1.00
C901   C     0.47685   0.86215   0.91979   0.00000  Uiso   1.00
C902   C     0.65987   0.84325   0.73619   0.00000  Uiso   1.00
C903   C     0.34077   0.82361   0.76374   0.00000  Uiso   1.00
C904   C     0.51345   0.98907   0.73726   0.00000  Uiso   1.00
C905   C     0.48452   0.67869   0.76391   0.00000  Uiso   1.00
C906   C     0.48954   0.72257   0.75995   0.00000  Uiso   1.00
C907   C     0.50977   0.94453   0.74033   0.00000  Uiso   1.00
C908   C     0.47697   0.91687   0.98031   0.00000  Uiso   1.00
C909   C     0.51849   0.81435   0.62933   0.00000  Uiso   1.00
C910   C     0.48179   0.85142   0.87104   0.00000  Uiso   1.00
C911   C     0.51997   0.74968   0.52204   0.00000  Uiso   1.00
C912   C     0.52424   0.80461   0.58120   0.00000  Uiso   1.00
C913   C     0.47260   0.90394   0.93694   0.00000  Uiso   1.00
C914   C     0.48760   0.88983   0.50572   0.00000  Uiso   1.00
C915   C     0.49162   0.84764   0.98992   0.00000  Uiso   1.00
C916   C     0.48256   0.83295   0.94782   0.00000  Uiso   1.00
C917   C     0.50414   0.81971   0.51479   0.00000  Uiso   1.00
C918   C     0.50655   0.77721   0.99770   0.00000  Uiso   1.00
C919   C     0.49393   0.76279   0.95789   0.00000  Uiso   1.00
C920   C     0.47894   0.78958   0.93496   0.00000  Uiso   1.00
F921   F     0.53887   0.73634   0.58754   0.00000  Uiso   1.00
F922   F     0.44980   0.99548   0.79450   0.00000  Uiso   1.00
F923   F     0.49561   0.72243   0.94095   0.00000  Uiso   1.00
H924   H     0.65252   0.80532   0.78935   0.00000  Uiso   1.00
H925   H     0.54036   0.67022   0.71281   0.00000  Uiso   1.00
H926   H     0.51025   0.86340   0.57308   0.00000  Uiso   1.00
H927   H     0.49213   0.90337   0.53781   0.00000  Uiso   1.00
H928   H     0.47397   0.94880   0.99396   0.00000  Uiso   1.00
H929   H     0.34883   0.86137   0.71080   0.00000  Uiso   1.00
H930   H     0.49236   0.69562   0.50876   0.00000  Uiso   1.00
H931   H     0.46425   0.95989   0.92723   0.00000  Uiso   1.00
H932   H     0.45589   0.74291   0.89809   0.00000  Uiso   1.00
O933   O     0.50000   0.83333   0.75000   0.00000  Uiso   1.00
O934   O     0.48784   0.79304   0.65459   0.00000  Uiso   1.00
O935   O     0.46274   0.87058   0.84968   0.00000  Uiso   1.00
O936   O     0.54157   0.84425   0.64606   0.00000  Uiso   1.00
O937   O     0.50785   0.82546   0.84968   0.00000  Uiso   1.00
O938   O     0.52223   0.70827   0.50784   0.00000  Uiso   1.00
O939   O     0.46602   0.93212   0.91020   0.00000  Uiso   1.00
O940   O     0.45805   0.77371   0.90171   0.00000  Uiso   1.00
O941   O     0.51264   0.74686   0.78214   0.00000  Uiso   1.00
O942   O     0.47965   0.92751   0.77014   0.00000  Uiso   1.00
O943   O     0.40745   0.79958   0.73413   0.00000  Uiso   1.00
O944   O     0.60026   0.85939   0.71361   0.00000  Uiso   1.00
O945   O     0.40405   0.85544   0.78213   0.00000  Uiso   1.00
O946   O     0.58824   0.81892   0.77014   0.00000  Uiso   1.00
O947   O     0.47093   0.73610   0.73413   0.00000  Uiso   1.00
O948   O     0.53678   0.92286   0.71361   0.00000  Uiso   1.00
Zn949  Zn    0.52672   0.80661   0.78734   0.00000  Uiso   1.00
Zn950  Zn    0.46713   0.79124   0.71876   0.00000  Uiso   1.00
Zn951  Zn    0.54389   0.86442   0.70657   0.00000  Uiso   1.00
Zn952  Zn    0.46226   0.87106   0.78734   0.00000  Uiso   1.00
C953   C     0.71936   0.82622   0.75998   0.00000  Uiso   1.00
C954   C     0.84698   0.83261   0.55671   0.00000  Uiso   1.00
C955   C     0.86233   0.76376   0.56318   0.00000  Uiso   1.00
C956   C     0.94738   0.84046   0.74007   0.00000  Uiso   1.00
C957   C     0.81019   0.86215   0.91979   0.00000  Uiso   1.00
C958   C     0.99321   0.84325   0.73619   0.00000  Uiso   1.00
C959   C     0.67410   0.82361   0.76374   0.00000  Uiso   1.00
C960   C     0.84678   0.98907   0.73726   0.00000  Uiso   1.00
C961   C     0.81785   0.67869   0.76391   0.00000  Uiso   1.00
C962   C     0.82288   0.72257   0.75995   0.00000  Uiso   1.00
C963   C     0.84310   0.94453   0.74033   0.00000  Uiso   1.00
C964   C     0.81030   0.91687   0.98031   0.00000  Uiso   1.00
C965   C     0.85183   0.81435   0.62933   0.00000  Uiso   1.00
C966   C     0.81512   0.85142   0.87104   0.00000  Uiso   1.00
C967   C     0.85331   0.74968   0.52204   0.00000  Uiso   1.00
C968   C     0.85757   0.80461   0.58120   0.00000  Uiso   1.00
C969   C     0.80593   0.90394   0.93694   0.00000  Uiso   1.00
C970   C     0.82093   0.88983   0.50572   0.00000  Uiso   1.00
C971   C     0.82496   0.84764   0.98992   0.00000  Uiso   1.00
C972   C     0.81589   0.83295   0.94782   0.00000  Uiso   1.00
C973   C     0.83747   0.81971   0.51479   0.00000  Uiso   1.00
C974   C     0.83988   0.77721   0.99770   0.00000  Uiso   1.00
C975   C     0.82726   0.76279   0.95789   0.00000  Uiso   1.00
C976   C     0.81227   0.78958   0.93496   0.00000  Uiso   1.00
F977   F     0.87220   0.73634   0.58754   0.00000  Uiso   1.00
F978   F     0.78313   0.99548   0.79450   0.00000  Uiso   1.00
F979   F     0.82894   0.72243   0.94095   0.00000  Uiso   1.00
H980   H     0.98586   0.80532   0.78935   0.00000  Uiso   1.00
H981   H     0.87369   0.67022   0.71281   0.00000  Uiso   1.00
H982   H     0.84358   0.86340   0.57308   0.00000  Uiso   1.00
H983   H     0.82546   0.90337   0.53781   0.00000  Uiso   1.00
H984   H     0.80730   0.94880   0.99396   0.00000  Uiso   1.00
H985   H     0.68216   0.86137   0.71080   0.00000  Uiso   1.00
H986   H     0.82569   0.69562   0.50876   0.00000  Uiso   1.00
H987   H     0.79758   0.95989   0.92723   0.00000  Uiso   1.00
H988   H     0.78922   0.74291   0.89809   0.00000  Uiso   1.00
O989   O     0.83333   0.83333   0.75000   0.00000  Uiso   1.00
O990   O     0.82118   0.79304   0.65459   0.00000  Uiso   1.00
O991   O     0.79607   0.87058   0.84968   0.00000  Uiso   1.00
O992   O     0.87491   0.84425   0.64606   0.00000  Uiso   1.00
O993   O     0.84118   0.82546   0.84968   0.00000  Uiso   1.00
O994   O     0.85556   0.70827   0.50784   0.00000  Uiso   1.00
O995   O     0.79935   0.93212   0.91020   0.00000  Uiso   1.00
O996   O     0.79139   0.77371   0.90171   0.00000  Uiso   1.00
O997   O     0.84597   0.74686   0.78214   0.00000  Uiso   1.00
O998   O     0.81298   0.92751   0.77014   0.00000  Uiso   1.00
O999   O     0.74078   0.79958   0.73413   0.00000  Uiso   1.00
O1000  O     0.93360   0.85939   0.71361   0.00000  Uiso   1.00
O1001  O     0.73738   0.85544   0.78213   0.00000  Uiso   1.00
O1002  O     0.92158   0.81892   0.77014   0.00000  Uiso   1.00
O1003  O     0.80426   0.73610   0.73413   0.00000  Uiso   1.00
O1004  O     0.87012   0.92286   0.71361   0.00000  Uiso   1.00
Zn1005 Zn    0.86005   0.80661   0.78734   0.00000  Uiso   1.00
Zn1006 Zn    0.80046   0.79124   0.71876   0.00000  Uiso   1.00
Zn1007 Zn    0.87723   0.86442   0.70657   0.00000  Uiso   1.00
Zn1008 Zn    0.79560   0.87106   0.78734   0.00000  Uiso   1.00
loop_
_geom_bond_atom_site_label_1
_geom_bond_atom_site_label_2
_geom_bond_distance
_geom_bond_site_symmetry_2
_ccdc_geom_bond_type
C1     O47     1.267   .     A
C1     C7      1.437   .     S
C1     O49     1.267   .     A
C2     C16     1.388   .     A
C2     H30     1.076   .     S
C2     C21     1.413   .     A
C3     C15     1.391   .     A
C3     F25     1.359   .     S
C3     C16     1.395   .     A
C4     C6      1.454   .     S
C4     O48     1.285   .     A
C4     O50     1.282   .     A
C5     C20     1.426   .     A
C5     C14     1.481   .     S
C5     C17     1.414   .     A
C6     C63     1.334   .     S
C6     H89     1.088   .     S
C7     C118    1.334   1_455 S
C7     H140    1.086   1_455 S
C8     C11     1.452   .     S
C8     C177    1.336   .     S
C8     H197    1.088   .     S
C9     C10     1.432   .     S
C9     C344    1.336   1_545 S
C9     F362    1.361   1_545 S
C10    O45     1.273   .     A
C10    O51     1.273   .     A
C11    O52     1.274   .     A
C11    O46     1.271   .     A
C12    C17     1.396   .     A
C12    H32     1.083   .     S
C12    C522    1.385   .     S
C13    O38     1.269   .     A
C13    C16     1.456   .     S
C13    O40     1.281   .     A
C14    O41     1.288   .     A
C14    O39     1.281   .     A
C15    O42     1.375   .     S
C15    C526    1.421   1_554 S
C17    O43     1.383   .     S
C18    H31     1.075   .     S
C18    C516    1.385   1_554 S
C18    C523    1.416   1_554 S
C19    C20     1.423   .     A
C19    C522    1.416   .     S
C19    C525    1.426   .     S
C20    C24     1.417   .     A
C21    C523    1.426   1_554 S
C21    C526    1.427   1_554 S
C22    C23     1.406   .     A
C22    C525    1.427   .     S
C22    C519    1.421   .     S
C23    C24     1.402   .     A
C23    F27     1.359   .     S
C24    O44     1.385   .     S
F26    C177    1.361   .     S
H28    C63     1.086   .     S
H29    C344    1.088   1_545 S
H33    C118    1.088   1_455 S
H34    O42     0.992   .     S
H35    O43     0.992   .     S
H36    O44     0.990   .     S
O37    Zn53    1.962   .     S
O37    Zn54    1.933   .     S
O37    Zn55    1.945   .     S
O37    Zn56    1.931   .     S
O38    Zn54    1.933   .     S
O39    Zn56    1.939   .     S
O40    Zn55    1.927   .     S
O41    Zn53    1.923   .     S
O45    Zn53    1.930   .     S
O46    Zn56    1.939   .     S
O47    Zn54    1.928   .     S
O48    Zn55    1.935   .     S
O49    Zn56    1.929   .     S
O50    Zn53    1.926   .     S
O51    Zn54    1.944   .     S
O52    Zn55    1.932   .     S
C57    O103    1.267   .     A
C57    C63     1.437   .     S
C57    O105    1.267   .     A
C58    C72     1.388   .     A
C58    H86     1.076   .     S
C58    C77     1.413   .     A
C59    C71     1.391   .     A
C59    F81     1.359   .     S
C59    C72     1.395   .     A
C60    C62     1.454   .     S
C60    O104    1.285   .     A
C60    O106    1.282   .     A
C61    C76     1.426   .     A
C61    C70     1.481   .     S
C61    C73     1.414   .     A
C62    C119    1.334   .     S
C62    H145    1.088   .     S
C64    C67     1.452   .     S
C64    C233    1.336   .     S
C64    H253    1.088   .     S
C65    C66     1.432   .     S
C65    C400    1.336   1_545 S
C65    F418    1.361   1_545 S
C66    O101    1.273   .     A
C66    O107    1.273   .     A
C67    O108    1.274   .     A
C67    O102    1.271   .     A
C68    C73     1.396   .     A
C68    H88     1.083   .     S
C68    C578    1.385   .     S
C69    O94     1.269   .     A
C69    C72     1.456   .     S
C69    O96     1.281   .     A
C70    O97     1.288   .     A
C70    O95     1.281   .     A
C71    O98     1.375   .     S
C71    C582    1.421   1_554 S
C73    O99     1.383   .     S
C74    H87     1.075   .     S
C74    C572    1.385   1_554 S
C74    C579    1.416   1_554 S
C75    C76     1.423   .     A
C75    C578    1.416   .     S
C75    C581    1.426   .     S
C76    C80     1.417   .     A
C77    C579    1.426   1_554 S
C77    C582    1.427   1_554 S
C78    C79     1.406   .     A
C78    C581    1.427   .     S
C78    C575    1.421   .     S
C79    C80     1.402   .     A
C79    F83     1.359   .     S
C80    O100    1.385   .     S
F82    C233    1.361   .     S
H84    C119    1.086   .     S
H85    C400    1.088   1_545 S
H90    O98     0.992   .     S
H91    O99     0.992   .     S
H92    O100    0.990   .     S
O93    Zn109   1.962   .     S
O93    Zn110   1.933   .     S
O93    Zn111   1.945   .     S
O93    Zn112   1.931   .     S
O94    Zn110   1.933   .     S
O95    Zn112   1.939   .     S
O96    Zn111   1.927   .     S
O97    Zn109   1.923   .     S
O101   Zn109   1.930   .     S
O102   Zn112   1.939   .     S
O103   Zn110   1.928   .     S
O104   Zn111   1.935   .     S
O105   Zn112   1.929   .     S
O106   Zn109   1.926   .     S
O107   Zn110   1.944   .     S
O108   Zn111   1.932   .     S
C113   O159    1.267   .     A
C113   C119    1.437   .     S
C113   O161    1.267   .     A
C114   C128    1.388   .     A
C114   H142    1.076   .     S
C114   C133    1.413   .     A
C115   C127    1.391   .     A
C115   F137    1.359   .     S
C115   C128    1.395   .     A
C116   C118    1.454   .     S
C116   O160    1.285   .     A
C116   O162    1.282   .     A
C117   C132    1.426   .     A
C117   C126    1.481   .     S
C117   C129    1.414   .     A
C118   C7      1.334   1_655 S
C118   H33     1.088   1_655 S
C120   C123    1.452   .     S
C120   C289    1.336   .     S
C120   H309    1.088   .     S
C121   C122    1.432   .     S
C121   C456    1.336   1_545 S
C121   F474    1.361   1_545 S
C122   O157    1.273   .     A
C122   O163    1.273   .     A
C123   O164    1.274   .     A
C123   O158    1.271   .     A
C124   C129    1.396   .     A
C124   H144    1.083   .     S
C124   C634    1.385   .     S
C125   O150    1.269   .     A
C125   C128    1.456   .     S
C125   O152    1.281   .     A
C126   O153    1.288   .     A
C126   O151    1.281   .     A
C127   O154    1.375   .     S
C127   C638    1.421   1_554 S
C129   O155    1.383   .     S
C130   H143    1.075   .     S
C130   C628    1.385   1_554 S
C130   C635    1.416   1_554 S
C131   C132    1.423   .     A
C131   C634    1.416   .     S
C131   C637    1.426   .     S
C132   C136    1.417   .     A
C133   C635    1.426   1_554 S
C133   C638    1.427   1_554 S
C134   C135    1.406   .     A
C134   C637    1.427   .     S
C134   C631    1.421   .     S
C135   C136    1.402   .     A
C135   F139    1.359   .     S
C136   O156    1.385   .     S
F138   C289    1.361   .     S
H140   C7      1.086   1_655 S
H141   C456    1.088   1_545 S
H146   O154    0.992   .     S
H147   O155    0.992   .     S
H148   O156    0.990   .     S
O149   Zn165   1.962   .     S
O149   Zn166   1.933   .     S
O149   Zn167   1.945   .     S
O149   Zn168   1.931   .     S
O150   Zn166   1.933   .     S
O151   Zn168   1.939   .     S
O152   Zn167   1.927   .     S
O153   Zn165   1.923   .     S
O157   Zn165   1.930   .     S
O158   Zn168   1.939   .     S
O159   Zn166   1.928   .     S
O160   Zn167   1.935   .     S
O161   Zn168   1.929   .     S
O162   Zn165   1.926   .     S
O163   Zn166   1.944   .     S
O164   Zn167   1.932   .     S
C169   O215    1.267   .     A
C169   C175    1.437   .     S
C169   O217    1.267   .     A
C170   C184    1.388   .     A
C170   H198    1.076   .     S
C170   C189    1.413   .     A
C171   C183    1.391   .     A
C171   F193    1.359   .     S
C171   C184    1.395   .     A
C172   C174    1.454   .     S
C172   O216    1.285   .     A
C172   O218    1.282   .     A
C173   C188    1.426   .     A
C173   C182    1.481   .     S
C173   C185    1.414   .     A
C174   C231    1.334   .     S
C174   H257    1.088   .     S
C175   C286    1.334   1_455 S
C175   H308    1.086   1_455 S
C176   C179    1.452   .     S
C176   C345    1.336   .     S
C176   H365    1.088   .     S
C177   C178    1.432   .     S
C178   O213    1.273   .     A
C178   O219    1.273   .     A
C179   O220    1.274   .     A
C179   O214    1.271   .     A
C180   C185    1.396   .     A
C180   H200    1.083   .     S
C180   C690    1.385   .     S
C181   O206    1.269   .     A
C181   C184    1.456   .     S
C181   O208    1.281   .     A
C182   O209    1.288   .     A
C182   O207    1.281   .     A
C183   O210    1.375   .     S
C183   C694    1.421   1_554 S
C185   O211    1.383   .     S
C186   H199    1.075   .     S
C186   C684    1.385   1_554 S
C186   C691    1.416   1_554 S
C187   C188    1.423   .     A
C187   C690    1.416   .     S
C187   C693    1.426   .     S
C188   C192    1.417   .     A
C189   C691    1.426   1_554 S
C189   C694    1.427   1_554 S
C190   C191    1.406   .     A
C190   C693    1.427   .     S
C190   C687    1.421   .     S
C191   C192    1.402   .     A
C191   F195    1.359   .     S
C192   O212    1.385   .     S
F194   C345    1.361   .     S
H196   C231    1.086   .     S
H201   C286    1.088   1_455 S
H202   O210    0.992   .     S
H203   O211    0.992   .     S
H204   O212    0.990   .     S
O205   Zn221   1.962   .     S
O205   Zn222   1.933   .     S
O205   Zn223   1.945   .     S
O205   Zn224   1.931   .     S
O206   Zn222   1.933   .     S
O207   Zn224   1.939   .     S
O208   Zn223   1.927   .     S
O209   Zn221   1.923   .     S
O213   Zn221   1.930   .     S
O214   Zn224   1.939   .     S
O215   Zn222   1.928   .     S
O216   Zn223   1.935   .     S
O217   Zn224   1.929   .     S
O218   Zn221   1.926   .     S
O219   Zn222   1.944   .     S
O220   Zn223   1.932   .     S
C225   O271    1.267   .     A
C225   C231    1.437   .     S
C225   O273    1.267   .     A
C226   C240    1.388   .     A
C226   H254    1.076   .     S
C226   C245    1.413   .     A
C227   C239    1.391   .     A
C227   F249    1.359   .     S
C227   C240    1.395   .     A
C228   C230    1.454   .     S
C228   O272    1.285   .     A
C228   O274    1.282   .     A
C229   C244    1.426   .     A
C229   C238    1.481   .     S
C229   C241    1.414   .     A
C230   C287    1.334   .     S
C230   H313    1.088   .     S
C232   C235    1.452   .     S
C232   C401    1.336   .     S
C232   H421    1.088   .     S
C233   C234    1.432   .     S
C234   O269    1.273   .     A
C234   O275    1.273   .     A
C235   O276    1.274   .     A
C235   O270    1.271   .     A
C236   C241    1.396   .     A
C236   H256    1.083   .     S
C236   C746    1.385   .     S
C237   O262    1.269   .     A
C237   C240    1.456   .     S
C237   O264    1.281   .     A
C238   O265    1.288   .     A
C238   O263    1.281   .     A
C239   O266    1.375   .     S
C239   C750    1.421   1_554 S
C241   O267    1.383   .     S
C242   H255    1.075   .     S
C242   C740    1.385   1_554 S
C242   C747    1.416   1_554 S
C243   C244    1.423   .     A
C243   C746    1.416   .     S
C243   C749    1.426   .     S
C244   C248    1.417   .     A
C245   C747    1.426   1_554 S
C245   C750    1.427   1_554 S
C246   C247    1.406   .     A
C246   C749    1.427   .     S
C246   C743    1.421   .     S
C247   C248    1.402   .     A
C247   F251    1.359   .     S
C248   O268    1.385   .     S
F250   C401    1.361   .     S
H252   C287    1.086   .     S
H258   O266    0.992   .     S
H259   O267    0.992   .     S
H260   O268    0.990   .     S
O261   Zn277   1.962   .     S
O261   Zn278   1.933   .     S
O261   Zn279   1.945   .     S
O261   Zn280   1.931   .     S
O262   Zn278   1.933   .     S
O263   Zn280   1.939   .     S
O264   Zn279   1.927   .     S
O265   Zn277   1.923   .     S
O269   Zn277   1.930   .     S
O270   Zn280   1.939   .     S
O271   Zn278   1.928   .     S
O272   Zn279   1.935   .     S
O273   Zn280   1.929   .     S
O274   Zn277   1.926   .     S
O275   Zn278   1.944   .     S
O276   Zn279   1.932   .     S
C281   O327    1.267   .     A
C281   C287    1.437   .     S
C281   O329    1.267   .     A
C282   C296    1.388   .     A
C282   H310    1.076   .     S
C282   C301    1.413   .     A
C283   C295    1.391   .     A
C283   F305    1.359   .     S
C283   C296    1.395   .     A
C284   C286    1.454   .     S
C284   O328    1.285   .     A
C284   O330    1.282   .     A
C285   C300    1.426   .     A
C285   C294    1.481   .     S
C285   C297    1.414   .     A
C286   C175    1.334   1_655 S
C286   H201    1.088   1_655 S
C288   C291    1.452   .     S
C288   C457    1.336   .     S
C288   H477    1.088   .     S
C289   C290    1.432   .     S
C290   O325    1.273   .     A
C290   O331    1.273   .     A
C291   O332    1.274   .     A
C291   O326    1.271   .     A
C292   C297    1.396   .     A
C292   H312    1.083   .     S
C292   C802    1.385   .     S
C293   O318    1.269   .     A
C293   C296    1.456   .     S
C293   O320    1.281   .     A
C294   O321    1.288   .     A
C294   O319    1.281   .     A
C295   O322    1.375   .     S
C295   C806    1.421   1_554 S
C297   O323    1.383   .     S
C298   H311    1.075   .     S
C298   C796    1.385   1_554 S
C298   C803    1.416   1_554 S
C299   C300    1.423   .     A
C299   C802    1.416   .     S
C299   C805    1.426   .     S
C300   C304    1.417   .     A
C301   C803    1.426   1_554 S
C301   C806    1.427   1_554 S
C302   C303    1.406   .     A
C302   C805    1.427   .     S
C302   C799    1.421   .     S
C303   C304    1.402   .     A
C303   F307    1.359   .     S
C304   O324    1.385   .     S
F306   C457    1.361   .     S
H308   C175    1.086   1_655 S
H314   O322    0.992   .     S
H315   O323    0.992   .     S
H316   O324    0.990   .     S
O317   Zn333   1.962   .     S
O317   Zn334   1.933   .     S
O317   Zn335   1.945   .     S
O317   Zn336   1.931   .     S
O318   Zn334   1.933   .     S
O319   Zn336   1.939   .     S
O320   Zn335   1.927   .     S
O321   Zn333   1.923   .     S
O325   Zn333   1.930   .     S
O326   Zn336   1.939   .     S
O327   Zn334   1.928   .     S
O328   Zn335   1.935   .     S
O329   Zn336   1.929   .     S
O330   Zn333   1.926   .     S
O331   Zn334   1.944   .     S
O332   Zn335   1.932   .     S
C337   O383    1.267   .     A
C337   C343    1.437   .     S
C337   O385    1.267   .     A
C338   C352    1.388   .     A
C338   H366    1.076   .     S
C338   C357    1.413   .     A
C339   C351    1.391   .     A
C339   F361    1.359   .     S
C339   C352    1.395   .     A
C340   C342    1.454   .     S
C340   O384    1.285   .     A
C340   O386    1.282   .     A
C341   C356    1.426   .     A
C341   C350    1.481   .     S
C341   C353    1.414   .     A
C342   C399    1.334   .     S
C342   H425    1.088   .     S
C343   C454    1.334   1_455 S
C343   H476    1.086   1_455 S
C344   C347    1.452   .     S
C344   C9      1.336   1_565 S
C344   H29     1.088   1_565 S
C345   C346    1.432   .     S
C346   O381    1.273   .     A
C346   O387    1.273   .     A
C347   O388    1.274   .     A
C347   O382    1.271   .     A
C348   C353    1.396   .     A
C348   H368    1.083   .     S
C348   C858    1.385   .     S
C349   O374    1.269   .     A
C349   C352    1.456   .     S
C349   O376    1.281   .     A
C350   O377    1.288   .     A
C350   O375    1.281   .     A
C351   O378    1.375   .     S
C351   C862    1.421   1_554 S
C353   O379    1.383   .     S
C354   H367    1.075   .     S
C354   C852    1.385   1_554 S
C354   C859    1.416   1_554 S
C355   C356    1.423   .     A
C355   C858    1.416   .     S
C355   C861    1.426   .     S
C356   C360    1.417   .     A
C357   C859    1.426   1_554 S
C357   C862    1.427   1_554 S
C358   C359    1.406   .     A
C358   C861    1.427   .     S
C358   C855    1.421   .     S
C359   C360    1.402   .     A
C359   F363    1.359   .     S
C360   O380    1.385   .     S
F362   C9      1.361   1_565 S
H364   C399    1.086   .     S
H369   C454    1.088   1_455 S
H370   O378    0.992   .     S
H371   O379    0.992   .     S
H372   O380    0.990   .     S
O373   Zn389   1.962   .     S
O373   Zn390   1.933   .     S
O373   Zn391   1.945   .     S
O373   Zn392   1.931   .     S
O374   Zn390   1.933   .     S
O375   Zn392   1.939   .     S
O376   Zn391   1.927   .     S
O377   Zn389   1.923   .     S
O381   Zn389   1.930   .     S
O382   Zn392   1.939   .     S
O383   Zn390   1.928   .     S
O384   Zn391   1.935   .     S
O385   Zn392   1.929   .     S
O386   Zn389   1.926   .     S
O387   Zn390   1.944   .     S
O388   Zn391   1.932   .     S
C393   O439    1.267   .     A
C393   C399    1.437   .     S
C393   O441    1.267   .     A
C394   C408    1.388   .     A
C394   H422    1.076   .     S
C394   C413    1.413   .     A
C395   C407    1.391   .     A
C395   F417    1.359   .     S
C395   C408    1.395   .     A
C396   C398    1.454   .     S
C396   O440    1.285   .     A
C396   O442    1.282   .     A
C397   C412    1.426   .     A
C397   C406    1.481   .     S
C397   C409    1.414   .     A
C398   C455    1.334   .     S
C398   H481    1.088   .     S
C400   C403    1.452   .     S
C400   C65     1.336   1_565 S
C400   H85     1.088   1_565 S
C401   C402    1.432   .     S
C402   O437    1.273   .     A
C402   O443    1.273   .     A
C403   O444    1.274   .     A
C403   O438    1.271   .     A
C404   C409    1.396   .     A
C404   H424    1.083   .     S
C404   C914    1.385   .     S
C405   O430    1.269   .     A
C405   C408    1.456   .     S
C405   O432    1.281   .     A
C406   O433    1.288   .     A
C406   O431    1.281   .     A
C407   O434    1.375   .     S
C407   C918    1.421   1_554 S
C409   O435    1.383   .     S
C410   H423    1.075   .     S
C410   C908    1.385   1_554 S
C410   C915    1.416   1_554 S
C411   C412    1.423   .     A
C411   C914    1.416   .     S
C411   C917    1.426   .     S
C412   C416    1.417   .     A
C413   C915    1.426   1_554 S
C413   C918    1.427   1_554 S
C414   C415    1.406   .     A
C414   C917    1.427   .     S
C414   C911    1.421   .     S
C415   C416    1.402   .     A
C415   F419    1.359   .     S
C416   O436    1.385   .     S
F418   C65     1.361   1_565 S
H420   C455    1.086   .     S
H426   O434    0.992   .     S
H427   O435    0.992   .     S
H428   O436    0.990   .     S
O429   Zn445   1.962   .     S
O429   Zn446   1.933   .     S
O429   Zn447   1.945   .     S
O429   Zn448   1.931   .     S
O430   Zn446   1.933   .     S
O431   Zn448   1.939   .     S
O432   Zn447   1.927   .     S
O433   Zn445   1.923   .     S
O437   Zn445   1.930   .     S
O438   Zn448   1.939   .     S
O439   Zn446   1.928   .     S
O440   Zn447   1.935   .     S
O441   Zn448   1.929   .     S
O442   Zn445   1.926   .     S
O443   Zn446   1.944   .     S
O444   Zn447   1.932   .     S
C449   O495    1.267   .     A
C449   C455    1.437   .     S
C449   O497    1.267   .     A
C450   C464    1.388   .     A
C450   H478    1.076   .     S
C450   C469    1.413   .     A
C451   C463    1.391   .     A
C451   F473    1.359   .     S
C451   C464    1.395   .     A
C452   C454    1.454   .     S
C452   O496    1.285   .     A
C452   O498    1.282   .     A
C453   C468    1.426   .     A
C453   C462    1.481   .     S
C453   C465    1.414   .     A
C454   C343    1.334   1_655 S
C454   H369    1.088   1_655 S
C456   C459    1.452   .     S
C456   C121    1.336   1_565 S
C456   H141    1.088   1_565 S
C457   C458    1.432   .     S
C458   O493    1.273   .     A
C458   O499    1.273   .     A
C459   O500    1.274   .     A
C459   O494    1.271   .     A
C460   C465    1.396   .     A
C460   H480    1.083   .     S
C460   C970    1.385   .     S
C461   O486    1.269   .     A
C461   C464    1.456   .     S
C461   O488    1.281   .     A
C462   O489    1.288   .     A
C462   O487    1.281   .     A
C463   O490    1.375   .     S
C463   C974    1.421   1_554 S
C465   O491    1.383   .     S
C466   H479    1.075   .     S
C466   C964    1.385   1_554 S
C466   C971    1.416   1_554 S
C467   C468    1.423   .     A
C467   C970    1.416   .     S
C467   C973    1.426   .     S
C468   C472    1.417   .     A
C469   C971    1.426   1_554 S
C469   C974    1.427   1_554 S
C470   C471    1.406   .     A
C470   C973    1.427   .     S
C470   C967    1.421   .     S
C471   C472    1.402   .     A
C471   F475    1.359   .     S
C472   O492    1.385   .     S
F474   C121    1.361   1_565 S
H476   C343    1.086   1_655 S
H482   O490    0.992   .     S
H483   O491    0.992   .     S
H484   O492    0.990   .     S
O485   Zn501   1.962   .     S
O485   Zn502   1.933   .     S
O485   Zn503   1.945   .     S
O485   Zn504   1.931   .     S
O486   Zn502   1.933   .     S
O487   Zn504   1.939   .     S
O488   Zn503   1.927   .     S
O489   Zn501   1.923   .     S
O493   Zn501   1.930   .     S
O494   Zn504   1.939   .     S
O495   Zn502   1.928   .     S
O496   Zn503   1.935   .     S
O497   Zn504   1.929   .     S
O498   Zn501   1.926   .     S
O499   Zn502   1.944   .     S
O500   Zn503   1.932   .     S
C505   O551    1.267   .     A
C505   C511    1.437   .     S
C505   O553    1.267   .     A
C506   C520    1.388   .     A
C506   H534    1.076   .     S
C506   C525    1.413   .     A
C507   C519    1.391   .     A
C507   F529    1.359   .     S
C507   C520    1.395   .     A
C508   C510    1.454   .     S
C508   O552    1.285   .     A
C508   O554    1.282   .     A
C509   C524    1.426   .     A
C509   C518    1.481   .     S
C509   C521    1.414   .     A
C510   C567    1.334   .     S
C510   H593    1.088   .     S
C511   C622    1.334   1_455 S
C511   H644    1.086   1_455 S
C512   C515    1.452   .     S
C512   C681    1.336   .     S
C512   H701    1.088   .     S
C513   C514    1.432   .     S
C513   C848    1.336   1_545 S
C513   F866    1.361   1_545 S
C514   O549    1.273   .     A
C514   O555    1.273   .     A
C515   O556    1.274   .     A
C515   O550    1.271   .     A
C516   C521    1.396   .     A
C516   H536    1.083   .     S
C516   C18     1.385   1_556 S
C517   O542    1.269   .     A
C517   C520    1.456   .     S
C517   O544    1.281   .     A
C518   O545    1.288   .     A
C518   O543    1.281   .     A
C519   O546    1.375   .     S
C521   O547    1.383   .     S
C522   H535    1.075   .     S
C523   C524    1.423   .     A
C523   C18     1.416   1_556 S
C523   C21     1.426   1_556 S
C524   C528    1.417   .     A
C526   C527    1.406   .     A
C526   C21     1.427   1_556 S
C526   C15     1.421   1_556 S
C527   C528    1.402   .     A
C527   F531    1.359   .     S
C528   O548    1.385   .     S
F530   C681    1.361   .     S
H532   C567    1.086   .     S
H533   C848    1.088   1_545 S
H537   C622    1.088   1_455 S
H538   O546    0.992   .     S
H539   O547    0.992   .     S
H540   O548    0.990   .     S
O541   Zn557   1.962   .     S
O541   Zn558   1.933   .     S
O541   Zn559   1.945   .     S
O541   Zn560   1.931   .     S
O542   Zn558   1.933   .     S
O543   Zn560   1.939   .     S
O544   Zn559   1.927   .     S
O545   Zn557   1.923   .     S
O549   Zn557   1.930   .     S
O550   Zn560   1.939   .     S
O551   Zn558   1.928   .     S
O552   Zn559   1.935   .     S
O553   Zn560   1.929   .     S
O554   Zn557   1.926   .     S
O555   Zn558   1.944   .     S
O556   Zn559   1.932   .     S
C561   O607    1.267   .     A
C561   C567    1.437   .     S
C561   O609    1.267   .     A
C562   C576    1.388   .     A
C562   H590    1.076   .     S
C562   C581    1.413   .     A
C563   C575    1.391   .     A
C563   F585    1.359   .     S
C563   C576    1.395   .     A
C564   C566    1.454   .     S
C564   O608    1.285   .     A
C564   O610    1.282   .     A
C565   C580    1.426   .     A
C565   C574    1.481   .     S
C565   C577    1.414   .     A
C566   C623    1.334   .     S
C566   H649    1.088   .     S
C568   C571    1.452   .     S
C568   C737    1.336   .     S
C568   H757    1.088   .     S
C569   C570    1.432   .     S
C569   C904    1.336   1_545 S
C569   F922    1.361   1_545 S
C570   O605    1.273   .     A
C570   O611    1.273   .     A
C571   O612    1.274   .     A
C571   O606    1.271   .     A
C572   C577    1.396   .     A
C572   H592    1.083   .     S
C572   C74     1.385   1_556 S
C573   O598    1.269   .     A
C573   C576    1.456   .     S
C573   O600    1.281   .     A
C574   O601    1.288   .     A
C574   O599    1.281   .     A
C575   O602    1.375   .     S
C577   O603    1.383   .     S
C578   H591    1.075   .     S
C579   C580    1.423   .     A
C579   C74     1.416   1_556 S
C579   C77     1.426   1_556 S
C580   C584    1.417   .     A
C582   C583    1.406   .     A
C582   C77     1.427   1_556 S
C582   C71     1.421   1_556 S
C583   C584    1.402   .     A
C583   F587    1.359   .     S
C584   O604    1.385   .     S
F586   C737    1.361   .     S
H588   C623    1.086   .     S
H589   C904    1.088   1_545 S
H594   O602    0.992   .     S
H595   O603    0.992   .     S
H596   O604    0.990   .     S
O597   Zn613   1.962   .     S
O597   Zn614   1.933   .     S
O597   Zn615   1.945   .     S
O597   Zn616   1.931   .     S
O598   Zn614   1.933   .     S
O599   Zn616   1.939   .     S
O600   Zn615   1.927   .     S
O601   Zn613   1.923   .     S
O605   Zn613   1.930   .     S
O606   Zn616   1.939   .     S
O607   Zn614   1.928   .     S
O608   Zn615   1.935   .     S
O609   Zn616   1.929   .     S
O610   Zn613   1.926   .     S
O611   Zn614   1.944   .     S
O612   Zn615   1.932   .     S
C617   O663    1.267   .     A
C617   C623    1.437   .     S
C617   O665    1.267   .     A
C618   C632    1.388   .     A
C618   H646    1.076   .     S
C618   C637    1.413   .     A
C619   C631    1.391   .     A
C619   F641    1.359   .     S
C619   C632    1.395   .     A
C620   C622    1.454   .     S
C620   O664    1.285   .     A
C620   O666    1.282   .     A
C621   C636    1.426   .     A
C621   C630    1.481   .     S
C621   C633    1.414   .     A
C622   C511    1.334   1_655 S
C622   H537    1.088   1_655 S
C624   C627    1.452   .     S
C624   C793    1.336   .     S
C624   H813    1.088   .     S
C625   C626    1.432   .     S
C625   C960    1.336   1_545 S
C625   F978    1.361   1_545 S
C626   O661    1.273   .     A
C626   O667    1.273   .     A
C627   O668    1.274   .     A
C627   O662    1.271   .     A
C628   C633    1.396   .     A
C628   H648    1.083   .     S
C628   C130    1.385   1_556 S
C629   O654    1.269   .     A
C629   C632    1.456   .     S
C629   O656    1.281   .     A
C630   O657    1.288   .     A
C630   O655    1.281   .     A
C631   O658    1.375   .     S
C633   O659    1.383   .     S
C634   H647    1.075   .     S
C635   C636    1.423   .     A
C635   C130    1.416   1_556 S
C635   C133    1.426   1_556 S
C636   C640    1.417   .     A
C638   C639    1.406   .     A
C638   C133    1.427   1_556 S
C638   C127    1.421   1_556 S
C639   C640    1.402   .     A
C639   F643    1.359   .     S
C640   O660    1.385   .     S
F642   C793    1.361   .     S
H644   C511    1.086   1_655 S
H645   C960    1.088   1_545 S
H650   O658    0.992   .     S
H651   O659    0.992   .     S
H652   O660    0.990   .     S
O653   Zn669   1.962   .     S
O653   Zn670   1.933   .     S
O653   Zn671   1.945   .     S
O653   Zn672   1.931   .     S
O654   Zn670   1.933   .     S
O655   Zn672   1.939   .     S
O656   Zn671   1.927   .     S
O657   Zn669   1.923   .     S
O661   Zn669   1.930   .     S
O662   Zn672   1.939   .     S
O663   Zn670   1.928   .     S
O664   Zn671   1.935   .     S
O665   Zn672   1.929   .     S
O666   Zn669   1.926   .     S
O667   Zn670   1.944   .     S
O668   Zn671   1.932   .     S
C673   O719    1.267   .     A
C673   C679    1.437   .     S
C673   O721    1.267   .     A
C674   C688    1.388   .     A
C674   H702    1.076   .     S
C674   C693    1.413   .     A
C675   C687    1.391   .     A
C675   F697    1.359   .     S
C675   C688    1.395   .     A
C676   C678    1.454   .     S
C676   O720    1.285   .     A
C676   O722    1.282   .     A
C677   C692    1.426   .     A
C677   C686    1.481   .     S
C677   C689    1.414   .     A
C678   C735    1.334   .     S
C678   H761    1.088   .     S
C679   C790    1.334   1_455 S
C679   H812    1.086   1_455 S
C680   C683    1.452   .     S
C680   C849    1.336   .     S
C680   H869    1.088   .     S
C681   C682    1.432   .     S
C682   O717    1.273   .     A
C682   O723    1.273   .     A
C683   O724    1.274   .     A
C683   O718    1.271   .     A
C684   C689    1.396   .     A
C684   H704    1.083   .     S
C684   C186    1.385   1_556 S
C685   O710    1.269   .     A
C685   C688    1.456   .     S
C685   O712    1.281   .     A
C686   O713    1.288   .     A
C686   O711    1.281   .     A
C687   O714    1.375   .     S
C689   O715    1.383   .     S
C690   H703    1.075   .     S
C691   C692    1.423   .     A
C691   C186    1.416   1_556 S
C691   C189    1.426   1_556 S
C692   C696    1.417   .     A
C694   C695    1.406   .     A
C694   C189    1.427   1_556 S
C694   C183    1.421   1_556 S
C695   C696    1.402   .     A
C695   F699    1.359   .     S
C696   O716    1.385   .     S
F698   C849    1.361   .     S
H700   C735    1.086   .     S
H705   C790    1.088   1_455 S
H706   O714    0.992   .     S
H707   O715    0.992   .     S
H708   O716    0.990   .     S
O709   Zn725   1.962   .     S
O709   Zn726   1.933   .     S
O709   Zn727   1.945   .     S
O709   Zn728   1.931   .     S
O710   Zn726   1.933   .     S
O711   Zn728   1.939   .     S
O712   Zn727   1.927   .     S
O713   Zn725   1.923   .     S
O717   Zn725   1.930   .     S
O718   Zn728   1.939   .     S
O719   Zn726   1.928   .     S
O720   Zn727   1.935   .     S
O721   Zn728   1.929   .     S
O722   Zn725   1.926   .     S
O723   Zn726   1.944   .     S
O724   Zn727   1.932   .     S
C729   O775    1.267   .     A
C729   C735    1.437   .     S
C729   O777    1.267   .     A
C730   C744    1.388   .     A
C730   H758    1.076   .     S
C730   C749    1.413   .     A
C731   C743    1.391   .     A
C731   F753    1.359   .     S
C731   C744    1.395   .     A
C732   C734    1.454   .     S
C732   O776    1.285   .     A
C732   O778    1.282   .     A
C733   C748    1.426   .     A
C733   C742    1.481   .     S
C733   C745    1.414   .     A
C734   C791    1.334   .     S
C734   H817    1.088   .     S
C736   C739    1.452   .     S
C736   C905    1.336   .     S
C736   H925    1.088   .     S
C737   C738    1.432   .     S
C738   O773    1.273   .     A
C738   O779    1.273   .     A
C739   O780    1.274   .     A
C739   O774    1.271   .     A
C740   C745    1.396   .     A
C740   H760    1.083   .     S
C740   C242    1.385   1_556 S
C741   O766    1.269   .     A
C741   C744    1.456   .     S
C741   O768    1.281   .     A
C742   O769    1.288   .     A
C742   O767    1.281   .     A
C743   O770    1.375   .     S
C745   O771    1.383   .     S
C746   H759    1.075   .     S
C747   C748    1.423   .     A
C747   C242    1.416   1_556 S
C747   C245    1.426   1_556 S
C748   C752    1.417   .     A
C750   C751    1.406   .     A
C750   C245    1.427   1_556 S
C750   C239    1.421   1_556 S
C751   C752    1.402   .     A
C751   F755    1.359   .     S
C752   O772    1.385   .     S
F754   C905    1.361   .     S
H756   C791    1.086   .     S
H762   O770    0.992   .     S
H763   O771    0.992   .     S
H764   O772    0.990   .     S
O765   Zn781   1.962   .     S
O765   Zn782   1.933   .     S
O765   Zn783   1.945   .     S
O765   Zn784   1.931   .     S
O766   Zn782   1.933   .     S
O767   Zn784   1.939   .     S
O768   Zn783   1.927   .     S
O769   Zn781   1.923   .     S
O773   Zn781   1.930   .     S
O774   Zn784   1.939   .     S
O775   Zn782   1.928   .     S
O776   Zn783   1.935   .     S
O777   Zn784   1.929   .     S
O778   Zn781   1.926   .     S
O779   Zn782   1.944   .     S
O780   Zn783   1.932   .     S
C785   O831    1.267   .     A
C785   C791    1.437   .     S
C785   O833    1.267   .     A
C786   C800    1.388   .     A
C786   H814    1.076   .     S
C786   C805    1.413   .     A
C787   C799    1.391   .     A
C787   F809    1.359   .     S
C787   C800    1.395   .     A
C788   C790    1.454   .     S
C788   O832    1.285   .     A
C788   O834    1.282   .     A
C789   C804    1.426   .     A
C789   C798    1.481   .     S
C789   C801    1.414   .     A
C790   C679    1.334   1_655 S
C790   H705    1.088   1_655 S
C792   C795    1.452   .     S
C792   C961    1.336   .     S
C792   H981    1.088   .     S
C793   C794    1.432   .     S
C794   O829    1.273   .     A
C794   O835    1.273   .     A
C795   O836    1.274   .     A
C795   O830    1.271   .     A
C796   C801    1.396   .     A
C796   H816    1.083   .     S
C796   C298    1.385   1_556 S
C797   O822    1.269   .     A
C797   C800    1.456   .     S
C797   O824    1.281   .     A
C798   O825    1.288   .     A
C798   O823    1.281   .     A
C799   O826    1.375   .     S
C801   O827    1.383   .     S
C802   H815    1.075   .     S
C803   C804    1.423   .     A
C803   C298    1.416   1_556 S
C803   C301    1.426   1_556 S
C804   C808    1.417   .     A
C806   C807    1.406   .     A
C806   C301    1.427   1_556 S
C806   C295    1.421   1_556 S
C807   C808    1.402   .     A
C807   F811    1.359   .     S
C808   O828    1.385   .     S
F810   C961    1.361   .     S
H812   C679    1.086   1_655 S
H818   O826    0.992   .     S
H819   O827    0.992   .     S
H820   O828    0.990   .     S
O821   Zn837   1.962   .     S
O821   Zn838   1.933   .     S
O821   Zn839   1.945   .     S
O821   Zn840   1.931   .     S
O822   Zn838   1.933   .     S
O823   Zn840   1.939   .     S
O824   Zn839   1.927   .     S
O825   Zn837   1.923   .     S
O829   Zn837   1.930   .     S
O830   Zn840   1.939   .     S
O831   Zn838   1.928   .     S
O832   Zn839   1.935   .     S
O833   Zn840   1.929   .     S
O834   Zn837   1.926   .     S
O835   Zn838   1.944   .     S
O836   Zn839   1.932   .     S
C841   O887    1.267   .     A
C841   C847    1.437   .     S
C841   O889    1.267   .     A
C842   C856    1.388   .     A
C842   H870    1.076   .     S
C842   C861    1.413   .     A
C843   C855    1.391   .     A
C843   F865    1.359   .     S
C843   C856    1.395   .     A
C844   C846    1.454   .     S
C844   O888    1.285   .     A
C844   O890    1.282   .     A
C845   C860    1.426   .     A
C845   C854    1.481   .     S
C845   C857    1.414   .     A
C846   C903    1.334   .     S
C846   H929    1.088   .     S
C847   C958    1.334   1_455 S
C847   H980    1.086   1_455 S
C848   C851    1.452   .     S
C848   C513    1.336   1_565 S
C848   H533    1.088   1_565 S
C849   C850    1.432   .     S
C850   O885    1.273   .     A
C850   O891    1.273   .     A
C851   O892    1.274   .     A
C851   O886    1.271   .     A
C852   C857    1.396   .     A
C852   H872    1.083   .     S
C852   C354    1.385   1_556 S
C853   O878    1.269   .     A
C853   C856    1.456   .     S
C853   O880    1.281   .     A
C854   O881    1.288   .     A
C854   O879    1.281   .     A
C855   O882    1.375   .     S
C857   O883    1.383   .     S
C858   H871    1.075   .     S
C859   C860    1.423   .     A
C859   C354    1.416   1_556 S
C859   C357    1.426   1_556 S
C860   C864    1.417   .     A
C862   C863    1.406   .     A
C862   C357    1.427   1_556 S
C862   C351    1.421   1_556 S
C863   C864    1.402   .     A
C863   F867    1.359   .     S
C864   O884    1.385   .     S
F866   C513    1.361   1_565 S
H868   C903    1.086   .     S
H873   C958    1.088   1_455 S
H874   O882    0.992   .     S
H875   O883    0.992   .     S
H876   O884    0.990   .     S
O877   Zn893   1.962   .     S
O877   Zn894   1.933   .     S
O877   Zn895   1.945   .     S
O877   Zn896   1.931   .     S
O878   Zn894   1.933   .     S
O879   Zn896   1.939   .     S
O880   Zn895   1.927   .     S
O881   Zn893   1.923   .     S
O885   Zn893   1.930   .     S
O886   Zn896   1.939   .     S
O887   Zn894   1.928   .     S
O888   Zn895   1.935   .     S
O889   Zn896   1.929   .     S
O890   Zn893   1.926   .     S
O891   Zn894   1.944   .     S
O892   Zn895   1.932   .     S
C897   O943    1.267   .     A
C897   C903    1.437   .     S
C897   O945    1.267   .     A
C898   C912    1.388   .     A
C898   H926    1.076   .     S
C898   C917    1.413   .     A
C899   C911    1.391   .     A
C899   F921    1.359   .     S
C899   C912    1.395   .     A
C900   C902    1.454   .     S
C900   O944    1.285   .     A
C900   O946    1.282   .     A
C901   C916    1.426   .     A
C901   C910    1.481   .     S
C901   C913    1.414   .     A
C902   C959    1.334   .     S
C902   H985    1.088   .     S
C904   C907    1.452   .     S
C904   C569    1.336   1_565 S
C904   H589    1.088   1_565 S
C905   C906    1.432   .     S
C906   O941    1.273   .     A
C906   O947    1.273   .     A
C907   O948    1.274   .     A
C907   O942    1.271   .     A
C908   C913    1.396   .     A
C908   H928    1.083   .     S
C908   C410    1.385   1_556 S
C909   O934    1.269   .     A
C909   C912    1.456   .     S
C909   O936    1.281   .     A
C910   O937    1.288   .     A
C910   O935    1.281   .     A
C911   O938    1.375   .     S
C913   O939    1.383   .     S
C914   H927    1.075   .     S
C915   C916    1.423   .     A
C915   C410    1.416   1_556 S
C915   C413    1.426   1_556 S
C916   C920    1.417   .     A
C918   C919    1.406   .     A
C918   C413    1.427   1_556 S
C918   C407    1.421   1_556 S
C919   C920    1.402   .     A
C919   F923    1.359   .     S
C920   O940    1.385   .     S
F922   C569    1.361   1_565 S
H924   C959    1.086   .     S
H930   O938    0.992   .     S
H931   O939    0.992   .     S
H932   O940    0.990   .     S
O933   Zn949   1.962   .     S
O933   Zn950   1.933   .     S
O933   Zn951   1.945   .     S
O933   Zn952   1.931   .     S
O934   Zn950   1.933   .     S
O935   Zn952   1.939   .     S
O936   Zn951   1.927   .     S
O937   Zn949   1.923   .     S
O941   Zn949   1.930   .     S
O942   Zn952   1.939   .     S
O943   Zn950   1.928   .     S
O944   Zn951   1.935   .     S
O945   Zn952   1.929   .     S
O946   Zn949   1.926   .     S
O947   Zn950   1.944   .     S
O948   Zn951   1.932   .     S
C953   O999    1.267   .     A
C953   C959    1.437   .     S
C953   O1001   1.267   .     A
C954   C968    1.388   .     A
C954   H982    1.076   .     S
C954   C973    1.413   .     A
C955   C967    1.391   .     A
C955   F977    1.359   .     S
C955   C968    1.395   .     A
C956   C958    1.454   .     S
C956   O1000   1.285   .     A
C956   O1002   1.282   .     A
C957   C972    1.426   .     A
C957   C966    1.481   .     S
C957   C969    1.414   .     A
C958   C847    1.334   1_655 S
C958   H873    1.088   1_655 S
C960   C963    1.452   .     S
C960   C625    1.336   1_565 S
C960   H645    1.088   1_565 S
C961   C962    1.432   .     S
C962   O997    1.273   .     A
C962   O1003   1.273   .     A
C963   O1004   1.274   .     A
C963   O998    1.271   .     A
C964   C969    1.396   .     A
C964   H984    1.083   .     S
C964   C466    1.385   1_556 S
C965   O990    1.269   .     A
C965   C968    1.456   .     S
C965   O992    1.281   .     A
C966   O993    1.288   .     A
C966   O991    1.281   .     A
C967   O994    1.375   .     S
C969   O995    1.383   .     S
C970   H983    1.075   .     S
C971   C972    1.423   .     A
C971   C466    1.416   1_556 S
C971   C469    1.426   1_556 S
C972   C976    1.417   .     A
C974   C975    1.406   .     A
C974   C469    1.427   1_556 S
C974   C463    1.421   1_556 S
C975   C976    1.402   .     A
C975   F979    1.359   .     S
C976   O996    1.385   .     S
F978   C625    1.361   1_565 S
H980   C847    1.086   1_655 S
H986   O994    0.992   .     S
H987   O995    0.992   .     S
H988   O996    0.990   .     S
O989   Zn1005  1.962   .     S
O989   Zn1006  1.933   .     S
O989   Zn1007  1.945   .     S
O989   Zn1008  1.931   .     S
O990   Zn1006  1.933   .     S
O991   Zn1008  1.939   .     S
O992   Zn1007  1.927   .     S
O993   Zn1005  1.923   .     S
O997   Zn1005  1.930   .     S
O998   Zn1008  1.939   .     S
O999   Zn1006  1.928   .     S
O1000  Zn1007  1.935   .     S
O1001  Zn1008  1.929   .     S
O1002  Zn1005  1.926   .     S
O1003  Zn1006  1.944   .     S
O1004  Zn1007  1.932   .     S
