data_str_m3_o1_o17_pcu_sym.91
_audit_creation_date              2020-01-03
_audit_creation_method            'Materials Studio'
_symmetry_space_group_name_H-M    'P1'
_symmetry_Int_Tables_number       1
_symmetry_cell_setting            triclinic
loop_
_symmetry_equiv_pos_as_xyz
  x,y,z
_cell_length_a                    32.0261
_cell_length_b                    29.5125
_cell_length_c                    30.0309
_cell_angle_alpha                 89.0437
_cell_angle_beta                  91.5464
_cell_angle_gamma                 89.9976
loop_
_atom_site_label
_atom_site_type_symbol
_atom_site_fract_x
_atom_site_fract_y
_atom_site_fract_z
_atom_site_U_iso_or_equiv
_atom_site_adp_type
_atom_site_occupancy
C1     C     0.08666   0.16662   0.25050   0.00000  Uiso   1.00
C2     C     0.04250   0.16661   0.25015   0.00000  Uiso   1.00
C3     C     0.19468   0.02355   0.27610   0.00000  Uiso   1.00
C4     C     0.13856   0.30980   0.22404   0.00000  Uiso   1.00
C5     C     0.13859   0.02443   0.22399   0.00000  Uiso   1.00
C6     C     0.19469   0.30890   0.27609   0.00000  Uiso   1.00
C7     C     0.16518   0.16717   0.16352   0.00000  Uiso   1.00
C8     C     0.16768   0.16632   0.33655   0.00000  Uiso   1.00
C9     C     0.20291   0.15214   0.40921   0.00000  Uiso   1.00
C10    C     0.12855   0.18072   0.09185   0.00000  Uiso   1.00
C11    C     0.16721   0.16626   0.38434   0.00000  Uiso   1.00
C12    C     0.24665   0.16674   0.24906   0.00000  Uiso   1.00
C13    C     0.16549   0.16915   0.11579   0.00000  Uiso   1.00
C14    C     0.13219   0.18440   0.40474   0.00000  Uiso   1.00
C15    C     0.20344   0.16248   0.09491   0.00000  Uiso   1.00
C16    C     0.13176   0.18530   0.45122   0.00000  Uiso   1.00
C17    C     0.20397   0.16355   0.04851   0.00000  Uiso   1.00
C18    C     0.16819   0.17400   0.47656   0.00000  Uiso   1.00
C19    C     0.16727   0.17477   0.02340   0.00000  Uiso   1.00
C20    C     0.20513   0.16057   0.45517   0.00000  Uiso   1.00
C21    C     0.12963   0.18599   0.04498   0.00000  Uiso   1.00
C22    C     0.09548   0.19798   0.47255   0.00000  Uiso   1.00
C23    C     0.09445   0.20051   0.01856   0.00000  Uiso   1.00
C24    C     0.24104   0.15399   0.02696   0.00000  Uiso   1.00
C25    C     0.26022   0.13873   0.35753   0.00000  Uiso   1.00
C26    C     0.07920   0.22127   0.13823   0.00000  Uiso   1.00
C27    C     0.09194   0.24685   0.37163   0.00000  Uiso   1.00
C28    C     0.26546   0.19360   0.13067   0.00000  Uiso   1.00
C29    C     0.05814   0.22446   0.03618   0.00000  Uiso   1.00
C30    C     0.28430   0.15246   0.46112   0.00000  Uiso   1.00
C31    C     0.24247   0.15385   0.48085   0.00000  Uiso   1.00
C32    C     0.02108   0.12773   0.23674   0.00000  Uiso   1.00
C33    C     0.31222   0.20582   0.26207   0.00000  Uiso   1.00
C34    C     0.31166   0.12787   0.23610   0.00000  Uiso   1.00
C35    C     0.02162   0.20569   0.26270   0.00000  Uiso   1.00
C36    C     0.29079   0.16687   0.24889   0.00000  Uiso   1.00
H37    H     0.06767   0.20763   0.45332   0.00000  Uiso   1.00
H38    H     0.21708   0.29035   0.29694   0.00000  Uiso   1.00
H39    H     0.21973   0.09009   0.38374   0.00000  Uiso   1.00
H40    H     0.29294   0.13183   0.36861   0.00000  Uiso   1.00
H41    H     0.25627   0.17576   0.35136   0.00000  Uiso   1.00
H42    H     0.25504   0.12007   0.32635   0.00000  Uiso   1.00
H43    H     0.06548   0.16338   0.10011   0.00000  Uiso   1.00
H44    H     0.04726   0.23267   0.12805   0.00000  Uiso   1.00
H45    H     0.10177   0.24919   0.13212   0.00000  Uiso   1.00
H46    H     0.07854   0.21381   0.17411   0.00000  Uiso   1.00
H47    H     0.08975   0.17999   0.35058   0.00000  Uiso   1.00
H48    H     0.26970   0.14761   0.04603   0.00000  Uiso   1.00
H49    H     0.11665   0.25975   0.34957   0.00000  Uiso   1.00
H50    H     0.09406   0.26507   0.40366   0.00000  Uiso   1.00
H51    H     0.06102   0.25437   0.35558   0.00000  Uiso   1.00
H52    H     0.23806   0.13202   0.14739   0.00000  Uiso   1.00
H53    H     0.24835   0.21566   0.15360   0.00000  Uiso   1.00
H54    H     0.27239   0.21305   0.09975   0.00000  Uiso   1.00
H55    H     0.29557   0.18329   0.14702   0.00000  Uiso   1.00
H56    H     0.06310   0.25346   0.05724   0.00000  Uiso   1.00
H57    H     0.29094   0.17392   0.43261   0.00000  Uiso   1.00
H58    H     0.03724   0.09756   0.22643   0.00000  Uiso   1.00
H59    H     0.29608   0.23601   0.27238   0.00000  Uiso   1.00
H60    H     0.29503   0.09779   0.22542   0.00000  Uiso   1.00
H61    H     0.03821   0.23581   0.27327   0.00000  Uiso   1.00
H62    H     0.21705   0.04139   0.29698   0.00000  Uiso   1.00
H63    H     0.11604   0.29199   0.20338   0.00000  Uiso   1.00
H64    H     0.11614   0.04297   0.20321   0.00000  Uiso   1.00
N65    N     0.16667   0.28573   0.25000   0.00000  Uiso   1.00
N66    N     0.16667   0.04760   0.25000   0.00000  Uiso   1.00
N67    N     0.23205   0.12157   0.39070   0.00000  Uiso   1.00
N68    N     0.09009   0.18050   0.11491   0.00000  Uiso   1.00
N69    N     0.09610   0.19838   0.37885   0.00000  Uiso   1.00
N70    N     0.24104   0.15367   0.12040   0.00000  Uiso   1.00
O71    O     0.10559   0.20487   0.25000   0.00000  Uiso   1.00
O72    O     0.31209   0.12868   0.47753   0.00000  Uiso   1.00
O73    O     0.22774   0.12846   0.25001   0.00000  Uiso   1.00
O74    O     0.22774   0.20487   0.25001   0.00000  Uiso   1.00
O75    O     0.10559   0.12846   0.25000   0.00000  Uiso   1.00
O76    O     0.16666   0.20489   0.18393   0.00000  Uiso   1.00
O77    O     0.16667   0.12844   0.31608   0.00000  Uiso   1.00
O78    O     0.16667   0.20489   0.31608   0.00000  Uiso   1.00
O79    O     0.16666   0.12844   0.18393   0.00000  Uiso   1.00
O80    O     0.02258   0.21338   0.02549   0.00000  Uiso   1.00
Zn81   Zn    0.16667   0.21771   0.25000   0.00000  Uiso   1.00
Zn82   Zn    0.16667   0.11563   0.25000   0.00000  Uiso   1.00
C83    C     0.41999   0.16662   0.25050   0.00000  Uiso   1.00
C84    C     0.37584   0.16661   0.25015   0.00000  Uiso   1.00
C85    C     0.52801   0.02355   0.27610   0.00000  Uiso   1.00
C86    C     0.47190   0.30980   0.22404   0.00000  Uiso   1.00
C87    C     0.47192   0.02443   0.22399   0.00000  Uiso   1.00
C88    C     0.52802   0.30890   0.27609   0.00000  Uiso   1.00
C89    C     0.49851   0.16717   0.16352   0.00000  Uiso   1.00
C90    C     0.50102   0.16632   0.33655   0.00000  Uiso   1.00
C91    C     0.53624   0.15214   0.40921   0.00000  Uiso   1.00
C92    C     0.46188   0.18072   0.09185   0.00000  Uiso   1.00
C93    C     0.50054   0.16626   0.38434   0.00000  Uiso   1.00
C94    C     0.57998   0.16674   0.24906   0.00000  Uiso   1.00
C95    C     0.49882   0.16915   0.11579   0.00000  Uiso   1.00
C96    C     0.46552   0.18440   0.40474   0.00000  Uiso   1.00
C97    C     0.53677   0.16248   0.09491   0.00000  Uiso   1.00
C98    C     0.46509   0.18530   0.45122   0.00000  Uiso   1.00
C99    C     0.53731   0.16355   0.04851   0.00000  Uiso   1.00
C100   C     0.50152   0.17400   0.47656   0.00000  Uiso   1.00
C101   C     0.50060   0.17477   0.02340   0.00000  Uiso   1.00
C102   C     0.53846   0.16057   0.45517   0.00000  Uiso   1.00
C103   C     0.46296   0.18599   0.04498   0.00000  Uiso   1.00
C104   C     0.42882   0.19798   0.47255   0.00000  Uiso   1.00
C105   C     0.42779   0.20051   0.01856   0.00000  Uiso   1.00
C106   C     0.57437   0.15399   0.02696   0.00000  Uiso   1.00
C107   C     0.59355   0.13873   0.35753   0.00000  Uiso   1.00
C108   C     0.41253   0.22127   0.13823   0.00000  Uiso   1.00
C109   C     0.42527   0.24685   0.37163   0.00000  Uiso   1.00
C110   C     0.59879   0.19360   0.13067   0.00000  Uiso   1.00
C111   C     0.39148   0.22446   0.03618   0.00000  Uiso   1.00
C112   C     0.61763   0.15246   0.46112   0.00000  Uiso   1.00
C113   C     0.57580   0.15385   0.48085   0.00000  Uiso   1.00
C114   C     0.35441   0.12773   0.23674   0.00000  Uiso   1.00
C115   C     0.64555   0.20582   0.26207   0.00000  Uiso   1.00
C116   C     0.64499   0.12787   0.23610   0.00000  Uiso   1.00
C117   C     0.35495   0.20569   0.26270   0.00000  Uiso   1.00
C118   C     0.62412   0.16687   0.24889   0.00000  Uiso   1.00
H119   H     0.40101   0.20763   0.45332   0.00000  Uiso   1.00
H120   H     0.55042   0.29035   0.29694   0.00000  Uiso   1.00
H121   H     0.55306   0.09009   0.38374   0.00000  Uiso   1.00
H122   H     0.62628   0.13183   0.36861   0.00000  Uiso   1.00
H123   H     0.58960   0.17576   0.35136   0.00000  Uiso   1.00
H124   H     0.58838   0.12007   0.32635   0.00000  Uiso   1.00
H125   H     0.39881   0.16338   0.10011   0.00000  Uiso   1.00
H126   H     0.38059   0.23267   0.12805   0.00000  Uiso   1.00
H127   H     0.43510   0.24919   0.13212   0.00000  Uiso   1.00
H128   H     0.41187   0.21381   0.17411   0.00000  Uiso   1.00
H129   H     0.42309   0.17999   0.35058   0.00000  Uiso   1.00
H130   H     0.60304   0.14761   0.04603   0.00000  Uiso   1.00
H131   H     0.44999   0.25975   0.34957   0.00000  Uiso   1.00
H132   H     0.42740   0.26507   0.40366   0.00000  Uiso   1.00
H133   H     0.39436   0.25437   0.35558   0.00000  Uiso   1.00
H134   H     0.57139   0.13202   0.14739   0.00000  Uiso   1.00
H135   H     0.58168   0.21566   0.15360   0.00000  Uiso   1.00
H136   H     0.60572   0.21305   0.09975   0.00000  Uiso   1.00
H137   H     0.62890   0.18329   0.14702   0.00000  Uiso   1.00
H138   H     0.39643   0.25346   0.05724   0.00000  Uiso   1.00
H139   H     0.62427   0.17392   0.43261   0.00000  Uiso   1.00
H140   H     0.37058   0.09756   0.22643   0.00000  Uiso   1.00
H141   H     0.62941   0.23601   0.27238   0.00000  Uiso   1.00
H142   H     0.62836   0.09779   0.22542   0.00000  Uiso   1.00
H143   H     0.37155   0.23581   0.27327   0.00000  Uiso   1.00
H144   H     0.55039   0.04139   0.29698   0.00000  Uiso   1.00
H145   H     0.44937   0.29199   0.20338   0.00000  Uiso   1.00
H146   H     0.44947   0.04297   0.20321   0.00000  Uiso   1.00
N147   N     0.50000   0.28573   0.25000   0.00000  Uiso   1.00
N148   N     0.50000   0.04760   0.25000   0.00000  Uiso   1.00
N149   N     0.56538   0.12157   0.39070   0.00000  Uiso   1.00
N150   N     0.42343   0.18050   0.11491   0.00000  Uiso   1.00
N151   N     0.42943   0.19838   0.37885   0.00000  Uiso   1.00
N152   N     0.57438   0.15367   0.12040   0.00000  Uiso   1.00
O153   O     0.43892   0.20487   0.25000   0.00000  Uiso   1.00
O154   O     0.64542   0.12868   0.47753   0.00000  Uiso   1.00
O155   O     0.56108   0.12846   0.25001   0.00000  Uiso   1.00
O156   O     0.56108   0.20487   0.25001   0.00000  Uiso   1.00
O157   O     0.43892   0.12846   0.25000   0.00000  Uiso   1.00
O158   O     0.49999   0.20489   0.18393   0.00000  Uiso   1.00
O159   O     0.50001   0.12844   0.31608   0.00000  Uiso   1.00
O160   O     0.50001   0.20489   0.31608   0.00000  Uiso   1.00
O161   O     0.49999   0.12844   0.18393   0.00000  Uiso   1.00
O162   O     0.35591   0.21338   0.02549   0.00000  Uiso   1.00
Zn163  Zn    0.50000   0.21771   0.25000   0.00000  Uiso   1.00
Zn164  Zn    0.50000   0.11563   0.25000   0.00000  Uiso   1.00
C165   C     0.75332   0.16662   0.25050   0.00000  Uiso   1.00
C166   C     0.70917   0.16661   0.25015   0.00000  Uiso   1.00
C167   C     0.86134   0.02355   0.27610   0.00000  Uiso   1.00
C168   C     0.80523   0.30980   0.22404   0.00000  Uiso   1.00
C169   C     0.80526   0.02443   0.22399   0.00000  Uiso   1.00
C170   C     0.86136   0.30890   0.27609   0.00000  Uiso   1.00
C171   C     0.83184   0.16717   0.16352   0.00000  Uiso   1.00
C172   C     0.83435   0.16632   0.33655   0.00000  Uiso   1.00
C173   C     0.86958   0.15214   0.40921   0.00000  Uiso   1.00
C174   C     0.79521   0.18072   0.09185   0.00000  Uiso   1.00
C175   C     0.83388   0.16626   0.38434   0.00000  Uiso   1.00
C176   C     0.91332   0.16674   0.24906   0.00000  Uiso   1.00
C177   C     0.83215   0.16915   0.11579   0.00000  Uiso   1.00
C178   C     0.79885   0.18440   0.40474   0.00000  Uiso   1.00
C179   C     0.87010   0.16248   0.09491   0.00000  Uiso   1.00
C180   C     0.79843   0.18530   0.45122   0.00000  Uiso   1.00
C181   C     0.87064   0.16355   0.04851   0.00000  Uiso   1.00
C182   C     0.83486   0.17400   0.47656   0.00000  Uiso   1.00
C183   C     0.83394   0.17477   0.02340   0.00000  Uiso   1.00
C184   C     0.87180   0.16057   0.45517   0.00000  Uiso   1.00
C185   C     0.79629   0.18599   0.04498   0.00000  Uiso   1.00
C186   C     0.76215   0.19798   0.47255   0.00000  Uiso   1.00
C187   C     0.76112   0.20051   0.01856   0.00000  Uiso   1.00
C188   C     0.90770   0.15399   0.02696   0.00000  Uiso   1.00
C189   C     0.92689   0.13873   0.35753   0.00000  Uiso   1.00
C190   C     0.74586   0.22127   0.13823   0.00000  Uiso   1.00
C191   C     0.75860   0.24685   0.37163   0.00000  Uiso   1.00
C192   C     0.93212   0.19360   0.13067   0.00000  Uiso   1.00
C193   C     0.72481   0.22446   0.03618   0.00000  Uiso   1.00
C194   C     0.95097   0.15246   0.46112   0.00000  Uiso   1.00
C195   C     0.90913   0.15385   0.48085   0.00000  Uiso   1.00
C196   C     0.68774   0.12773   0.23674   0.00000  Uiso   1.00
C197   C     0.97889   0.20582   0.26207   0.00000  Uiso   1.00
C198   C     0.97833   0.12787   0.23610   0.00000  Uiso   1.00
C199   C     0.68829   0.20569   0.26270   0.00000  Uiso   1.00
C200   C     0.95746   0.16687   0.24889   0.00000  Uiso   1.00
H201   H     0.73434   0.20763   0.45332   0.00000  Uiso   1.00
H202   H     0.88375   0.29035   0.29694   0.00000  Uiso   1.00
H203   H     0.88640   0.09009   0.38374   0.00000  Uiso   1.00
H204   H     0.95961   0.13183   0.36861   0.00000  Uiso   1.00
H205   H     0.92293   0.17576   0.35136   0.00000  Uiso   1.00
H206   H     0.92171   0.12007   0.32635   0.00000  Uiso   1.00
H207   H     0.73214   0.16338   0.10011   0.00000  Uiso   1.00
H208   H     0.71393   0.23267   0.12805   0.00000  Uiso   1.00
H209   H     0.76843   0.24919   0.13212   0.00000  Uiso   1.00
H210   H     0.74521   0.21381   0.17411   0.00000  Uiso   1.00
H211   H     0.75642   0.17999   0.35058   0.00000  Uiso   1.00
H212   H     0.93637   0.14761   0.04603   0.00000  Uiso   1.00
H213   H     0.78332   0.25975   0.34957   0.00000  Uiso   1.00
H214   H     0.76073   0.26507   0.40366   0.00000  Uiso   1.00
H215   H     0.72769   0.25437   0.35558   0.00000  Uiso   1.00
H216   H     0.90472   0.13202   0.14739   0.00000  Uiso   1.00
H217   H     0.91501   0.21566   0.15360   0.00000  Uiso   1.00
H218   H     0.93906   0.21305   0.09975   0.00000  Uiso   1.00
H219   H     0.96223   0.18329   0.14702   0.00000  Uiso   1.00
H220   H     0.72976   0.25346   0.05724   0.00000  Uiso   1.00
H221   H     0.95760   0.17392   0.43261   0.00000  Uiso   1.00
H222   H     0.70391   0.09756   0.22643   0.00000  Uiso   1.00
H223   H     0.96275   0.23601   0.27238   0.00000  Uiso   1.00
H224   H     0.96170   0.09779   0.22542   0.00000  Uiso   1.00
H225   H     0.70488   0.23581   0.27327   0.00000  Uiso   1.00
H226   H     0.88372   0.04139   0.29698   0.00000  Uiso   1.00
H227   H     0.78270   0.29199   0.20338   0.00000  Uiso   1.00
H228   H     0.78281   0.04297   0.20321   0.00000  Uiso   1.00
N229   N     0.83333   0.28573   0.25000   0.00000  Uiso   1.00
N230   N     0.83333   0.04760   0.25000   0.00000  Uiso   1.00
N231   N     0.89872   0.12157   0.39070   0.00000  Uiso   1.00
N232   N     0.75676   0.18050   0.11491   0.00000  Uiso   1.00
N233   N     0.76276   0.19838   0.37885   0.00000  Uiso   1.00
N234   N     0.90771   0.15367   0.12040   0.00000  Uiso   1.00
O235   O     0.77226   0.20487   0.25000   0.00000  Uiso   1.00
O236   O     0.97875   0.12868   0.47753   0.00000  Uiso   1.00
O237   O     0.89441   0.12846   0.25001   0.00000  Uiso   1.00
O238   O     0.89441   0.20487   0.25001   0.00000  Uiso   1.00
O239   O     0.77226   0.12846   0.25000   0.00000  Uiso   1.00
O240   O     0.83333   0.20489   0.18393   0.00000  Uiso   1.00
O241   O     0.83334   0.12844   0.31608   0.00000  Uiso   1.00
O242   O     0.83334   0.20489   0.31608   0.00000  Uiso   1.00
O243   O     0.83333   0.12844   0.18393   0.00000  Uiso   1.00
O244   O     0.68925   0.21338   0.02549   0.00000  Uiso   1.00
Zn245  Zn    0.83333   0.21771   0.25000   0.00000  Uiso   1.00
Zn246  Zn    0.83333   0.11563   0.25000   0.00000  Uiso   1.00
C247   C     0.08666   0.49995   0.25050   0.00000  Uiso   1.00
C248   C     0.04250   0.49994   0.25015   0.00000  Uiso   1.00
C249   C     0.19468   0.35688   0.27610   0.00000  Uiso   1.00
C250   C     0.13856   0.64313   0.22404   0.00000  Uiso   1.00
C251   C     0.13859   0.35776   0.22399   0.00000  Uiso   1.00
C252   C     0.19469   0.64223   0.27609   0.00000  Uiso   1.00
C253   C     0.16518   0.50050   0.16352   0.00000  Uiso   1.00
C254   C     0.16768   0.49965   0.33655   0.00000  Uiso   1.00
C255   C     0.20291   0.48548   0.40921   0.00000  Uiso   1.00
C256   C     0.12855   0.51406   0.09185   0.00000  Uiso   1.00
C257   C     0.16721   0.49960   0.38434   0.00000  Uiso   1.00
C258   C     0.24665   0.50007   0.24906   0.00000  Uiso   1.00
C259   C     0.16549   0.50248   0.11579   0.00000  Uiso   1.00
C260   C     0.13219   0.51773   0.40474   0.00000  Uiso   1.00
C261   C     0.20344   0.49581   0.09491   0.00000  Uiso   1.00
C262   C     0.13176   0.51864   0.45122   0.00000  Uiso   1.00
C263   C     0.20397   0.49689   0.04851   0.00000  Uiso   1.00
C264   C     0.16819   0.50734   0.47656   0.00000  Uiso   1.00
C265   C     0.16727   0.50811   0.02340   0.00000  Uiso   1.00
C266   C     0.20513   0.49390   0.45517   0.00000  Uiso   1.00
C267   C     0.12963   0.51932   0.04498   0.00000  Uiso   1.00
C268   C     0.09548   0.53132   0.47255   0.00000  Uiso   1.00
C269   C     0.09445   0.53385   0.01856   0.00000  Uiso   1.00
C270   C     0.24104   0.48732   0.02696   0.00000  Uiso   1.00
C271   C     0.26022   0.47207   0.35753   0.00000  Uiso   1.00
C272   C     0.07920   0.55461   0.13823   0.00000  Uiso   1.00
C273   C     0.09194   0.58019   0.37163   0.00000  Uiso   1.00
C274   C     0.26546   0.52693   0.13067   0.00000  Uiso   1.00
C275   C     0.05814   0.55780   0.03618   0.00000  Uiso   1.00
C276   C     0.28430   0.48579   0.46112   0.00000  Uiso   1.00
C277   C     0.24247   0.48718   0.48085   0.00000  Uiso   1.00
C278   C     0.02108   0.46106   0.23674   0.00000  Uiso   1.00
C279   C     0.31222   0.53916   0.26207   0.00000  Uiso   1.00
C280   C     0.31166   0.46120   0.23610   0.00000  Uiso   1.00
C281   C     0.02162   0.53902   0.26270   0.00000  Uiso   1.00
C282   C     0.29079   0.50020   0.24889   0.00000  Uiso   1.00
H283   H     0.06767   0.54097   0.45332   0.00000  Uiso   1.00
H284   H     0.21708   0.62368   0.29694   0.00000  Uiso   1.00
H285   H     0.21973   0.42343   0.38374   0.00000  Uiso   1.00
H286   H     0.29294   0.46517   0.36861   0.00000  Uiso   1.00
H287   H     0.25627   0.50910   0.35136   0.00000  Uiso   1.00
H288   H     0.25504   0.45340   0.32635   0.00000  Uiso   1.00
H289   H     0.06548   0.49671   0.10011   0.00000  Uiso   1.00
H290   H     0.04726   0.56600   0.12805   0.00000  Uiso   1.00
H291   H     0.10177   0.58252   0.13212   0.00000  Uiso   1.00
H292   H     0.07854   0.54714   0.17411   0.00000  Uiso   1.00
H293   H     0.08975   0.51332   0.35058   0.00000  Uiso   1.00
H294   H     0.26970   0.48095   0.04603   0.00000  Uiso   1.00
H295   H     0.11665   0.59309   0.34957   0.00000  Uiso   1.00
H296   H     0.09406   0.59840   0.40366   0.00000  Uiso   1.00
H297   H     0.06102   0.58770   0.35558   0.00000  Uiso   1.00
H298   H     0.23806   0.46535   0.14739   0.00000  Uiso   1.00
H299   H     0.24835   0.54899   0.15360   0.00000  Uiso   1.00
H300   H     0.27239   0.54638   0.09975   0.00000  Uiso   1.00
H301   H     0.29557   0.51662   0.14702   0.00000  Uiso   1.00
H302   H     0.06310   0.58679   0.05724   0.00000  Uiso   1.00
H303   H     0.29094   0.50725   0.43261   0.00000  Uiso   1.00
H304   H     0.03724   0.43089   0.22643   0.00000  Uiso   1.00
H305   H     0.29608   0.56934   0.27238   0.00000  Uiso   1.00
H306   H     0.29503   0.43113   0.22542   0.00000  Uiso   1.00
H307   H     0.03821   0.56915   0.27327   0.00000  Uiso   1.00
H308   H     0.21705   0.37472   0.29698   0.00000  Uiso   1.00
H309   H     0.11604   0.62533   0.20338   0.00000  Uiso   1.00
H310   H     0.11614   0.37630   0.20321   0.00000  Uiso   1.00
N311   N     0.16667   0.61907   0.25000   0.00000  Uiso   1.00
N312   N     0.16667   0.38093   0.25000   0.00000  Uiso   1.00
N313   N     0.23205   0.45490   0.39070   0.00000  Uiso   1.00
N314   N     0.09009   0.51384   0.11491   0.00000  Uiso   1.00
N315   N     0.09610   0.53172   0.37885   0.00000  Uiso   1.00
N316   N     0.24104   0.48701   0.12040   0.00000  Uiso   1.00
O317   O     0.10559   0.53821   0.25000   0.00000  Uiso   1.00
O318   O     0.31209   0.46201   0.47753   0.00000  Uiso   1.00
O319   O     0.22774   0.46179   0.25001   0.00000  Uiso   1.00
O320   O     0.22774   0.53821   0.25001   0.00000  Uiso   1.00
O321   O     0.10559   0.46179   0.25000   0.00000  Uiso   1.00
O322   O     0.16666   0.53823   0.18393   0.00000  Uiso   1.00
O323   O     0.16667   0.46177   0.31608   0.00000  Uiso   1.00
O324   O     0.16667   0.53823   0.31608   0.00000  Uiso   1.00
O325   O     0.16666   0.46177   0.18393   0.00000  Uiso   1.00
O326   O     0.02258   0.54671   0.02549   0.00000  Uiso   1.00
Zn327  Zn    0.16667   0.55104   0.25000   0.00000  Uiso   1.00
Zn328  Zn    0.16667   0.44896   0.25000   0.00000  Uiso   1.00
C329   C     0.41999   0.49995   0.25050   0.00000  Uiso   1.00
C330   C     0.37584   0.49994   0.25015   0.00000  Uiso   1.00
C331   C     0.52801   0.35688   0.27610   0.00000  Uiso   1.00
C332   C     0.47190   0.64313   0.22404   0.00000  Uiso   1.00
C333   C     0.47192   0.35776   0.22399   0.00000  Uiso   1.00
C334   C     0.52802   0.64223   0.27609   0.00000  Uiso   1.00
C335   C     0.49851   0.50050   0.16352   0.00000  Uiso   1.00
C336   C     0.50102   0.49965   0.33655   0.00000  Uiso   1.00
C337   C     0.53624   0.48548   0.40921   0.00000  Uiso   1.00
C338   C     0.46188   0.51406   0.09185   0.00000  Uiso   1.00
C339   C     0.50054   0.49960   0.38434   0.00000  Uiso   1.00
C340   C     0.57998   0.50007   0.24906   0.00000  Uiso   1.00
C341   C     0.49882   0.50248   0.11579   0.00000  Uiso   1.00
C342   C     0.46552   0.51773   0.40474   0.00000  Uiso   1.00
C343   C     0.53677   0.49581   0.09491   0.00000  Uiso   1.00
C344   C     0.46509   0.51864   0.45122   0.00000  Uiso   1.00
C345   C     0.53731   0.49689   0.04851   0.00000  Uiso   1.00
C346   C     0.50152   0.50734   0.47656   0.00000  Uiso   1.00
C347   C     0.50060   0.50811   0.02340   0.00000  Uiso   1.00
C348   C     0.53846   0.49390   0.45517   0.00000  Uiso   1.00
C349   C     0.46296   0.51932   0.04498   0.00000  Uiso   1.00
C350   C     0.42882   0.53132   0.47255   0.00000  Uiso   1.00
C351   C     0.42779   0.53385   0.01856   0.00000  Uiso   1.00
C352   C     0.57437   0.48732   0.02696   0.00000  Uiso   1.00
C353   C     0.59355   0.47207   0.35753   0.00000  Uiso   1.00
C354   C     0.41253   0.55461   0.13823   0.00000  Uiso   1.00
C355   C     0.42527   0.58019   0.37163   0.00000  Uiso   1.00
C356   C     0.59879   0.52693   0.13067   0.00000  Uiso   1.00
C357   C     0.39148   0.55780   0.03618   0.00000  Uiso   1.00
C358   C     0.61763   0.48579   0.46112   0.00000  Uiso   1.00
C359   C     0.57580   0.48718   0.48085   0.00000  Uiso   1.00
C360   C     0.35441   0.46106   0.23674   0.00000  Uiso   1.00
C361   C     0.64555   0.53916   0.26207   0.00000  Uiso   1.00
C362   C     0.64499   0.46120   0.23610   0.00000  Uiso   1.00
C363   C     0.35495   0.53902   0.26270   0.00000  Uiso   1.00
C364   C     0.62412   0.50020   0.24889   0.00000  Uiso   1.00
H365   H     0.40101   0.54097   0.45332   0.00000  Uiso   1.00
H366   H     0.55042   0.62368   0.29694   0.00000  Uiso   1.00
H367   H     0.55306   0.42343   0.38374   0.00000  Uiso   1.00
H368   H     0.62628   0.46517   0.36861   0.00000  Uiso   1.00
H369   H     0.58960   0.50910   0.35136   0.00000  Uiso   1.00
H370   H     0.58838   0.45340   0.32635   0.00000  Uiso   1.00
H371   H     0.39881   0.49671   0.10011   0.00000  Uiso   1.00
H372   H     0.38059   0.56600   0.12805   0.00000  Uiso   1.00
H373   H     0.43510   0.58252   0.13212   0.00000  Uiso   1.00
H374   H     0.41187   0.54714   0.17411   0.00000  Uiso   1.00
H375   H     0.42309   0.51332   0.35058   0.00000  Uiso   1.00
H376   H     0.60304   0.48095   0.04603   0.00000  Uiso   1.00
H377   H     0.44999   0.59309   0.34957   0.00000  Uiso   1.00
H378   H     0.42740   0.59840   0.40366   0.00000  Uiso   1.00
H379   H     0.39436   0.58770   0.35558   0.00000  Uiso   1.00
H380   H     0.57139   0.46535   0.14739   0.00000  Uiso   1.00
H381   H     0.58168   0.54899   0.15360   0.00000  Uiso   1.00
H382   H     0.60572   0.54638   0.09975   0.00000  Uiso   1.00
H383   H     0.62890   0.51662   0.14702   0.00000  Uiso   1.00
H384   H     0.39643   0.58679   0.05724   0.00000  Uiso   1.00
H385   H     0.62427   0.50725   0.43261   0.00000  Uiso   1.00
H386   H     0.37058   0.43089   0.22643   0.00000  Uiso   1.00
H387   H     0.62941   0.56934   0.27238   0.00000  Uiso   1.00
H388   H     0.62836   0.43113   0.22542   0.00000  Uiso   1.00
H389   H     0.37155   0.56915   0.27327   0.00000  Uiso   1.00
H390   H     0.55039   0.37472   0.29698   0.00000  Uiso   1.00
H391   H     0.44937   0.62533   0.20338   0.00000  Uiso   1.00
H392   H     0.44947   0.37630   0.20321   0.00000  Uiso   1.00
N393   N     0.50000   0.61907   0.25000   0.00000  Uiso   1.00
N394   N     0.50000   0.38093   0.25000   0.00000  Uiso   1.00
N395   N     0.56538   0.45490   0.39070   0.00000  Uiso   1.00
N396   N     0.42343   0.51384   0.11491   0.00000  Uiso   1.00
N397   N     0.42943   0.53172   0.37885   0.00000  Uiso   1.00
N398   N     0.57438   0.48701   0.12040   0.00000  Uiso   1.00
O399   O     0.43892   0.53821   0.25000   0.00000  Uiso   1.00
O400   O     0.64542   0.46201   0.47753   0.00000  Uiso   1.00
O401   O     0.56108   0.46179   0.25001   0.00000  Uiso   1.00
O402   O     0.56108   0.53821   0.25001   0.00000  Uiso   1.00
O403   O     0.43892   0.46179   0.25000   0.00000  Uiso   1.00
O404   O     0.49999   0.53823   0.18393   0.00000  Uiso   1.00
O405   O     0.50001   0.46177   0.31608   0.00000  Uiso   1.00
O406   O     0.50001   0.53823   0.31608   0.00000  Uiso   1.00
O407   O     0.49999   0.46177   0.18393   0.00000  Uiso   1.00
O408   O     0.35591   0.54671   0.02549   0.00000  Uiso   1.00
Zn409  Zn    0.50000   0.55104   0.25000   0.00000  Uiso   1.00
Zn410  Zn    0.50000   0.44896   0.25000   0.00000  Uiso   1.00
C411   C     0.75332   0.49995   0.25050   0.00000  Uiso   1.00
C412   C     0.70917   0.49994   0.25015   0.00000  Uiso   1.00
C413   C     0.86134   0.35688   0.27610   0.00000  Uiso   1.00
C414   C     0.80523   0.64313   0.22404   0.00000  Uiso   1.00
C415   C     0.80526   0.35776   0.22399   0.00000  Uiso   1.00
C416   C     0.86136   0.64223   0.27609   0.00000  Uiso   1.00
C417   C     0.83184   0.50050   0.16352   0.00000  Uiso   1.00
C418   C     0.83435   0.49965   0.33655   0.00000  Uiso   1.00
C419   C     0.86958   0.48548   0.40921   0.00000  Uiso   1.00
C420   C     0.79521   0.51406   0.09185   0.00000  Uiso   1.00
C421   C     0.83388   0.49960   0.38434   0.00000  Uiso   1.00
C422   C     0.91332   0.50007   0.24906   0.00000  Uiso   1.00
C423   C     0.83215   0.50248   0.11579   0.00000  Uiso   1.00
C424   C     0.79885   0.51773   0.40474   0.00000  Uiso   1.00
C425   C     0.87010   0.49581   0.09491   0.00000  Uiso   1.00
C426   C     0.79843   0.51864   0.45122   0.00000  Uiso   1.00
C427   C     0.87064   0.49689   0.04851   0.00000  Uiso   1.00
C428   C     0.83486   0.50734   0.47656   0.00000  Uiso   1.00
C429   C     0.83394   0.50811   0.02340   0.00000  Uiso   1.00
C430   C     0.87180   0.49390   0.45517   0.00000  Uiso   1.00
C431   C     0.79629   0.51932   0.04498   0.00000  Uiso   1.00
C432   C     0.76215   0.53132   0.47255   0.00000  Uiso   1.00
C433   C     0.76112   0.53385   0.01856   0.00000  Uiso   1.00
C434   C     0.90770   0.48732   0.02696   0.00000  Uiso   1.00
C435   C     0.92689   0.47207   0.35753   0.00000  Uiso   1.00
C436   C     0.74586   0.55461   0.13823   0.00000  Uiso   1.00
C437   C     0.75860   0.58019   0.37163   0.00000  Uiso   1.00
C438   C     0.93212   0.52693   0.13067   0.00000  Uiso   1.00
C439   C     0.72481   0.55780   0.03618   0.00000  Uiso   1.00
C440   C     0.95097   0.48579   0.46112   0.00000  Uiso   1.00
C441   C     0.90913   0.48718   0.48085   0.00000  Uiso   1.00
C442   C     0.68774   0.46106   0.23674   0.00000  Uiso   1.00
C443   C     0.97889   0.53916   0.26207   0.00000  Uiso   1.00
C444   C     0.97833   0.46120   0.23610   0.00000  Uiso   1.00
C445   C     0.68829   0.53902   0.26270   0.00000  Uiso   1.00
C446   C     0.95746   0.50020   0.24889   0.00000  Uiso   1.00
H447   H     0.73434   0.54097   0.45332   0.00000  Uiso   1.00
H448   H     0.88375   0.62368   0.29694   0.00000  Uiso   1.00
H449   H     0.88640   0.42343   0.38374   0.00000  Uiso   1.00
H450   H     0.95961   0.46517   0.36861   0.00000  Uiso   1.00
H451   H     0.92293   0.50910   0.35136   0.00000  Uiso   1.00
H452   H     0.92171   0.45340   0.32635   0.00000  Uiso   1.00
H453   H     0.73214   0.49671   0.10011   0.00000  Uiso   1.00
H454   H     0.71393   0.56600   0.12805   0.00000  Uiso   1.00
H455   H     0.76843   0.58252   0.13212   0.00000  Uiso   1.00
H456   H     0.74521   0.54714   0.17411   0.00000  Uiso   1.00
H457   H     0.75642   0.51332   0.35058   0.00000  Uiso   1.00
H458   H     0.93637   0.48095   0.04603   0.00000  Uiso   1.00
H459   H     0.78332   0.59309   0.34957   0.00000  Uiso   1.00
H460   H     0.76073   0.59840   0.40366   0.00000  Uiso   1.00
H461   H     0.72769   0.58770   0.35558   0.00000  Uiso   1.00
H462   H     0.90472   0.46535   0.14739   0.00000  Uiso   1.00
H463   H     0.91501   0.54899   0.15360   0.00000  Uiso   1.00
H464   H     0.93906   0.54638   0.09975   0.00000  Uiso   1.00
H465   H     0.96223   0.51662   0.14702   0.00000  Uiso   1.00
H466   H     0.72976   0.58679   0.05724   0.00000  Uiso   1.00
H467   H     0.95760   0.50725   0.43261   0.00000  Uiso   1.00
H468   H     0.70391   0.43089   0.22643   0.00000  Uiso   1.00
H469   H     0.96275   0.56934   0.27238   0.00000  Uiso   1.00
H470   H     0.96170   0.43113   0.22542   0.00000  Uiso   1.00
H471   H     0.70488   0.56915   0.27327   0.00000  Uiso   1.00
H472   H     0.88372   0.37472   0.29698   0.00000  Uiso   1.00
H473   H     0.78270   0.62533   0.20338   0.00000  Uiso   1.00
H474   H     0.78281   0.37630   0.20321   0.00000  Uiso   1.00
N475   N     0.83333   0.61907   0.25000   0.00000  Uiso   1.00
N476   N     0.83333   0.38093   0.25000   0.00000  Uiso   1.00
N477   N     0.89872   0.45490   0.39070   0.00000  Uiso   1.00
N478   N     0.75676   0.51384   0.11491   0.00000  Uiso   1.00
N479   N     0.76276   0.53172   0.37885   0.00000  Uiso   1.00
N480   N     0.90771   0.48701   0.12040   0.00000  Uiso   1.00
O481   O     0.77226   0.53821   0.25000   0.00000  Uiso   1.00
O482   O     0.97875   0.46201   0.47753   0.00000  Uiso   1.00
O483   O     0.89441   0.46179   0.25001   0.00000  Uiso   1.00
O484   O     0.89441   0.53821   0.25001   0.00000  Uiso   1.00
O485   O     0.77226   0.46179   0.25000   0.00000  Uiso   1.00
O486   O     0.83333   0.53823   0.18393   0.00000  Uiso   1.00
O487   O     0.83334   0.46177   0.31608   0.00000  Uiso   1.00
O488   O     0.83334   0.53823   0.31608   0.00000  Uiso   1.00
O489   O     0.83333   0.46177   0.18393   0.00000  Uiso   1.00
O490   O     0.68925   0.54671   0.02549   0.00000  Uiso   1.00
Zn491  Zn    0.83333   0.55104   0.25000   0.00000  Uiso   1.00
Zn492  Zn    0.83333   0.44896   0.25000   0.00000  Uiso   1.00
C493   C     0.08666   0.83329   0.25050   0.00000  Uiso   1.00
C494   C     0.04250   0.83327   0.25015   0.00000  Uiso   1.00
C495   C     0.19468   0.69021   0.27610   0.00000  Uiso   1.00
C496   C     0.13856   0.97646   0.22404   0.00000  Uiso   1.00
C497   C     0.13859   0.69110   0.22399   0.00000  Uiso   1.00
C498   C     0.19469   0.97557   0.27609   0.00000  Uiso   1.00
C499   C     0.16518   0.83383   0.16352   0.00000  Uiso   1.00
C500   C     0.16768   0.83298   0.33655   0.00000  Uiso   1.00
C501   C     0.20291   0.81881   0.40921   0.00000  Uiso   1.00
C502   C     0.12855   0.84739   0.09185   0.00000  Uiso   1.00
C503   C     0.16721   0.83293   0.38434   0.00000  Uiso   1.00
C504   C     0.24665   0.83340   0.24906   0.00000  Uiso   1.00
C505   C     0.16549   0.83582   0.11579   0.00000  Uiso   1.00
C506   C     0.13219   0.85106   0.40474   0.00000  Uiso   1.00
C507   C     0.20344   0.82915   0.09491   0.00000  Uiso   1.00
C508   C     0.13176   0.85197   0.45122   0.00000  Uiso   1.00
C509   C     0.20397   0.83022   0.04851   0.00000  Uiso   1.00
C510   C     0.16819   0.84067   0.47656   0.00000  Uiso   1.00
C511   C     0.16727   0.84144   0.02340   0.00000  Uiso   1.00
C512   C     0.20513   0.82724   0.45517   0.00000  Uiso   1.00
C513   C     0.12963   0.85265   0.04498   0.00000  Uiso   1.00
C514   C     0.09548   0.86465   0.47255   0.00000  Uiso   1.00
C515   C     0.09445   0.86718   0.01856   0.00000  Uiso   1.00
C516   C     0.24104   0.82066   0.02696   0.00000  Uiso   1.00
C517   C     0.26022   0.80540   0.35753   0.00000  Uiso   1.00
C518   C     0.07920   0.88794   0.13823   0.00000  Uiso   1.00
C519   C     0.09194   0.91352   0.37163   0.00000  Uiso   1.00
C520   C     0.26546   0.86027   0.13067   0.00000  Uiso   1.00
C521   C     0.05814   0.89113   0.03618   0.00000  Uiso   1.00
C522   C     0.28430   0.81912   0.46112   0.00000  Uiso   1.00
C523   C     0.24247   0.82052   0.48085   0.00000  Uiso   1.00
C524   C     0.02108   0.79439   0.23674   0.00000  Uiso   1.00
C525   C     0.31222   0.87249   0.26207   0.00000  Uiso   1.00
C526   C     0.31166   0.79454   0.23610   0.00000  Uiso   1.00
C527   C     0.02162   0.87235   0.26270   0.00000  Uiso   1.00
C528   C     0.29079   0.83353   0.24889   0.00000  Uiso   1.00
H529   H     0.06767   0.87430   0.45332   0.00000  Uiso   1.00
H530   H     0.21708   0.95702   0.29694   0.00000  Uiso   1.00
H531   H     0.21973   0.75676   0.38374   0.00000  Uiso   1.00
H532   H     0.29294   0.79850   0.36861   0.00000  Uiso   1.00
H533   H     0.25627   0.84243   0.35136   0.00000  Uiso   1.00
H534   H     0.25504   0.78674   0.32635   0.00000  Uiso   1.00
H535   H     0.06548   0.83005   0.10011   0.00000  Uiso   1.00
H536   H     0.04726   0.89934   0.12805   0.00000  Uiso   1.00
H537   H     0.10177   0.91585   0.13212   0.00000  Uiso   1.00
H538   H     0.07854   0.88048   0.17411   0.00000  Uiso   1.00
H539   H     0.08975   0.84665   0.35058   0.00000  Uiso   1.00
H540   H     0.26970   0.81428   0.04603   0.00000  Uiso   1.00
H541   H     0.11665   0.92642   0.34957   0.00000  Uiso   1.00
H542   H     0.09406   0.93173   0.40366   0.00000  Uiso   1.00
H543   H     0.06102   0.92104   0.35558   0.00000  Uiso   1.00
H544   H     0.23806   0.79869   0.14739   0.00000  Uiso   1.00
H545   H     0.24835   0.88233   0.15360   0.00000  Uiso   1.00
H546   H     0.27239   0.87972   0.09975   0.00000  Uiso   1.00
H547   H     0.29557   0.84996   0.14702   0.00000  Uiso   1.00
H548   H     0.06310   0.92012   0.05724   0.00000  Uiso   1.00
H549   H     0.29094   0.84059   0.43261   0.00000  Uiso   1.00
H550   H     0.03724   0.76422   0.22643   0.00000  Uiso   1.00
H551   H     0.29608   0.90268   0.27238   0.00000  Uiso   1.00
H552   H     0.29503   0.76446   0.22542   0.00000  Uiso   1.00
H553   H     0.03821   0.90248   0.27327   0.00000  Uiso   1.00
H554   H     0.21705   0.70805   0.29698   0.00000  Uiso   1.00
H555   H     0.11604   0.95866   0.20338   0.00000  Uiso   1.00
H556   H     0.11614   0.70964   0.20321   0.00000  Uiso   1.00
N557   N     0.16667   0.95240   0.25000   0.00000  Uiso   1.00
N558   N     0.16667   0.71427   0.25000   0.00000  Uiso   1.00
N559   N     0.23205   0.78823   0.39070   0.00000  Uiso   1.00
N560   N     0.09009   0.84717   0.11491   0.00000  Uiso   1.00
N561   N     0.09610   0.86505   0.37885   0.00000  Uiso   1.00
N562   N     0.24104   0.82034   0.12040   0.00000  Uiso   1.00
O563   O     0.10559   0.87154   0.25000   0.00000  Uiso   1.00
O564   O     0.31209   0.79535   0.47753   0.00000  Uiso   1.00
O565   O     0.22774   0.79513   0.25001   0.00000  Uiso   1.00
O566   O     0.22774   0.87154   0.25001   0.00000  Uiso   1.00
O567   O     0.10559   0.79513   0.25000   0.00000  Uiso   1.00
O568   O     0.16666   0.87156   0.18393   0.00000  Uiso   1.00
O569   O     0.16667   0.79511   0.31608   0.00000  Uiso   1.00
O570   O     0.16667   0.87156   0.31608   0.00000  Uiso   1.00
O571   O     0.16666   0.79511   0.18393   0.00000  Uiso   1.00
O572   O     0.02258   0.88005   0.02549   0.00000  Uiso   1.00
Zn573  Zn    0.16667   0.88437   0.25000   0.00000  Uiso   1.00
Zn574  Zn    0.16667   0.78229   0.25000   0.00000  Uiso   1.00
C575   C     0.41999   0.83329   0.25050   0.00000  Uiso   1.00
C576   C     0.37584   0.83327   0.25015   0.00000  Uiso   1.00
C577   C     0.52801   0.69021   0.27610   0.00000  Uiso   1.00
C578   C     0.47190   0.97646   0.22404   0.00000  Uiso   1.00
C579   C     0.47192   0.69110   0.22399   0.00000  Uiso   1.00
C580   C     0.52802   0.97557   0.27609   0.00000  Uiso   1.00
C581   C     0.49851   0.83383   0.16352   0.00000  Uiso   1.00
C582   C     0.50102   0.83298   0.33655   0.00000  Uiso   1.00
C583   C     0.53624   0.81881   0.40921   0.00000  Uiso   1.00
C584   C     0.46188   0.84739   0.09185   0.00000  Uiso   1.00
C585   C     0.50054   0.83293   0.38434   0.00000  Uiso   1.00
C586   C     0.57998   0.83340   0.24906   0.00000  Uiso   1.00
C587   C     0.49882   0.83582   0.11579   0.00000  Uiso   1.00
C588   C     0.46552   0.85106   0.40474   0.00000  Uiso   1.00
C589   C     0.53677   0.82915   0.09491   0.00000  Uiso   1.00
C590   C     0.46509   0.85197   0.45122   0.00000  Uiso   1.00
C591   C     0.53731   0.83022   0.04851   0.00000  Uiso   1.00
C592   C     0.50152   0.84067   0.47656   0.00000  Uiso   1.00
C593   C     0.50060   0.84144   0.02340   0.00000  Uiso   1.00
C594   C     0.53846   0.82724   0.45517   0.00000  Uiso   1.00
C595   C     0.46296   0.85265   0.04498   0.00000  Uiso   1.00
C596   C     0.42882   0.86465   0.47255   0.00000  Uiso   1.00
C597   C     0.42779   0.86718   0.01856   0.00000  Uiso   1.00
C598   C     0.57437   0.82066   0.02696   0.00000  Uiso   1.00
C599   C     0.59355   0.80540   0.35753   0.00000  Uiso   1.00
C600   C     0.41253   0.88794   0.13823   0.00000  Uiso   1.00
C601   C     0.42527   0.91352   0.37163   0.00000  Uiso   1.00
C602   C     0.59879   0.86027   0.13067   0.00000  Uiso   1.00
C603   C     0.39148   0.89113   0.03618   0.00000  Uiso   1.00
C604   C     0.61763   0.81912   0.46112   0.00000  Uiso   1.00
C605   C     0.57580   0.82052   0.48085   0.00000  Uiso   1.00
C606   C     0.35441   0.79439   0.23674   0.00000  Uiso   1.00
C607   C     0.64555   0.87249   0.26207   0.00000  Uiso   1.00
C608   C     0.64499   0.79454   0.23610   0.00000  Uiso   1.00
C609   C     0.35495   0.87235   0.26270   0.00000  Uiso   1.00
C610   C     0.62412   0.83353   0.24889   0.00000  Uiso   1.00
H611   H     0.40101   0.87430   0.45332   0.00000  Uiso   1.00
H612   H     0.55042   0.95702   0.29694   0.00000  Uiso   1.00
H613   H     0.55306   0.75676   0.38374   0.00000  Uiso   1.00
H614   H     0.62628   0.79850   0.36861   0.00000  Uiso   1.00
H615   H     0.58960   0.84243   0.35136   0.00000  Uiso   1.00
H616   H     0.58838   0.78674   0.32635   0.00000  Uiso   1.00
H617   H     0.39881   0.83005   0.10011   0.00000  Uiso   1.00
H618   H     0.38059   0.89934   0.12805   0.00000  Uiso   1.00
H619   H     0.43510   0.91585   0.13212   0.00000  Uiso   1.00
H620   H     0.41187   0.88048   0.17411   0.00000  Uiso   1.00
H621   H     0.42309   0.84665   0.35058   0.00000  Uiso   1.00
H622   H     0.60304   0.81428   0.04603   0.00000  Uiso   1.00
H623   H     0.44999   0.92642   0.34957   0.00000  Uiso   1.00
H624   H     0.42740   0.93173   0.40366   0.00000  Uiso   1.00
H625   H     0.39436   0.92104   0.35558   0.00000  Uiso   1.00
H626   H     0.57139   0.79869   0.14739   0.00000  Uiso   1.00
H627   H     0.58168   0.88233   0.15360   0.00000  Uiso   1.00
H628   H     0.60572   0.87972   0.09975   0.00000  Uiso   1.00
H629   H     0.62890   0.84996   0.14702   0.00000  Uiso   1.00
H630   H     0.39643   0.92012   0.05724   0.00000  Uiso   1.00
H631   H     0.62427   0.84059   0.43261   0.00000  Uiso   1.00
H632   H     0.37058   0.76422   0.22643   0.00000  Uiso   1.00
H633   H     0.62941   0.90268   0.27238   0.00000  Uiso   1.00
H634   H     0.62836   0.76446   0.22542   0.00000  Uiso   1.00
H635   H     0.37155   0.90248   0.27327   0.00000  Uiso   1.00
H636   H     0.55039   0.70805   0.29698   0.00000  Uiso   1.00
H637   H     0.44937   0.95866   0.20338   0.00000  Uiso   1.00
H638   H     0.44947   0.70964   0.20321   0.00000  Uiso   1.00
N639   N     0.50000   0.95240   0.25000   0.00000  Uiso   1.00
N640   N     0.50000   0.71427   0.25000   0.00000  Uiso   1.00
N641   N     0.56538   0.78823   0.39070   0.00000  Uiso   1.00
N642   N     0.42343   0.84717   0.11491   0.00000  Uiso   1.00
N643   N     0.42943   0.86505   0.37885   0.00000  Uiso   1.00
N644   N     0.57438   0.82034   0.12040   0.00000  Uiso   1.00
O645   O     0.43892   0.87154   0.25000   0.00000  Uiso   1.00
O646   O     0.64542   0.79535   0.47753   0.00000  Uiso   1.00
O647   O     0.56108   0.79513   0.25001   0.00000  Uiso   1.00
O648   O     0.56108   0.87154   0.25001   0.00000  Uiso   1.00
O649   O     0.43892   0.79513   0.25000   0.00000  Uiso   1.00
O650   O     0.49999   0.87156   0.18393   0.00000  Uiso   1.00
O651   O     0.50001   0.79511   0.31608   0.00000  Uiso   1.00
O652   O     0.50001   0.87156   0.31608   0.00000  Uiso   1.00
O653   O     0.49999   0.79511   0.18393   0.00000  Uiso   1.00
O654   O     0.35591   0.88005   0.02549   0.00000  Uiso   1.00
Zn655  Zn    0.50000   0.88437   0.25000   0.00000  Uiso   1.00
Zn656  Zn    0.50000   0.78229   0.25000   0.00000  Uiso   1.00
C657   C     0.75332   0.83329   0.25050   0.00000  Uiso   1.00
C658   C     0.70917   0.83327   0.25015   0.00000  Uiso   1.00
C659   C     0.86134   0.69021   0.27610   0.00000  Uiso   1.00
C660   C     0.80523   0.97646   0.22404   0.00000  Uiso   1.00
C661   C     0.80526   0.69110   0.22399   0.00000  Uiso   1.00
C662   C     0.86136   0.97557   0.27609   0.00000  Uiso   1.00
C663   C     0.83184   0.83383   0.16352   0.00000  Uiso   1.00
C664   C     0.83435   0.83298   0.33655   0.00000  Uiso   1.00
C665   C     0.86958   0.81881   0.40921   0.00000  Uiso   1.00
C666   C     0.79521   0.84739   0.09185   0.00000  Uiso   1.00
C667   C     0.83388   0.83293   0.38434   0.00000  Uiso   1.00
C668   C     0.91332   0.83340   0.24906   0.00000  Uiso   1.00
C669   C     0.83215   0.83582   0.11579   0.00000  Uiso   1.00
C670   C     0.79885   0.85106   0.40474   0.00000  Uiso   1.00
C671   C     0.87010   0.82915   0.09491   0.00000  Uiso   1.00
C672   C     0.79843   0.85197   0.45122   0.00000  Uiso   1.00
C673   C     0.87064   0.83022   0.04851   0.00000  Uiso   1.00
C674   C     0.83486   0.84067   0.47656   0.00000  Uiso   1.00
C675   C     0.83394   0.84144   0.02340   0.00000  Uiso   1.00
C676   C     0.87180   0.82724   0.45517   0.00000  Uiso   1.00
C677   C     0.79629   0.85265   0.04498   0.00000  Uiso   1.00
C678   C     0.76215   0.86465   0.47255   0.00000  Uiso   1.00
C679   C     0.76112   0.86718   0.01856   0.00000  Uiso   1.00
C680   C     0.90770   0.82066   0.02696   0.00000  Uiso   1.00
C681   C     0.92689   0.80540   0.35753   0.00000  Uiso   1.00
C682   C     0.74586   0.88794   0.13823   0.00000  Uiso   1.00
C683   C     0.75860   0.91352   0.37163   0.00000  Uiso   1.00
C684   C     0.93212   0.86027   0.13067   0.00000  Uiso   1.00
C685   C     0.72481   0.89113   0.03618   0.00000  Uiso   1.00
C686   C     0.95097   0.81912   0.46112   0.00000  Uiso   1.00
C687   C     0.90913   0.82052   0.48085   0.00000  Uiso   1.00
C688   C     0.68774   0.79439   0.23674   0.00000  Uiso   1.00
C689   C     0.97889   0.87249   0.26207   0.00000  Uiso   1.00
C690   C     0.97833   0.79454   0.23610   0.00000  Uiso   1.00
C691   C     0.68829   0.87235   0.26270   0.00000  Uiso   1.00
C692   C     0.95746   0.83353   0.24889   0.00000  Uiso   1.00
H693   H     0.73434   0.87430   0.45332   0.00000  Uiso   1.00
H694   H     0.88375   0.95702   0.29694   0.00000  Uiso   1.00
H695   H     0.88640   0.75676   0.38374   0.00000  Uiso   1.00
H696   H     0.95961   0.79850   0.36861   0.00000  Uiso   1.00
H697   H     0.92293   0.84243   0.35136   0.00000  Uiso   1.00
H698   H     0.92171   0.78674   0.32635   0.00000  Uiso   1.00
H699   H     0.73214   0.83005   0.10011   0.00000  Uiso   1.00
H700   H     0.71393   0.89934   0.12805   0.00000  Uiso   1.00
H701   H     0.76843   0.91585   0.13212   0.00000  Uiso   1.00
H702   H     0.74521   0.88048   0.17411   0.00000  Uiso   1.00
H703   H     0.75642   0.84665   0.35058   0.00000  Uiso   1.00
H704   H     0.93637   0.81428   0.04603   0.00000  Uiso   1.00
H705   H     0.78332   0.92642   0.34957   0.00000  Uiso   1.00
H706   H     0.76073   0.93173   0.40366   0.00000  Uiso   1.00
H707   H     0.72769   0.92104   0.35558   0.00000  Uiso   1.00
H708   H     0.90472   0.79869   0.14739   0.00000  Uiso   1.00
H709   H     0.91501   0.88233   0.15360   0.00000  Uiso   1.00
H710   H     0.93906   0.87972   0.09975   0.00000  Uiso   1.00
H711   H     0.96223   0.84996   0.14702   0.00000  Uiso   1.00
H712   H     0.72976   0.92012   0.05724   0.00000  Uiso   1.00
H713   H     0.95760   0.84059   0.43261   0.00000  Uiso   1.00
H714   H     0.70391   0.76422   0.22643   0.00000  Uiso   1.00
H715   H     0.96275   0.90268   0.27238   0.00000  Uiso   1.00
H716   H     0.96170   0.76446   0.22542   0.00000  Uiso   1.00
H717   H     0.70488   0.90248   0.27327   0.00000  Uiso   1.00
H718   H     0.88372   0.70805   0.29698   0.00000  Uiso   1.00
H719   H     0.78270   0.95866   0.20338   0.00000  Uiso   1.00
H720   H     0.78281   0.70964   0.20321   0.00000  Uiso   1.00
N721   N     0.83333   0.95240   0.25000   0.00000  Uiso   1.00
N722   N     0.83333   0.71427   0.25000   0.00000  Uiso   1.00
N723   N     0.89872   0.78823   0.39070   0.00000  Uiso   1.00
N724   N     0.75676   0.84717   0.11491   0.00000  Uiso   1.00
N725   N     0.76276   0.86505   0.37885   0.00000  Uiso   1.00
N726   N     0.90771   0.82034   0.12040   0.00000  Uiso   1.00
O727   O     0.77226   0.87154   0.25000   0.00000  Uiso   1.00
O728   O     0.97875   0.79535   0.47753   0.00000  Uiso   1.00
O729   O     0.89441   0.79513   0.25001   0.00000  Uiso   1.00
O730   O     0.89441   0.87154   0.25001   0.00000  Uiso   1.00
O731   O     0.77226   0.79513   0.25000   0.00000  Uiso   1.00
O732   O     0.83333   0.87156   0.18393   0.00000  Uiso   1.00
O733   O     0.83334   0.79511   0.31608   0.00000  Uiso   1.00
O734   O     0.83334   0.87156   0.31608   0.00000  Uiso   1.00
O735   O     0.83333   0.79511   0.18393   0.00000  Uiso   1.00
O736   O     0.68925   0.88005   0.02549   0.00000  Uiso   1.00
Zn737  Zn    0.83333   0.88437   0.25000   0.00000  Uiso   1.00
Zn738  Zn    0.83333   0.78229   0.25000   0.00000  Uiso   1.00
C739   C     0.08666   0.16662   0.75050   0.00000  Uiso   1.00
C740   C     0.04250   0.16661   0.75015   0.00000  Uiso   1.00
C741   C     0.19468   0.02355   0.77610   0.00000  Uiso   1.00
C742   C     0.13856   0.30980   0.72404   0.00000  Uiso   1.00
C743   C     0.13859   0.02443   0.72399   0.00000  Uiso   1.00
C744   C     0.19469   0.30890   0.77609   0.00000  Uiso   1.00
C745   C     0.16518   0.16717   0.66352   0.00000  Uiso   1.00
C746   C     0.16768   0.16632   0.83655   0.00000  Uiso   1.00
C747   C     0.20291   0.15214   0.90921   0.00000  Uiso   1.00
C748   C     0.12855   0.18072   0.59185   0.00000  Uiso   1.00
C749   C     0.16721   0.16626   0.88434   0.00000  Uiso   1.00
C750   C     0.24665   0.16674   0.74906   0.00000  Uiso   1.00
C751   C     0.16549   0.16915   0.61579   0.00000  Uiso   1.00
C752   C     0.13219   0.18440   0.90474   0.00000  Uiso   1.00
C753   C     0.20344   0.16248   0.59491   0.00000  Uiso   1.00
C754   C     0.13176   0.18530   0.95122   0.00000  Uiso   1.00
C755   C     0.20397   0.16355   0.54851   0.00000  Uiso   1.00
C756   C     0.16819   0.17400   0.97656   0.00000  Uiso   1.00
C757   C     0.16727   0.17477   0.52340   0.00000  Uiso   1.00
C758   C     0.20513   0.16057   0.95517   0.00000  Uiso   1.00
C759   C     0.12963   0.18599   0.54498   0.00000  Uiso   1.00
C760   C     0.09548   0.19798   0.97255   0.00000  Uiso   1.00
C761   C     0.09445   0.20051   0.51856   0.00000  Uiso   1.00
C762   C     0.24104   0.15399   0.52696   0.00000  Uiso   1.00
C763   C     0.26022   0.13873   0.85753   0.00000  Uiso   1.00
C764   C     0.07920   0.22127   0.63823   0.00000  Uiso   1.00
C765   C     0.09194   0.24685   0.87163   0.00000  Uiso   1.00
C766   C     0.26546   0.19360   0.63067   0.00000  Uiso   1.00
C767   C     0.05814   0.22446   0.53618   0.00000  Uiso   1.00
C768   C     0.28430   0.15246   0.96112   0.00000  Uiso   1.00
C769   C     0.24247   0.15385   0.98085   0.00000  Uiso   1.00
C770   C     0.02108   0.12773   0.73674   0.00000  Uiso   1.00
C771   C     0.31222   0.20582   0.76207   0.00000  Uiso   1.00
C772   C     0.31166   0.12787   0.73610   0.00000  Uiso   1.00
C773   C     0.02162   0.20569   0.76270   0.00000  Uiso   1.00
C774   C     0.29079   0.16687   0.74889   0.00000  Uiso   1.00
H775   H     0.06767   0.20763   0.95332   0.00000  Uiso   1.00
H776   H     0.21708   0.29035   0.79694   0.00000  Uiso   1.00
H777   H     0.21973   0.09009   0.88374   0.00000  Uiso   1.00
H778   H     0.29294   0.13183   0.86861   0.00000  Uiso   1.00
H779   H     0.25627   0.17576   0.85136   0.00000  Uiso   1.00
H780   H     0.25504   0.12007   0.82635   0.00000  Uiso   1.00
H781   H     0.06548   0.16338   0.60011   0.00000  Uiso   1.00
H782   H     0.04726   0.23267   0.62805   0.00000  Uiso   1.00
H783   H     0.10177   0.24919   0.63212   0.00000  Uiso   1.00
H784   H     0.07854   0.21381   0.67411   0.00000  Uiso   1.00
H785   H     0.08975   0.17999   0.85058   0.00000  Uiso   1.00
H786   H     0.26970   0.14761   0.54603   0.00000  Uiso   1.00
H787   H     0.11665   0.25975   0.84957   0.00000  Uiso   1.00
H788   H     0.09406   0.26507   0.90366   0.00000  Uiso   1.00
H789   H     0.06102   0.25437   0.85558   0.00000  Uiso   1.00
H790   H     0.23806   0.13202   0.64739   0.00000  Uiso   1.00
H791   H     0.24835   0.21566   0.65360   0.00000  Uiso   1.00
H792   H     0.27239   0.21305   0.59975   0.00000  Uiso   1.00
H793   H     0.29557   0.18329   0.64702   0.00000  Uiso   1.00
H794   H     0.06310   0.25346   0.55724   0.00000  Uiso   1.00
H795   H     0.29094   0.17392   0.93261   0.00000  Uiso   1.00
H796   H     0.03724   0.09756   0.72643   0.00000  Uiso   1.00
H797   H     0.29608   0.23601   0.77238   0.00000  Uiso   1.00
H798   H     0.29503   0.09779   0.72542   0.00000  Uiso   1.00
H799   H     0.03821   0.23581   0.77327   0.00000  Uiso   1.00
H800   H     0.21705   0.04139   0.79698   0.00000  Uiso   1.00
H801   H     0.11604   0.29199   0.70338   0.00000  Uiso   1.00
H802   H     0.11614   0.04297   0.70321   0.00000  Uiso   1.00
N803   N     0.16667   0.28573   0.75000   0.00000  Uiso   1.00
N804   N     0.16667   0.04760   0.75000   0.00000  Uiso   1.00
N805   N     0.23205   0.12157   0.89070   0.00000  Uiso   1.00
N806   N     0.09009   0.18050   0.61491   0.00000  Uiso   1.00
N807   N     0.09610   0.19838   0.87885   0.00000  Uiso   1.00
N808   N     0.24104   0.15367   0.62040   0.00000  Uiso   1.00
O809   O     0.10559   0.20487   0.75000   0.00000  Uiso   1.00
O810   O     0.31209   0.12868   0.97753   0.00000  Uiso   1.00
O811   O     0.22774   0.12846   0.75001   0.00000  Uiso   1.00
O812   O     0.22774   0.20487   0.75001   0.00000  Uiso   1.00
O813   O     0.10559   0.12846   0.75000   0.00000  Uiso   1.00
O814   O     0.16666   0.20489   0.68393   0.00000  Uiso   1.00
O815   O     0.16667   0.12844   0.81608   0.00000  Uiso   1.00
O816   O     0.16667   0.20489   0.81608   0.00000  Uiso   1.00
O817   O     0.16666   0.12844   0.68393   0.00000  Uiso   1.00
O818   O     0.02258   0.21338   0.52549   0.00000  Uiso   1.00
Zn819  Zn    0.16667   0.21771   0.75000   0.00000  Uiso   1.00
Zn820  Zn    0.16667   0.11563   0.75000   0.00000  Uiso   1.00
C821   C     0.41999   0.16662   0.75050   0.00000  Uiso   1.00
C822   C     0.37584   0.16661   0.75015   0.00000  Uiso   1.00
C823   C     0.52801   0.02355   0.77610   0.00000  Uiso   1.00
C824   C     0.47190   0.30980   0.72404   0.00000  Uiso   1.00
C825   C     0.47192   0.02443   0.72399   0.00000  Uiso   1.00
C826   C     0.52802   0.30890   0.77609   0.00000  Uiso   1.00
C827   C     0.49851   0.16717   0.66352   0.00000  Uiso   1.00
C828   C     0.50102   0.16632   0.83655   0.00000  Uiso   1.00
C829   C     0.53624   0.15214   0.90921   0.00000  Uiso   1.00
C830   C     0.46188   0.18072   0.59185   0.00000  Uiso   1.00
C831   C     0.50054   0.16626   0.88434   0.00000  Uiso   1.00
C832   C     0.57998   0.16674   0.74906   0.00000  Uiso   1.00
C833   C     0.49882   0.16915   0.61579   0.00000  Uiso   1.00
C834   C     0.46552   0.18440   0.90474   0.00000  Uiso   1.00
C835   C     0.53677   0.16248   0.59491   0.00000  Uiso   1.00
C836   C     0.46509   0.18530   0.95122   0.00000  Uiso   1.00
C837   C     0.53731   0.16355   0.54851   0.00000  Uiso   1.00
C838   C     0.50152   0.17400   0.97656   0.00000  Uiso   1.00
C839   C     0.50060   0.17477   0.52340   0.00000  Uiso   1.00
C840   C     0.53846   0.16057   0.95517   0.00000  Uiso   1.00
C841   C     0.46296   0.18599   0.54498   0.00000  Uiso   1.00
C842   C     0.42882   0.19798   0.97255   0.00000  Uiso   1.00
C843   C     0.42779   0.20051   0.51856   0.00000  Uiso   1.00
C844   C     0.57437   0.15399   0.52696   0.00000  Uiso   1.00
C845   C     0.59355   0.13873   0.85753   0.00000  Uiso   1.00
C846   C     0.41253   0.22127   0.63823   0.00000  Uiso   1.00
C847   C     0.42527   0.24685   0.87163   0.00000  Uiso   1.00
C848   C     0.59879   0.19360   0.63067   0.00000  Uiso   1.00
C849   C     0.39148   0.22446   0.53618   0.00000  Uiso   1.00
C850   C     0.61763   0.15246   0.96112   0.00000  Uiso   1.00
C851   C     0.57580   0.15385   0.98085   0.00000  Uiso   1.00
C852   C     0.35441   0.12773   0.73674   0.00000  Uiso   1.00
C853   C     0.64555   0.20582   0.76207   0.00000  Uiso   1.00
C854   C     0.64499   0.12787   0.73610   0.00000  Uiso   1.00
C855   C     0.35495   0.20569   0.76270   0.00000  Uiso   1.00
C856   C     0.62412   0.16687   0.74889   0.00000  Uiso   1.00
H857   H     0.40101   0.20763   0.95332   0.00000  Uiso   1.00
H858   H     0.55042   0.29035   0.79694   0.00000  Uiso   1.00
H859   H     0.55306   0.09009   0.88374   0.00000  Uiso   1.00
H860   H     0.62628   0.13183   0.86861   0.00000  Uiso   1.00
H861   H     0.58960   0.17576   0.85136   0.00000  Uiso   1.00
H862   H     0.58838   0.12007   0.82635   0.00000  Uiso   1.00
H863   H     0.39881   0.16338   0.60011   0.00000  Uiso   1.00
H864   H     0.38059   0.23267   0.62805   0.00000  Uiso   1.00
H865   H     0.43510   0.24919   0.63212   0.00000  Uiso   1.00
H866   H     0.41187   0.21381   0.67411   0.00000  Uiso   1.00
H867   H     0.42309   0.17999   0.85058   0.00000  Uiso   1.00
H868   H     0.60304   0.14761   0.54603   0.00000  Uiso   1.00
H869   H     0.44999   0.25975   0.84957   0.00000  Uiso   1.00
H870   H     0.42740   0.26507   0.90366   0.00000  Uiso   1.00
H871   H     0.39436   0.25437   0.85558   0.00000  Uiso   1.00
H872   H     0.57139   0.13202   0.64739   0.00000  Uiso   1.00
H873   H     0.58168   0.21566   0.65360   0.00000  Uiso   1.00
H874   H     0.60572   0.21305   0.59975   0.00000  Uiso   1.00
H875   H     0.62890   0.18329   0.64702   0.00000  Uiso   1.00
H876   H     0.39643   0.25346   0.55724   0.00000  Uiso   1.00
H877   H     0.62427   0.17392   0.93261   0.00000  Uiso   1.00
H878   H     0.37058   0.09756   0.72643   0.00000  Uiso   1.00
H879   H     0.62941   0.23601   0.77238   0.00000  Uiso   1.00
H880   H     0.62836   0.09779   0.72542   0.00000  Uiso   1.00
H881   H     0.37155   0.23581   0.77327   0.00000  Uiso   1.00
H882   H     0.55039   0.04139   0.79698   0.00000  Uiso   1.00
H883   H     0.44937   0.29199   0.70338   0.00000  Uiso   1.00
H884   H     0.44947   0.04297   0.70321   0.00000  Uiso   1.00
N885   N     0.50000   0.28573   0.75000   0.00000  Uiso   1.00
N886   N     0.50000   0.04760   0.75000   0.00000  Uiso   1.00
N887   N     0.56538   0.12157   0.89070   0.00000  Uiso   1.00
N888   N     0.42343   0.18050   0.61491   0.00000  Uiso   1.00
N889   N     0.42943   0.19838   0.87885   0.00000  Uiso   1.00
N890   N     0.57438   0.15367   0.62040   0.00000  Uiso   1.00
O891   O     0.43892   0.20487   0.75000   0.00000  Uiso   1.00
O892   O     0.64542   0.12868   0.97753   0.00000  Uiso   1.00
O893   O     0.56108   0.12846   0.75001   0.00000  Uiso   1.00
O894   O     0.56108   0.20487   0.75001   0.00000  Uiso   1.00
O895   O     0.43892   0.12846   0.75000   0.00000  Uiso   1.00
O896   O     0.49999   0.20489   0.68393   0.00000  Uiso   1.00
O897   O     0.50001   0.12844   0.81608   0.00000  Uiso   1.00
O898   O     0.50001   0.20489   0.81608   0.00000  Uiso   1.00
O899   O     0.49999   0.12844   0.68393   0.00000  Uiso   1.00
O900   O     0.35591   0.21338   0.52549   0.00000  Uiso   1.00
Zn901  Zn    0.50000   0.21771   0.75000   0.00000  Uiso   1.00
Zn902  Zn    0.50000   0.11563   0.75000   0.00000  Uiso   1.00
C903   C     0.75332   0.16662   0.75050   0.00000  Uiso   1.00
C904   C     0.70917   0.16661   0.75015   0.00000  Uiso   1.00
C905   C     0.86134   0.02355   0.77610   0.00000  Uiso   1.00
C906   C     0.80523   0.30980   0.72404   0.00000  Uiso   1.00
C907   C     0.80526   0.02443   0.72399   0.00000  Uiso   1.00
C908   C     0.86136   0.30890   0.77609   0.00000  Uiso   1.00
C909   C     0.83184   0.16717   0.66352   0.00000  Uiso   1.00
C910   C     0.83435   0.16632   0.83655   0.00000  Uiso   1.00
C911   C     0.86958   0.15214   0.90921   0.00000  Uiso   1.00
C912   C     0.79521   0.18072   0.59185   0.00000  Uiso   1.00
C913   C     0.83388   0.16626   0.88434   0.00000  Uiso   1.00
C914   C     0.91332   0.16674   0.74906   0.00000  Uiso   1.00
C915   C     0.83215   0.16915   0.61579   0.00000  Uiso   1.00
C916   C     0.79885   0.18440   0.90474   0.00000  Uiso   1.00
C917   C     0.87010   0.16248   0.59491   0.00000  Uiso   1.00
C918   C     0.79843   0.18530   0.95122   0.00000  Uiso   1.00
C919   C     0.87064   0.16355   0.54851   0.00000  Uiso   1.00
C920   C     0.83486   0.17400   0.97656   0.00000  Uiso   1.00
C921   C     0.83394   0.17477   0.52340   0.00000  Uiso   1.00
C922   C     0.87180   0.16057   0.95517   0.00000  Uiso   1.00
C923   C     0.79629   0.18599   0.54498   0.00000  Uiso   1.00
C924   C     0.76215   0.19798   0.97255   0.00000  Uiso   1.00
C925   C     0.76112   0.20051   0.51856   0.00000  Uiso   1.00
C926   C     0.90770   0.15399   0.52696   0.00000  Uiso   1.00
C927   C     0.92689   0.13873   0.85753   0.00000  Uiso   1.00
C928   C     0.74586   0.22127   0.63823   0.00000  Uiso   1.00
C929   C     0.75860   0.24685   0.87163   0.00000  Uiso   1.00
C930   C     0.93212   0.19360   0.63067   0.00000  Uiso   1.00
C931   C     0.72481   0.22446   0.53618   0.00000  Uiso   1.00
C932   C     0.95097   0.15246   0.96112   0.00000  Uiso   1.00
C933   C     0.90913   0.15385   0.98085   0.00000  Uiso   1.00
C934   C     0.68774   0.12773   0.73674   0.00000  Uiso   1.00
C935   C     0.97889   0.20582   0.76207   0.00000  Uiso   1.00
C936   C     0.97833   0.12787   0.73610   0.00000  Uiso   1.00
C937   C     0.68829   0.20569   0.76270   0.00000  Uiso   1.00
C938   C     0.95746   0.16687   0.74889   0.00000  Uiso   1.00
H939   H     0.73434   0.20763   0.95332   0.00000  Uiso   1.00
H940   H     0.88375   0.29035   0.79694   0.00000  Uiso   1.00
H941   H     0.88640   0.09009   0.88374   0.00000  Uiso   1.00
H942   H     0.95961   0.13183   0.86861   0.00000  Uiso   1.00
H943   H     0.92293   0.17576   0.85136   0.00000  Uiso   1.00
H944   H     0.92171   0.12007   0.82635   0.00000  Uiso   1.00
H945   H     0.73214   0.16338   0.60011   0.00000  Uiso   1.00
H946   H     0.71393   0.23267   0.62805   0.00000  Uiso   1.00
H947   H     0.76843   0.24919   0.63212   0.00000  Uiso   1.00
H948   H     0.74521   0.21381   0.67411   0.00000  Uiso   1.00
H949   H     0.75642   0.17999   0.85058   0.00000  Uiso   1.00
H950   H     0.93637   0.14761   0.54603   0.00000  Uiso   1.00
H951   H     0.78332   0.25975   0.84957   0.00000  Uiso   1.00
H952   H     0.76073   0.26507   0.90366   0.00000  Uiso   1.00
H953   H     0.72769   0.25437   0.85558   0.00000  Uiso   1.00
H954   H     0.90472   0.13202   0.64739   0.00000  Uiso   1.00
H955   H     0.91501   0.21566   0.65360   0.00000  Uiso   1.00
H956   H     0.93906   0.21305   0.59975   0.00000  Uiso   1.00
H957   H     0.96223   0.18329   0.64702   0.00000  Uiso   1.00
H958   H     0.72976   0.25346   0.55724   0.00000  Uiso   1.00
H959   H     0.95760   0.17392   0.93261   0.00000  Uiso   1.00
H960   H     0.70391   0.09756   0.72643   0.00000  Uiso   1.00
H961   H     0.96275   0.23601   0.77238   0.00000  Uiso   1.00
H962   H     0.96170   0.09779   0.72542   0.00000  Uiso   1.00
H963   H     0.70488   0.23581   0.77327   0.00000  Uiso   1.00
H964   H     0.88372   0.04139   0.79698   0.00000  Uiso   1.00
H965   H     0.78270   0.29199   0.70338   0.00000  Uiso   1.00
H966   H     0.78281   0.04297   0.70321   0.00000  Uiso   1.00
N967   N     0.83333   0.28573   0.75000   0.00000  Uiso   1.00
N968   N     0.83333   0.04760   0.75000   0.00000  Uiso   1.00
N969   N     0.89872   0.12157   0.89070   0.00000  Uiso   1.00
N970   N     0.75676   0.18050   0.61491   0.00000  Uiso   1.00
N971   N     0.76276   0.19838   0.87885   0.00000  Uiso   1.00
N972   N     0.90771   0.15367   0.62040   0.00000  Uiso   1.00
O973   O     0.77226   0.20487   0.75000   0.00000  Uiso   1.00
O974   O     0.97875   0.12868   0.97753   0.00000  Uiso   1.00
O975   O     0.89441   0.12846   0.75001   0.00000  Uiso   1.00
O976   O     0.89441   0.20487   0.75001   0.00000  Uiso   1.00
O977   O     0.77226   0.12846   0.75000   0.00000  Uiso   1.00
O978   O     0.83333   0.20489   0.68393   0.00000  Uiso   1.00
O979   O     0.83334   0.12844   0.81608   0.00000  Uiso   1.00
O980   O     0.83334   0.20489   0.81608   0.00000  Uiso   1.00
O981   O     0.83333   0.12844   0.68393   0.00000  Uiso   1.00
O982   O     0.68925   0.21338   0.52549   0.00000  Uiso   1.00
Zn983  Zn    0.83333   0.21771   0.75000   0.00000  Uiso   1.00
Zn984  Zn    0.83333   0.11563   0.75000   0.00000  Uiso   1.00
C985   C     0.08666   0.49995   0.75050   0.00000  Uiso   1.00
C986   C     0.04250   0.49994   0.75015   0.00000  Uiso   1.00
C987   C     0.19468   0.35688   0.77610   0.00000  Uiso   1.00
C988   C     0.13856   0.64313   0.72404   0.00000  Uiso   1.00
C989   C     0.13859   0.35776   0.72399   0.00000  Uiso   1.00
C990   C     0.19469   0.64223   0.77609   0.00000  Uiso   1.00
C991   C     0.16518   0.50050   0.66352   0.00000  Uiso   1.00
C992   C     0.16768   0.49965   0.83655   0.00000  Uiso   1.00
C993   C     0.20291   0.48548   0.90921   0.00000  Uiso   1.00
C994   C     0.12855   0.51406   0.59185   0.00000  Uiso   1.00
C995   C     0.16721   0.49960   0.88434   0.00000  Uiso   1.00
C996   C     0.24665   0.50007   0.74906   0.00000  Uiso   1.00
C997   C     0.16549   0.50248   0.61579   0.00000  Uiso   1.00
C998   C     0.13219   0.51773   0.90474   0.00000  Uiso   1.00
C999   C     0.20344   0.49581   0.59491   0.00000  Uiso   1.00
C1000  C     0.13176   0.51864   0.95122   0.00000  Uiso   1.00
C1001  C     0.20397   0.49689   0.54851   0.00000  Uiso   1.00
C1002  C     0.16819   0.50734   0.97656   0.00000  Uiso   1.00
C1003  C     0.16727   0.50811   0.52340   0.00000  Uiso   1.00
C1004  C     0.20513   0.49390   0.95517   0.00000  Uiso   1.00
C1005  C     0.12963   0.51932   0.54498   0.00000  Uiso   1.00
C1006  C     0.09548   0.53132   0.97255   0.00000  Uiso   1.00
C1007  C     0.09445   0.53385   0.51856   0.00000  Uiso   1.00
C1008  C     0.24104   0.48732   0.52696   0.00000  Uiso   1.00
C1009  C     0.26022   0.47207   0.85753   0.00000  Uiso   1.00
C1010  C     0.07920   0.55461   0.63823   0.00000  Uiso   1.00
C1011  C     0.09194   0.58019   0.87163   0.00000  Uiso   1.00
C1012  C     0.26546   0.52693   0.63067   0.00000  Uiso   1.00
C1013  C     0.05814   0.55780   0.53618   0.00000  Uiso   1.00
C1014  C     0.28430   0.48579   0.96112   0.00000  Uiso   1.00
C1015  C     0.24247   0.48718   0.98085   0.00000  Uiso   1.00
C1016  C     0.02108   0.46106   0.73674   0.00000  Uiso   1.00
C1017  C     0.31222   0.53916   0.76207   0.00000  Uiso   1.00
C1018  C     0.31166   0.46120   0.73610   0.00000  Uiso   1.00
C1019  C     0.02162   0.53902   0.76270   0.00000  Uiso   1.00
C1020  C     0.29079   0.50020   0.74889   0.00000  Uiso   1.00
H1021  H     0.06767   0.54097   0.95332   0.00000  Uiso   1.00
H1022  H     0.21708   0.62368   0.79694   0.00000  Uiso   1.00
H1023  H     0.21973   0.42343   0.88374   0.00000  Uiso   1.00
H1024  H     0.29294   0.46517   0.86861   0.00000  Uiso   1.00
H1025  H     0.25627   0.50910   0.85136   0.00000  Uiso   1.00
H1026  H     0.25504   0.45340   0.82635   0.00000  Uiso   1.00
H1027  H     0.06548   0.49671   0.60011   0.00000  Uiso   1.00
H1028  H     0.04726   0.56600   0.62805   0.00000  Uiso   1.00
H1029  H     0.10177   0.58252   0.63212   0.00000  Uiso   1.00
H1030  H     0.07854   0.54714   0.67411   0.00000  Uiso   1.00
H1031  H     0.08975   0.51332   0.85058   0.00000  Uiso   1.00
H1032  H     0.26970   0.48095   0.54603   0.00000  Uiso   1.00
H1033  H     0.11665   0.59309   0.84957   0.00000  Uiso   1.00
H1034  H     0.09406   0.59840   0.90366   0.00000  Uiso   1.00
H1035  H     0.06102   0.58770   0.85558   0.00000  Uiso   1.00
H1036  H     0.23806   0.46535   0.64739   0.00000  Uiso   1.00
H1037  H     0.24835   0.54899   0.65360   0.00000  Uiso   1.00
H1038  H     0.27239   0.54638   0.59975   0.00000  Uiso   1.00
H1039  H     0.29557   0.51662   0.64702   0.00000  Uiso   1.00
H1040  H     0.06310   0.58679   0.55724   0.00000  Uiso   1.00
H1041  H     0.29094   0.50725   0.93261   0.00000  Uiso   1.00
H1042  H     0.03724   0.43089   0.72643   0.00000  Uiso   1.00
H1043  H     0.29608   0.56934   0.77238   0.00000  Uiso   1.00
H1044  H     0.29503   0.43113   0.72542   0.00000  Uiso   1.00
H1045  H     0.03821   0.56915   0.77327   0.00000  Uiso   1.00
H1046  H     0.21705   0.37472   0.79698   0.00000  Uiso   1.00
H1047  H     0.11604   0.62533   0.70338   0.00000  Uiso   1.00
H1048  H     0.11614   0.37630   0.70321   0.00000  Uiso   1.00
N1049  N     0.16667   0.61907   0.75000   0.00000  Uiso   1.00
N1050  N     0.16667   0.38093   0.75000   0.00000  Uiso   1.00
N1051  N     0.23205   0.45490   0.89070   0.00000  Uiso   1.00
N1052  N     0.09009   0.51384   0.61491   0.00000  Uiso   1.00
N1053  N     0.09610   0.53172   0.87885   0.00000  Uiso   1.00
N1054  N     0.24104   0.48701   0.62040   0.00000  Uiso   1.00
O1055  O     0.10559   0.53821   0.75000   0.00000  Uiso   1.00
O1056  O     0.31209   0.46201   0.97753   0.00000  Uiso   1.00
O1057  O     0.22774   0.46179   0.75001   0.00000  Uiso   1.00
O1058  O     0.22774   0.53821   0.75001   0.00000  Uiso   1.00
O1059  O     0.10559   0.46179   0.75000   0.00000  Uiso   1.00
O1060  O     0.16666   0.53823   0.68393   0.00000  Uiso   1.00
O1061  O     0.16667   0.46177   0.81608   0.00000  Uiso   1.00
O1062  O     0.16667   0.53823   0.81608   0.00000  Uiso   1.00
O1063  O     0.16666   0.46177   0.68393   0.00000  Uiso   1.00
O1064  O     0.02258   0.54671   0.52549   0.00000  Uiso   1.00
Zn1065 Zn    0.16667   0.55104   0.75000   0.00000  Uiso   1.00
Zn1066 Zn    0.16667   0.44896   0.75000   0.00000  Uiso   1.00
C1067  C     0.41999   0.49995   0.75050   0.00000  Uiso   1.00
C1068  C     0.37584   0.49994   0.75015   0.00000  Uiso   1.00
C1069  C     0.52801   0.35688   0.77610   0.00000  Uiso   1.00
C1070  C     0.47190   0.64313   0.72404   0.00000  Uiso   1.00
C1071  C     0.47192   0.35776   0.72399   0.00000  Uiso   1.00
C1072  C     0.52802   0.64223   0.77609   0.00000  Uiso   1.00
C1073  C     0.49851   0.50050   0.66352   0.00000  Uiso   1.00
C1074  C     0.50102   0.49965   0.83655   0.00000  Uiso   1.00
C1075  C     0.53624   0.48548   0.90921   0.00000  Uiso   1.00
C1076  C     0.46188   0.51406   0.59185   0.00000  Uiso   1.00
C1077  C     0.50054   0.49960   0.88434   0.00000  Uiso   1.00
C1078  C     0.57998   0.50007   0.74906   0.00000  Uiso   1.00
C1079  C     0.49882   0.50248   0.61579   0.00000  Uiso   1.00
C1080  C     0.46552   0.51773   0.90474   0.00000  Uiso   1.00
C1081  C     0.53677   0.49581   0.59491   0.00000  Uiso   1.00
C1082  C     0.46509   0.51864   0.95122   0.00000  Uiso   1.00
C1083  C     0.53731   0.49689   0.54851   0.00000  Uiso   1.00
C1084  C     0.50152   0.50734   0.97656   0.00000  Uiso   1.00
C1085  C     0.50060   0.50811   0.52340   0.00000  Uiso   1.00
C1086  C     0.53846   0.49390   0.95517   0.00000  Uiso   1.00
C1087  C     0.46296   0.51932   0.54498   0.00000  Uiso   1.00
C1088  C     0.42882   0.53132   0.97255   0.00000  Uiso   1.00
C1089  C     0.42779   0.53385   0.51856   0.00000  Uiso   1.00
C1090  C     0.57437   0.48732   0.52696   0.00000  Uiso   1.00
C1091  C     0.59355   0.47207   0.85753   0.00000  Uiso   1.00
C1092  C     0.41253   0.55461   0.63823   0.00000  Uiso   1.00
C1093  C     0.42527   0.58019   0.87163   0.00000  Uiso   1.00
C1094  C     0.59879   0.52693   0.63067   0.00000  Uiso   1.00
C1095  C     0.39148   0.55780   0.53618   0.00000  Uiso   1.00
C1096  C     0.61763   0.48579   0.96112   0.00000  Uiso   1.00
C1097  C     0.57580   0.48718   0.98085   0.00000  Uiso   1.00
C1098  C     0.35441   0.46106   0.73674   0.00000  Uiso   1.00
C1099  C     0.64555   0.53916   0.76207   0.00000  Uiso   1.00
C1100  C     0.64499   0.46120   0.73610   0.00000  Uiso   1.00
C1101  C     0.35495   0.53902   0.76270   0.00000  Uiso   1.00
C1102  C     0.62412   0.50020   0.74889   0.00000  Uiso   1.00
H1103  H     0.40101   0.54097   0.95332   0.00000  Uiso   1.00
H1104  H     0.55042   0.62368   0.79694   0.00000  Uiso   1.00
H1105  H     0.55306   0.42343   0.88374   0.00000  Uiso   1.00
H1106  H     0.62628   0.46517   0.86861   0.00000  Uiso   1.00
H1107  H     0.58960   0.50910   0.85136   0.00000  Uiso   1.00
H1108  H     0.58838   0.45340   0.82635   0.00000  Uiso   1.00
H1109  H     0.39881   0.49671   0.60011   0.00000  Uiso   1.00
H1110  H     0.38059   0.56600   0.62805   0.00000  Uiso   1.00
H1111  H     0.43510   0.58252   0.63212   0.00000  Uiso   1.00
H1112  H     0.41187   0.54714   0.67411   0.00000  Uiso   1.00
H1113  H     0.42309   0.51332   0.85058   0.00000  Uiso   1.00
H1114  H     0.60304   0.48095   0.54603   0.00000  Uiso   1.00
H1115  H     0.44999   0.59309   0.84957   0.00000  Uiso   1.00
H1116  H     0.42740   0.59840   0.90366   0.00000  Uiso   1.00
H1117  H     0.39436   0.58770   0.85558   0.00000  Uiso   1.00
H1118  H     0.57139   0.46535   0.64739   0.00000  Uiso   1.00
H1119  H     0.58168   0.54899   0.65360   0.00000  Uiso   1.00
H1120  H     0.60572   0.54638   0.59975   0.00000  Uiso   1.00
H1121  H     0.62890   0.51662   0.64702   0.00000  Uiso   1.00
H1122  H     0.39643   0.58679   0.55724   0.00000  Uiso   1.00
H1123  H     0.62427   0.50725   0.93261   0.00000  Uiso   1.00
H1124  H     0.37058   0.43089   0.72643   0.00000  Uiso   1.00
H1125  H     0.62941   0.56934   0.77238   0.00000  Uiso   1.00
H1126  H     0.62836   0.43113   0.72542   0.00000  Uiso   1.00
H1127  H     0.37155   0.56915   0.77327   0.00000  Uiso   1.00
H1128  H     0.55039   0.37472   0.79698   0.00000  Uiso   1.00
H1129  H     0.44937   0.62533   0.70338   0.00000  Uiso   1.00
H1130  H     0.44947   0.37630   0.70321   0.00000  Uiso   1.00
N1131  N     0.50000   0.61907   0.75000   0.00000  Uiso   1.00
N1132  N     0.50000   0.38093   0.75000   0.00000  Uiso   1.00
N1133  N     0.56538   0.45490   0.89070   0.00000  Uiso   1.00
N1134  N     0.42343   0.51384   0.61491   0.00000  Uiso   1.00
N1135  N     0.42943   0.53172   0.87885   0.00000  Uiso   1.00
N1136  N     0.57438   0.48701   0.62040   0.00000  Uiso   1.00
O1137  O     0.43892   0.53821   0.75000   0.00000  Uiso   1.00
O1138  O     0.64542   0.46201   0.97753   0.00000  Uiso   1.00
O1139  O     0.56108   0.46179   0.75001   0.00000  Uiso   1.00
O1140  O     0.56108   0.53821   0.75001   0.00000  Uiso   1.00
O1141  O     0.43892   0.46179   0.75000   0.00000  Uiso   1.00
O1142  O     0.49999   0.53823   0.68393   0.00000  Uiso   1.00
O1143  O     0.50001   0.46177   0.81608   0.00000  Uiso   1.00
O1144  O     0.50001   0.53823   0.81608   0.00000  Uiso   1.00
O1145  O     0.49999   0.46177   0.68393   0.00000  Uiso   1.00
O1146  O     0.35591   0.54671   0.52549   0.00000  Uiso   1.00
Zn1147 Zn    0.50000   0.55104   0.75000   0.00000  Uiso   1.00
Zn1148 Zn    0.50000   0.44896   0.75000   0.00000  Uiso   1.00
C1149  C     0.75332   0.49995   0.75050   0.00000  Uiso   1.00
C1150  C     0.70917   0.49994   0.75015   0.00000  Uiso   1.00
C1151  C     0.86134   0.35688   0.77610   0.00000  Uiso   1.00
C1152  C     0.80523   0.64313   0.72404   0.00000  Uiso   1.00
C1153  C     0.80526   0.35776   0.72399   0.00000  Uiso   1.00
C1154  C     0.86136   0.64223   0.77609   0.00000  Uiso   1.00
C1155  C     0.83184   0.50050   0.66352   0.00000  Uiso   1.00
C1156  C     0.83435   0.49965   0.83655   0.00000  Uiso   1.00
C1157  C     0.86958   0.48548   0.90921   0.00000  Uiso   1.00
C1158  C     0.79521   0.51406   0.59185   0.00000  Uiso   1.00
C1159  C     0.83388   0.49960   0.88434   0.00000  Uiso   1.00
C1160  C     0.91332   0.50007   0.74906   0.00000  Uiso   1.00
C1161  C     0.83215   0.50248   0.61579   0.00000  Uiso   1.00
C1162  C     0.79885   0.51773   0.90474   0.00000  Uiso   1.00
C1163  C     0.87010   0.49581   0.59491   0.00000  Uiso   1.00
C1164  C     0.79843   0.51864   0.95122   0.00000  Uiso   1.00
C1165  C     0.87064   0.49689   0.54851   0.00000  Uiso   1.00
C1166  C     0.83486   0.50734   0.97656   0.00000  Uiso   1.00
C1167  C     0.83394   0.50811   0.52340   0.00000  Uiso   1.00
C1168  C     0.87180   0.49390   0.95517   0.00000  Uiso   1.00
C1169  C     0.79629   0.51932   0.54498   0.00000  Uiso   1.00
C1170  C     0.76215   0.53132   0.97255   0.00000  Uiso   1.00
C1171  C     0.76112   0.53385   0.51856   0.00000  Uiso   1.00
C1172  C     0.90770   0.48732   0.52696   0.00000  Uiso   1.00
C1173  C     0.92689   0.47207   0.85753   0.00000  Uiso   1.00
C1174  C     0.74586   0.55461   0.63823   0.00000  Uiso   1.00
C1175  C     0.75860   0.58019   0.87163   0.00000  Uiso   1.00
C1176  C     0.93212   0.52693   0.63067   0.00000  Uiso   1.00
C1177  C     0.72481   0.55780   0.53618   0.00000  Uiso   1.00
C1178  C     0.95097   0.48579   0.96112   0.00000  Uiso   1.00
C1179  C     0.90913   0.48718   0.98085   0.00000  Uiso   1.00
C1180  C     0.68774   0.46106   0.73674   0.00000  Uiso   1.00
C1181  C     0.97889   0.53916   0.76207   0.00000  Uiso   1.00
C1182  C     0.97833   0.46120   0.73610   0.00000  Uiso   1.00
C1183  C     0.68829   0.53902   0.76270   0.00000  Uiso   1.00
C1184  C     0.95746   0.50020   0.74889   0.00000  Uiso   1.00
H1185  H     0.73434   0.54097   0.95332   0.00000  Uiso   1.00
H1186  H     0.88375   0.62368   0.79694   0.00000  Uiso   1.00
H1187  H     0.88640   0.42343   0.88374   0.00000  Uiso   1.00
H1188  H     0.95961   0.46517   0.86861   0.00000  Uiso   1.00
H1189  H     0.92293   0.50910   0.85136   0.00000  Uiso   1.00
H1190  H     0.92171   0.45340   0.82635   0.00000  Uiso   1.00
H1191  H     0.73214   0.49671   0.60011   0.00000  Uiso   1.00
H1192  H     0.71393   0.56600   0.62805   0.00000  Uiso   1.00
H1193  H     0.76843   0.58252   0.63212   0.00000  Uiso   1.00
H1194  H     0.74521   0.54714   0.67411   0.00000  Uiso   1.00
H1195  H     0.75642   0.51332   0.85058   0.00000  Uiso   1.00
H1196  H     0.93637   0.48095   0.54603   0.00000  Uiso   1.00
H1197  H     0.78332   0.59309   0.84957   0.00000  Uiso   1.00
H1198  H     0.76073   0.59840   0.90366   0.00000  Uiso   1.00
H1199  H     0.72769   0.58770   0.85558   0.00000  Uiso   1.00
H1200  H     0.90472   0.46535   0.64739   0.00000  Uiso   1.00
H1201  H     0.91501   0.54899   0.65360   0.00000  Uiso   1.00
H1202  H     0.93906   0.54638   0.59975   0.00000  Uiso   1.00
H1203  H     0.96223   0.51662   0.64702   0.00000  Uiso   1.00
H1204  H     0.72976   0.58679   0.55724   0.00000  Uiso   1.00
H1205  H     0.95760   0.50725   0.93261   0.00000  Uiso   1.00
H1206  H     0.70391   0.43089   0.72643   0.00000  Uiso   1.00
H1207  H     0.96275   0.56934   0.77238   0.00000  Uiso   1.00
H1208  H     0.96170   0.43113   0.72542   0.00000  Uiso   1.00
H1209  H     0.70488   0.56915   0.77327   0.00000  Uiso   1.00
H1210  H     0.88372   0.37472   0.79698   0.00000  Uiso   1.00
H1211  H     0.78270   0.62533   0.70338   0.00000  Uiso   1.00
H1212  H     0.78281   0.37630   0.70321   0.00000  Uiso   1.00
N1213  N     0.83333   0.61907   0.75000   0.00000  Uiso   1.00
N1214  N     0.83333   0.38093   0.75000   0.00000  Uiso   1.00
N1215  N     0.89872   0.45490   0.89070   0.00000  Uiso   1.00
N1216  N     0.75676   0.51384   0.61491   0.00000  Uiso   1.00
N1217  N     0.76276   0.53172   0.87885   0.00000  Uiso   1.00
N1218  N     0.90771   0.48701   0.62040   0.00000  Uiso   1.00
O1219  O     0.77226   0.53821   0.75000   0.00000  Uiso   1.00
O1220  O     0.97875   0.46201   0.97753   0.00000  Uiso   1.00
O1221  O     0.89441   0.46179   0.75001   0.00000  Uiso   1.00
O1222  O     0.89441   0.53821   0.75001   0.00000  Uiso   1.00
O1223  O     0.77226   0.46179   0.75000   0.00000  Uiso   1.00
O1224  O     0.83333   0.53823   0.68393   0.00000  Uiso   1.00
O1225  O     0.83334   0.46177   0.81608   0.00000  Uiso   1.00
O1226  O     0.83334   0.53823   0.81608   0.00000  Uiso   1.00
O1227  O     0.83333   0.46177   0.68393   0.00000  Uiso   1.00
O1228  O     0.68925   0.54671   0.52549   0.00000  Uiso   1.00
Zn1229 Zn    0.83333   0.55104   0.75000   0.00000  Uiso   1.00
Zn1230 Zn    0.83333   0.44896   0.75000   0.00000  Uiso   1.00
C1231  C     0.08666   0.83329   0.75050   0.00000  Uiso   1.00
C1232  C     0.04250   0.83327   0.75015   0.00000  Uiso   1.00
C1233  C     0.19468   0.69021   0.77610   0.00000  Uiso   1.00
C1234  C     0.13856   0.97646   0.72404   0.00000  Uiso   1.00
C1235  C     0.13859   0.69110   0.72399   0.00000  Uiso   1.00
C1236  C     0.19469   0.97557   0.77609   0.00000  Uiso   1.00
C1237  C     0.16518   0.83383   0.66352   0.00000  Uiso   1.00
C1238  C     0.16768   0.83298   0.83655   0.00000  Uiso   1.00
C1239  C     0.20291   0.81881   0.90921   0.00000  Uiso   1.00
C1240  C     0.12855   0.84739   0.59185   0.00000  Uiso   1.00
C1241  C     0.16721   0.83293   0.88434   0.00000  Uiso   1.00
C1242  C     0.24665   0.83340   0.74906   0.00000  Uiso   1.00
C1243  C     0.16549   0.83582   0.61579   0.00000  Uiso   1.00
C1244  C     0.13219   0.85106   0.90474   0.00000  Uiso   1.00
C1245  C     0.20344   0.82915   0.59491   0.00000  Uiso   1.00
C1246  C     0.13176   0.85197   0.95122   0.00000  Uiso   1.00
C1247  C     0.20397   0.83022   0.54851   0.00000  Uiso   1.00
C1248  C     0.16819   0.84067   0.97656   0.00000  Uiso   1.00
C1249  C     0.16727   0.84144   0.52340   0.00000  Uiso   1.00
C1250  C     0.20513   0.82724   0.95517   0.00000  Uiso   1.00
C1251  C     0.12963   0.85265   0.54498   0.00000  Uiso   1.00
C1252  C     0.09548   0.86465   0.97255   0.00000  Uiso   1.00
C1253  C     0.09445   0.86718   0.51856   0.00000  Uiso   1.00
C1254  C     0.24104   0.82066   0.52696   0.00000  Uiso   1.00
C1255  C     0.26022   0.80540   0.85753   0.00000  Uiso   1.00
C1256  C     0.07920   0.88794   0.63823   0.00000  Uiso   1.00
C1257  C     0.09194   0.91352   0.87163   0.00000  Uiso   1.00
C1258  C     0.26546   0.86027   0.63067   0.00000  Uiso   1.00
C1259  C     0.05814   0.89113   0.53618   0.00000  Uiso   1.00
C1260  C     0.28430   0.81912   0.96112   0.00000  Uiso   1.00
C1261  C     0.24247   0.82052   0.98085   0.00000  Uiso   1.00
C1262  C     0.02108   0.79439   0.73674   0.00000  Uiso   1.00
C1263  C     0.31222   0.87249   0.76207   0.00000  Uiso   1.00
C1264  C     0.31166   0.79454   0.73610   0.00000  Uiso   1.00
C1265  C     0.02162   0.87235   0.76270   0.00000  Uiso   1.00
C1266  C     0.29079   0.83353   0.74889   0.00000  Uiso   1.00
H1267  H     0.06767   0.87430   0.95332   0.00000  Uiso   1.00
H1268  H     0.21708   0.95702   0.79694   0.00000  Uiso   1.00
H1269  H     0.21973   0.75676   0.88374   0.00000  Uiso   1.00
H1270  H     0.29294   0.79850   0.86861   0.00000  Uiso   1.00
H1271  H     0.25627   0.84243   0.85136   0.00000  Uiso   1.00
H1272  H     0.25504   0.78674   0.82635   0.00000  Uiso   1.00
H1273  H     0.06548   0.83005   0.60011   0.00000  Uiso   1.00
H1274  H     0.04726   0.89934   0.62805   0.00000  Uiso   1.00
H1275  H     0.10177   0.91585   0.63212   0.00000  Uiso   1.00
H1276  H     0.07854   0.88048   0.67411   0.00000  Uiso   1.00
H1277  H     0.08975   0.84665   0.85058   0.00000  Uiso   1.00
H1278  H     0.26970   0.81428   0.54603   0.00000  Uiso   1.00
H1279  H     0.11665   0.92642   0.84957   0.00000  Uiso   1.00
H1280  H     0.09406   0.93173   0.90366   0.00000  Uiso   1.00
H1281  H     0.06102   0.92104   0.85558   0.00000  Uiso   1.00
H1282  H     0.23806   0.79869   0.64739   0.00000  Uiso   1.00
H1283  H     0.24835   0.88233   0.65360   0.00000  Uiso   1.00
H1284  H     0.27239   0.87972   0.59975   0.00000  Uiso   1.00
H1285  H     0.29557   0.84996   0.64702   0.00000  Uiso   1.00
H1286  H     0.06310   0.92012   0.55724   0.00000  Uiso   1.00
H1287  H     0.29094   0.84059   0.93261   0.00000  Uiso   1.00
H1288  H     0.03724   0.76422   0.72643   0.00000  Uiso   1.00
H1289  H     0.29608   0.90268   0.77238   0.00000  Uiso   1.00
H1290  H     0.29503   0.76446   0.72542   0.00000  Uiso   1.00
H1291  H     0.03821   0.90248   0.77327   0.00000  Uiso   1.00
H1292  H     0.21705   0.70805   0.79698   0.00000  Uiso   1.00
H1293  H     0.11604   0.95866   0.70338   0.00000  Uiso   1.00
H1294  H     0.11614   0.70964   0.70321   0.00000  Uiso   1.00
N1295  N     0.16667   0.95240   0.75000   0.00000  Uiso   1.00
N1296  N     0.16667   0.71427   0.75000   0.00000  Uiso   1.00
N1297  N     0.23205   0.78823   0.89070   0.00000  Uiso   1.00
N1298  N     0.09009   0.84717   0.61491   0.00000  Uiso   1.00
N1299  N     0.09610   0.86505   0.87885   0.00000  Uiso   1.00
N1300  N     0.24104   0.82034   0.62040   0.00000  Uiso   1.00
O1301  O     0.10559   0.87154   0.75000   0.00000  Uiso   1.00
O1302  O     0.31209   0.79535   0.97753   0.00000  Uiso   1.00
O1303  O     0.22774   0.79513   0.75001   0.00000  Uiso   1.00
O1304  O     0.22774   0.87154   0.75001   0.00000  Uiso   1.00
O1305  O     0.10559   0.79513   0.75000   0.00000  Uiso   1.00
O1306  O     0.16666   0.87156   0.68393   0.00000  Uiso   1.00
O1307  O     0.16667   0.79511   0.81608   0.00000  Uiso   1.00
O1308  O     0.16667   0.87156   0.81608   0.00000  Uiso   1.00
O1309  O     0.16666   0.79511   0.68393   0.00000  Uiso   1.00
O1310  O     0.02258   0.88005   0.52549   0.00000  Uiso   1.00
Zn1311 Zn    0.16667   0.88437   0.75000   0.00000  Uiso   1.00
Zn1312 Zn    0.16667   0.78229   0.75000   0.00000  Uiso   1.00
C1313  C     0.41999   0.83329   0.75050   0.00000  Uiso   1.00
C1314  C     0.37584   0.83327   0.75015   0.00000  Uiso   1.00
C1315  C     0.52801   0.69021   0.77610   0.00000  Uiso   1.00
C1316  C     0.47190   0.97646   0.72404   0.00000  Uiso   1.00
C1317  C     0.47192   0.69110   0.72399   0.00000  Uiso   1.00
C1318  C     0.52802   0.97557   0.77609   0.00000  Uiso   1.00
C1319  C     0.49851   0.83383   0.66352   0.00000  Uiso   1.00
C1320  C     0.50102   0.83298   0.83655   0.00000  Uiso   1.00
C1321  C     0.53624   0.81881   0.90921   0.00000  Uiso   1.00
C1322  C     0.46188   0.84739   0.59185   0.00000  Uiso   1.00
C1323  C     0.50054   0.83293   0.88434   0.00000  Uiso   1.00
C1324  C     0.57998   0.83340   0.74906   0.00000  Uiso   1.00
C1325  C     0.49882   0.83582   0.61579   0.00000  Uiso   1.00
C1326  C     0.46552   0.85106   0.90474   0.00000  Uiso   1.00
C1327  C     0.53677   0.82915   0.59491   0.00000  Uiso   1.00
C1328  C     0.46509   0.85197   0.95122   0.00000  Uiso   1.00
C1329  C     0.53731   0.83022   0.54851   0.00000  Uiso   1.00
C1330  C     0.50152   0.84067   0.97656   0.00000  Uiso   1.00
C1331  C     0.50060   0.84144   0.52340   0.00000  Uiso   1.00
C1332  C     0.53846   0.82724   0.95517   0.00000  Uiso   1.00
C1333  C     0.46296   0.85265   0.54498   0.00000  Uiso   1.00
C1334  C     0.42882   0.86465   0.97255   0.00000  Uiso   1.00
C1335  C     0.42779   0.86718   0.51856   0.00000  Uiso   1.00
C1336  C     0.57437   0.82066   0.52696   0.00000  Uiso   1.00
C1337  C     0.59355   0.80540   0.85753   0.00000  Uiso   1.00
C1338  C     0.41253   0.88794   0.63823   0.00000  Uiso   1.00
C1339  C     0.42527   0.91352   0.87163   0.00000  Uiso   1.00
C1340  C     0.59879   0.86027   0.63067   0.00000  Uiso   1.00
C1341  C     0.39148   0.89113   0.53618   0.00000  Uiso   1.00
C1342  C     0.61763   0.81912   0.96112   0.00000  Uiso   1.00
C1343  C     0.57580   0.82052   0.98085   0.00000  Uiso   1.00
C1344  C     0.35441   0.79439   0.73674   0.00000  Uiso   1.00
C1345  C     0.64555   0.87249   0.76207   0.00000  Uiso   1.00
C1346  C     0.64499   0.79454   0.73610   0.00000  Uiso   1.00
C1347  C     0.35495   0.87235   0.76270   0.00000  Uiso   1.00
C1348  C     0.62412   0.83353   0.74889   0.00000  Uiso   1.00
H1349  H     0.40101   0.87430   0.95332   0.00000  Uiso   1.00
H1350  H     0.55042   0.95702   0.79694   0.00000  Uiso   1.00
H1351  H     0.55306   0.75676   0.88374   0.00000  Uiso   1.00
H1352  H     0.62628   0.79850   0.86861   0.00000  Uiso   1.00
H1353  H     0.58960   0.84243   0.85136   0.00000  Uiso   1.00
H1354  H     0.58838   0.78674   0.82635   0.00000  Uiso   1.00
H1355  H     0.39881   0.83005   0.60011   0.00000  Uiso   1.00
H1356  H     0.38059   0.89934   0.62805   0.00000  Uiso   1.00
H1357  H     0.43510   0.91585   0.63212   0.00000  Uiso   1.00
H1358  H     0.41187   0.88048   0.67411   0.00000  Uiso   1.00
H1359  H     0.42309   0.84665   0.85058   0.00000  Uiso   1.00
H1360  H     0.60304   0.81428   0.54603   0.00000  Uiso   1.00
H1361  H     0.44999   0.92642   0.84957   0.00000  Uiso   1.00
H1362  H     0.42740   0.93173   0.90366   0.00000  Uiso   1.00
H1363  H     0.39436   0.92104   0.85558   0.00000  Uiso   1.00
H1364  H     0.57139   0.79869   0.64739   0.00000  Uiso   1.00
H1365  H     0.58168   0.88233   0.65360   0.00000  Uiso   1.00
H1366  H     0.60572   0.87972   0.59975   0.00000  Uiso   1.00
H1367  H     0.62890   0.84996   0.64702   0.00000  Uiso   1.00
H1368  H     0.39643   0.92012   0.55724   0.00000  Uiso   1.00
H1369  H     0.62427   0.84059   0.93261   0.00000  Uiso   1.00
H1370  H     0.37058   0.76422   0.72643   0.00000  Uiso   1.00
H1371  H     0.62941   0.90268   0.77238   0.00000  Uiso   1.00
H1372  H     0.62836   0.76446   0.72542   0.00000  Uiso   1.00
H1373  H     0.37155   0.90248   0.77327   0.00000  Uiso   1.00
H1374  H     0.55039   0.70805   0.79698   0.00000  Uiso   1.00
H1375  H     0.44937   0.95866   0.70338   0.00000  Uiso   1.00
H1376  H     0.44947   0.70964   0.70321   0.00000  Uiso   1.00
N1377  N     0.50000   0.95240   0.75000   0.00000  Uiso   1.00
N1378  N     0.50000   0.71427   0.75000   0.00000  Uiso   1.00
N1379  N     0.56538   0.78823   0.89070   0.00000  Uiso   1.00
N1380  N     0.42343   0.84717   0.61491   0.00000  Uiso   1.00
N1381  N     0.42943   0.86505   0.87885   0.00000  Uiso   1.00
N1382  N     0.57438   0.82034   0.62040   0.00000  Uiso   1.00
O1383  O     0.43892   0.87154   0.75000   0.00000  Uiso   1.00
O1384  O     0.64542   0.79535   0.97753   0.00000  Uiso   1.00
O1385  O     0.56108   0.79513   0.75001   0.00000  Uiso   1.00
O1386  O     0.56108   0.87154   0.75001   0.00000  Uiso   1.00
O1387  O     0.43892   0.79513   0.75000   0.00000  Uiso   1.00
O1388  O     0.49999   0.87156   0.68393   0.00000  Uiso   1.00
O1389  O     0.50001   0.79511   0.81608   0.00000  Uiso   1.00
O1390  O     0.50001   0.87156   0.81608   0.00000  Uiso   1.00
O1391  O     0.49999   0.79511   0.68393   0.00000  Uiso   1.00
O1392  O     0.35591   0.88005   0.52549   0.00000  Uiso   1.00
Zn1393 Zn    0.50000   0.88437   0.75000   0.00000  Uiso   1.00
Zn1394 Zn    0.50000   0.78229   0.75000   0.00000  Uiso   1.00
C1395  C     0.75332   0.83329   0.75050   0.00000  Uiso   1.00
C1396  C     0.70917   0.83327   0.75015   0.00000  Uiso   1.00
C1397  C     0.86134   0.69021   0.77610   0.00000  Uiso   1.00
C1398  C     0.80523   0.97646   0.72404   0.00000  Uiso   1.00
C1399  C     0.80526   0.69110   0.72399   0.00000  Uiso   1.00
C1400  C     0.86136   0.97557   0.77609   0.00000  Uiso   1.00
C1401  C     0.83184   0.83383   0.66352   0.00000  Uiso   1.00
C1402  C     0.83435   0.83298   0.83655   0.00000  Uiso   1.00
C1403  C     0.86958   0.81881   0.90921   0.00000  Uiso   1.00
C1404  C     0.79521   0.84739   0.59185   0.00000  Uiso   1.00
C1405  C     0.83388   0.83293   0.88434   0.00000  Uiso   1.00
C1406  C     0.91332   0.83340   0.74906   0.00000  Uiso   1.00
C1407  C     0.83215   0.83582   0.61579   0.00000  Uiso   1.00
C1408  C     0.79885   0.85106   0.90474   0.00000  Uiso   1.00
C1409  C     0.87010   0.82915   0.59491   0.00000  Uiso   1.00
C1410  C     0.79843   0.85197   0.95122   0.00000  Uiso   1.00
C1411  C     0.87064   0.83022   0.54851   0.00000  Uiso   1.00
C1412  C     0.83486   0.84067   0.97656   0.00000  Uiso   1.00
C1413  C     0.83394   0.84144   0.52340   0.00000  Uiso   1.00
C1414  C     0.87180   0.82724   0.95517   0.00000  Uiso   1.00
C1415  C     0.79629   0.85265   0.54498   0.00000  Uiso   1.00
C1416  C     0.76215   0.86465   0.97255   0.00000  Uiso   1.00
C1417  C     0.76112   0.86718   0.51856   0.00000  Uiso   1.00
C1418  C     0.90770   0.82066   0.52696   0.00000  Uiso   1.00
C1419  C     0.92689   0.80540   0.85753   0.00000  Uiso   1.00
C1420  C     0.74586   0.88794   0.63823   0.00000  Uiso   1.00
C1421  C     0.75860   0.91352   0.87163   0.00000  Uiso   1.00
C1422  C     0.93212   0.86027   0.63067   0.00000  Uiso   1.00
C1423  C     0.72481   0.89113   0.53618   0.00000  Uiso   1.00
C1424  C     0.95097   0.81912   0.96112   0.00000  Uiso   1.00
C1425  C     0.90913   0.82052   0.98085   0.00000  Uiso   1.00
C1426  C     0.68774   0.79439   0.73674   0.00000  Uiso   1.00
C1427  C     0.97889   0.87249   0.76207   0.00000  Uiso   1.00
C1428  C     0.97833   0.79454   0.73610   0.00000  Uiso   1.00
C1429  C     0.68829   0.87235   0.76270   0.00000  Uiso   1.00
C1430  C     0.95746   0.83353   0.74889   0.00000  Uiso   1.00
H1431  H     0.73434   0.87430   0.95332   0.00000  Uiso   1.00
H1432  H     0.88375   0.95702   0.79694   0.00000  Uiso   1.00
H1433  H     0.88640   0.75676   0.88374   0.00000  Uiso   1.00
H1434  H     0.95961   0.79850   0.86861   0.00000  Uiso   1.00
H1435  H     0.92293   0.84243   0.85136   0.00000  Uiso   1.00
H1436  H     0.92171   0.78674   0.82635   0.00000  Uiso   1.00
H1437  H     0.73214   0.83005   0.60011   0.00000  Uiso   1.00
H1438  H     0.71393   0.89934   0.62805   0.00000  Uiso   1.00
H1439  H     0.76843   0.91585   0.63212   0.00000  Uiso   1.00
H1440  H     0.74521   0.88048   0.67411   0.00000  Uiso   1.00
H1441  H     0.75642   0.84665   0.85058   0.00000  Uiso   1.00
H1442  H     0.93637   0.81428   0.54603   0.00000  Uiso   1.00
H1443  H     0.78332   0.92642   0.84957   0.00000  Uiso   1.00
H1444  H     0.76073   0.93173   0.90366   0.00000  Uiso   1.00
H1445  H     0.72769   0.92104   0.85558   0.00000  Uiso   1.00
H1446  H     0.90472   0.79869   0.64739   0.00000  Uiso   1.00
H1447  H     0.91501   0.88233   0.65360   0.00000  Uiso   1.00
H1448  H     0.93906   0.87972   0.59975   0.00000  Uiso   1.00
H1449  H     0.96223   0.84996   0.64702   0.00000  Uiso   1.00
H1450  H     0.72976   0.92012   0.55724   0.00000  Uiso   1.00
H1451  H     0.95760   0.84059   0.93261   0.00000  Uiso   1.00
H1452  H     0.70391   0.76422   0.72643   0.00000  Uiso   1.00
H1453  H     0.96275   0.90268   0.77238   0.00000  Uiso   1.00
H1454  H     0.96170   0.76446   0.72542   0.00000  Uiso   1.00
H1455  H     0.70488   0.90248   0.77327   0.00000  Uiso   1.00
H1456  H     0.88372   0.70805   0.79698   0.00000  Uiso   1.00
H1457  H     0.78270   0.95866   0.70338   0.00000  Uiso   1.00
H1458  H     0.78281   0.70964   0.70321   0.00000  Uiso   1.00
N1459  N     0.83333   0.95240   0.75000   0.00000  Uiso   1.00
N1460  N     0.83333   0.71427   0.75000   0.00000  Uiso   1.00
N1461  N     0.89872   0.78823   0.89070   0.00000  Uiso   1.00
N1462  N     0.75676   0.84717   0.61491   0.00000  Uiso   1.00
N1463  N     0.76276   0.86505   0.87885   0.00000  Uiso   1.00
N1464  N     0.90771   0.82034   0.62040   0.00000  Uiso   1.00
O1465  O     0.77226   0.87154   0.75000   0.00000  Uiso   1.00
O1466  O     0.97875   0.79535   0.97753   0.00000  Uiso   1.00
O1467  O     0.89441   0.79513   0.75001   0.00000  Uiso   1.00
O1468  O     0.89441   0.87154   0.75001   0.00000  Uiso   1.00
O1469  O     0.77226   0.79513   0.75000   0.00000  Uiso   1.00
O1470  O     0.83333   0.87156   0.68393   0.00000  Uiso   1.00
O1471  O     0.83334   0.79511   0.81608   0.00000  Uiso   1.00
O1472  O     0.83334   0.87156   0.81608   0.00000  Uiso   1.00
O1473  O     0.83333   0.79511   0.68393   0.00000  Uiso   1.00
O1474  O     0.68925   0.88005   0.52549   0.00000  Uiso   1.00
Zn1475 Zn    0.83333   0.88437   0.75000   0.00000  Uiso   1.00
Zn1476 Zn    0.83333   0.78229   0.75000   0.00000  Uiso   1.00
loop_
_geom_bond_atom_site_label_1
_geom_bond_atom_site_label_2
_geom_bond_distance
_geom_bond_site_symmetry_2
_ccdc_geom_bond_type
C1     O71     1.282   .     A
C1     C2      1.414   .     S
C1     O75     1.280   .     A
C2     C35     1.396   .     A
C2     C32     1.396   .     A
C3     N66     1.366   .     A
C3     H62     1.082   .     S
C3     C498    1.416   1_545 S
C4     H63     1.081   .     S
C4     N65     1.366   .     A
C4     C251    1.416   .     S
C5     H64     1.082   .     S
C5     N66     1.366   .     A
C5     C496    1.416   1_545 S
C6     N65     1.366   .     A
C6     H38     1.082   .     S
C6     C249    1.416   .     S
C7     O79     1.288   .     A
C7     O76     1.280   .     A
C7     C13     1.434   .     S
C8     O78     1.285   .     A
C8     O77     1.285   .     A
C8     C11     1.436   .     S
C9     N67     1.428   .     S
C9     C20     1.406   .     A
C9     C11     1.408   .     A
C10    C21     1.415   .     A
C10    C13     1.407   .     A
C10    N68     1.429   .     S
C11    C14     1.403   .     A
C12    O74     1.279   .     A
C12    C36     1.414   .     S
C12    O73     1.282   .     A
C13    C15     1.398   .     A
C14    N69     1.432   .     S
C14    C16     1.397   .     A
C15    C17     1.394   .     A
C15    N70     1.431   .     S
C16    C22     1.396   .     A
C16    C18     1.413   .     A
C17    C19     1.415   .     A
C17    C24     1.398   .     A
C18    C20     1.421   .     A
C18    C757    1.408   .     S
C19    C21     1.425   .     A
C19    C756    1.408   1_554 S
C20    C31     1.417   .     A
C21    C23     1.422   .     A
C22    H37     1.084   .     S
C22    C761    1.386   .     S
C23    C29     1.476   .     S
C23    C760    1.386   1_554 S
C24    H48     1.084   .     S
C24    C769    1.387   1_554 S
C25    N67     1.447   .     S
C25    H40     1.109   .     S
C25    H41     1.112   .     S
C25    H42     1.103   .     S
C26    H44     1.110   .     S
C26    H45     1.112   .     S
C26    N68     1.450   .     S
C26    H46     1.097   .     S
C27    N69     1.449   .     S
C27    H50     1.110   .     S
C27    H51     1.110   .     S
C27    H49     1.109   .     S
C28    H55     1.110   .     S
C28    H54     1.111   .     S
C28    N70     1.447   .     S
C28    H53     1.111   .     S
C29    H56     1.082   .     S
C29    O80     1.221   .     D
C30    C31     1.480   .     S
C30    H57     1.082   .     S
C30    O72     1.221   .     D
C31    C762    1.387   .     S
C32    H58     1.084   .     S
C32    C198    1.369   1_455 S
C33    C36     1.396   .     A
C33    H59     1.084   .     S
C33    C117    1.368   .     S
C34    H60     1.084   .     S
C34    C36     1.396   .     A
C34    C114    1.369   .     S
C35    H61     1.084   .     S
C35    C197    1.368   1_455 S
H39    N67     1.032   .     S
H43    N68     1.031   .     S
H47    N69     1.031   .     S
H52    N70     1.030   .     S
N65    Zn81    2.008   .     S
N66    Zn82    2.008   .     S
O71    Zn81    1.992   .     S
O73    Zn82    1.992   .     S
O74    Zn81    1.992   .     S
O75    Zn82    1.992   .     S
O76    Zn81    2.026   .     S
O77    Zn82    2.026   .     S
O78    Zn81    2.014   .     S
O79    Zn82    2.014   .     S
C83    O153    1.282   .     A
C83    C84     1.414   .     S
C83    O157    1.280   .     A
C84    C117    1.396   .     A
C84    C114    1.396   .     A
C85    N148    1.366   .     A
C85    H144    1.082   .     S
C85    C580    1.416   1_545 S
C86    H145    1.081   .     S
C86    N147    1.366   .     A
C86    C333    1.416   .     S
C87    H146    1.082   .     S
C87    N148    1.366   .     A
C87    C578    1.416   1_545 S
C88    N147    1.366   .     A
C88    H120    1.082   .     S
C88    C331    1.416   .     S
C89    O161    1.288   .     A
C89    O158    1.280   .     A
C89    C95     1.434   .     S
C90    O160    1.285   .     A
C90    O159    1.285   .     A
C90    C93     1.436   .     S
C91    N149    1.428   .     S
C91    C102    1.406   .     A
C91    C93     1.408   .     A
C92    C103    1.415   .     A
C92    C95     1.407   .     A
C92    N150    1.429   .     S
C93    C96     1.403   .     A
C94    O156    1.279   .     A
C94    C118    1.414   .     S
C94    O155    1.282   .     A
C95    C97     1.398   .     A
C96    N151    1.432   .     S
C96    C98     1.397   .     A
C97    C99     1.394   .     A
C97    N152    1.431   .     S
C98    C104    1.396   .     A
C98    C100    1.413   .     A
C99    C101    1.415   .     A
C99    C106    1.398   .     A
C100   C102    1.421   .     A
C100   C839    1.408   .     S
C101   C103    1.425   .     A
C101   C838    1.408   1_554 S
C102   C113    1.417   .     A
C103   C105    1.422   .     A
C104   H119    1.084   .     S
C104   C843    1.386   .     S
C105   C111    1.476   .     S
C105   C842    1.386   1_554 S
C106   H130    1.084   .     S
C106   C851    1.387   1_554 S
C107   N149    1.447   .     S
C107   H122    1.109   .     S
C107   H123    1.112   .     S
C107   H124    1.103   .     S
C108   H126    1.110   .     S
C108   H127    1.112   .     S
C108   N150    1.450   .     S
C108   H128    1.097   .     S
C109   N151    1.449   .     S
C109   H132    1.110   .     S
C109   H133    1.110   .     S
C109   H131    1.109   .     S
C110   H137    1.110   .     S
C110   H136    1.111   .     S
C110   N152    1.447   .     S
C110   H135    1.111   .     S
C111   H138    1.082   .     S
C111   O162    1.221   .     D
C112   C113    1.480   .     S
C112   H139    1.082   .     S
C112   O154    1.221   .     D
C113   C844    1.387   .     S
C114   H140    1.084   .     S
C115   C118    1.396   .     A
C115   H141    1.084   .     S
C115   C199    1.368   .     S
C116   H142    1.084   .     S
C116   C118    1.396   .     A
C116   C196    1.369   .     S
C117   H143    1.084   .     S
H121   N149    1.032   .     S
H125   N150    1.031   .     S
H129   N151    1.031   .     S
H134   N152    1.030   .     S
N147   Zn163   2.008   .     S
N148   Zn164   2.008   .     S
O153   Zn163   1.992   .     S
O155   Zn164   1.992   .     S
O156   Zn163   1.992   .     S
O157   Zn164   1.992   .     S
O158   Zn163   2.026   .     S
O159   Zn164   2.026   .     S
O160   Zn163   2.014   .     S
O161   Zn164   2.014   .     S
C165   O235    1.282   .     A
C165   C166    1.414   .     S
C165   O239    1.280   .     A
C166   C199    1.396   .     A
C166   C196    1.396   .     A
C167   N230    1.366   .     A
C167   H226    1.082   .     S
C167   C662    1.416   1_545 S
C168   H227    1.081   .     S
C168   N229    1.366   .     A
C168   C415    1.416   .     S
C169   H228    1.082   .     S
C169   N230    1.366   .     A
C169   C660    1.416   1_545 S
C170   N229    1.366   .     A
C170   H202    1.082   .     S
C170   C413    1.416   .     S
C171   O243    1.288   .     A
C171   O240    1.280   .     A
C171   C177    1.434   .     S
C172   O242    1.285   .     A
C172   O241    1.285   .     A
C172   C175    1.436   .     S
C173   N231    1.428   .     S
C173   C184    1.406   .     A
C173   C175    1.408   .     A
C174   C185    1.415   .     A
C174   C177    1.407   .     A
C174   N232    1.429   .     S
C175   C178    1.403   .     A
C176   O238    1.279   .     A
C176   C200    1.414   .     S
C176   O237    1.282   .     A
C177   C179    1.398   .     A
C178   N233    1.432   .     S
C178   C180    1.397   .     A
C179   C181    1.394   .     A
C179   N234    1.431   .     S
C180   C186    1.396   .     A
C180   C182    1.413   .     A
C181   C183    1.415   .     A
C181   C188    1.398   .     A
C182   C184    1.421   .     A
C182   C921    1.408   .     S
C183   C185    1.425   .     A
C183   C920    1.408   1_554 S
C184   C195    1.417   .     A
C185   C187    1.422   .     A
C186   H201    1.084   .     S
C186   C925    1.386   .     S
C187   C193    1.476   .     S
C187   C924    1.386   1_554 S
C188   H212    1.084   .     S
C188   C933    1.387   1_554 S
C189   N231    1.447   .     S
C189   H204    1.109   .     S
C189   H205    1.112   .     S
C189   H206    1.103   .     S
C190   H208    1.110   .     S
C190   H209    1.112   .     S
C190   N232    1.450   .     S
C190   H210    1.097   .     S
C191   N233    1.449   .     S
C191   H214    1.110   .     S
C191   H215    1.110   .     S
C191   H213    1.109   .     S
C192   H219    1.110   .     S
C192   H218    1.111   .     S
C192   N234    1.447   .     S
C192   H217    1.111   .     S
C193   H220    1.082   .     S
C193   O244    1.221   .     D
C194   C195    1.480   .     S
C194   H221    1.082   .     S
C194   O236    1.221   .     D
C195   C926    1.387   .     S
C196   H222    1.084   .     S
C197   C200    1.396   .     A
C197   H223    1.084   .     S
C197   C35     1.368   1_655 S
C198   H224    1.084   .     S
C198   C200    1.396   .     A
C198   C32     1.369   1_655 S
C199   H225    1.084   .     S
H203   N231    1.032   .     S
H207   N232    1.031   .     S
H211   N233    1.031   .     S
H216   N234    1.030   .     S
N229   Zn245   2.008   .     S
N230   Zn246   2.008   .     S
O235   Zn245   1.992   .     S
O237   Zn246   1.992   .     S
O238   Zn245   1.992   .     S
O239   Zn246   1.992   .     S
O240   Zn245   2.026   .     S
O241   Zn246   2.026   .     S
O242   Zn245   2.014   .     S
O243   Zn246   2.014   .     S
C247   O317    1.282   .     A
C247   C248    1.414   .     S
C247   O321    1.280   .     A
C248   C281    1.396   .     A
C248   C278    1.396   .     A
C249   N312    1.366   .     A
C249   H308    1.082   .     S
C250   H309    1.081   .     S
C250   N311    1.366   .     A
C250   C497    1.416   .     S
C251   H310    1.082   .     S
C251   N312    1.366   .     A
C252   N311    1.366   .     A
C252   H284    1.082   .     S
C252   C495    1.416   .     S
C253   O325    1.288   .     A
C253   O322    1.280   .     A
C253   C259    1.434   .     S
C254   O324    1.285   .     A
C254   O323    1.285   .     A
C254   C257    1.436   .     S
C255   N313    1.428   .     S
C255   C266    1.406   .     A
C255   C257    1.408   .     A
C256   C267    1.415   .     A
C256   C259    1.407   .     A
C256   N314    1.429   .     S
C257   C260    1.403   .     A
C258   O320    1.279   .     A
C258   C282    1.414   .     S
C258   O319    1.282   .     A
C259   C261    1.398   .     A
C260   N315    1.432   .     S
C260   C262    1.397   .     A
C261   C263    1.394   .     A
C261   N316    1.431   .     S
C262   C268    1.396   .     A
C262   C264    1.413   .     A
C263   C265    1.415   .     A
C263   C270    1.398   .     A
C264   C266    1.421   .     A
C264   C1003   1.408   .     S
C265   C267    1.425   .     A
C265   C1002   1.408   1_554 S
C266   C277    1.417   .     A
C267   C269    1.422   .     A
C268   H283    1.084   .     S
C268   C1007   1.386   .     S
C269   C275    1.476   .     S
C269   C1006   1.386   1_554 S
C270   H294    1.084   .     S
C270   C1015   1.387   1_554 S
C271   N313    1.447   .     S
C271   H286    1.109   .     S
C271   H287    1.112   .     S
C271   H288    1.103   .     S
C272   H290    1.110   .     S
C272   H291    1.112   .     S
C272   N314    1.450   .     S
C272   H292    1.097   .     S
C273   N315    1.449   .     S
C273   H296    1.110   .     S
C273   H297    1.110   .     S
C273   H295    1.109   .     S
C274   H301    1.110   .     S
C274   H300    1.111   .     S
C274   N316    1.447   .     S
C274   H299    1.111   .     S
C275   H302    1.082   .     S
C275   O326    1.221   .     D
C276   C277    1.480   .     S
C276   H303    1.082   .     S
C276   O318    1.221   .     D
C277   C1008   1.387   .     S
C278   H304    1.084   .     S
C278   C444    1.369   1_455 S
C279   C282    1.396   .     A
C279   H305    1.084   .     S
C279   C363    1.368   .     S
C280   H306    1.084   .     S
C280   C282    1.396   .     A
C280   C360    1.369   .     S
C281   H307    1.084   .     S
C281   C443    1.368   1_455 S
H285   N313    1.032   .     S
H289   N314    1.031   .     S
H293   N315    1.031   .     S
H298   N316    1.030   .     S
N311   Zn327   2.008   .     S
N312   Zn328   2.008   .     S
O317   Zn327   1.992   .     S
O319   Zn328   1.992   .     S
O320   Zn327   1.992   .     S
O321   Zn328   1.992   .     S
O322   Zn327   2.026   .     S
O323   Zn328   2.026   .     S
O324   Zn327   2.014   .     S
O325   Zn328   2.014   .     S
C329   O399    1.282   .     A
C329   C330    1.414   .     S
C329   O403    1.280   .     A
C330   C363    1.396   .     A
C330   C360    1.396   .     A
C331   N394    1.366   .     A
C331   H390    1.082   .     S
C332   H391    1.081   .     S
C332   N393    1.366   .     A
C332   C579    1.416   .     S
C333   H392    1.082   .     S
C333   N394    1.366   .     A
C334   N393    1.366   .     A
C334   H366    1.082   .     S
C334   C577    1.416   .     S
C335   O407    1.288   .     A
C335   O404    1.280   .     A
C335   C341    1.434   .     S
C336   O406    1.285   .     A
C336   O405    1.285   .     A
C336   C339    1.436   .     S
C337   N395    1.428   .     S
C337   C348    1.406   .     A
C337   C339    1.408   .     A
C338   C349    1.415   .     A
C338   C341    1.407   .     A
C338   N396    1.429   .     S
C339   C342    1.403   .     A
C340   O402    1.279   .     A
C340   C364    1.414   .     S
C340   O401    1.282   .     A
C341   C343    1.398   .     A
C342   N397    1.432   .     S
C342   C344    1.397   .     A
C343   C345    1.394   .     A
C343   N398    1.431   .     S
C344   C350    1.396   .     A
C344   C346    1.413   .     A
C345   C347    1.415   .     A
C345   C352    1.398   .     A
C346   C348    1.421   .     A
C346   C1085   1.408   .     S
C347   C349    1.425   .     A
C347   C1084   1.408   1_554 S
C348   C359    1.417   .     A
C349   C351    1.422   .     A
C350   H365    1.084   .     S
C350   C1089   1.386   .     S
C351   C357    1.476   .     S
C351   C1088   1.386   1_554 S
C352   H376    1.084   .     S
C352   C1097   1.387   1_554 S
C353   N395    1.447   .     S
C353   H368    1.109   .     S
C353   H369    1.112   .     S
C353   H370    1.103   .     S
C354   H372    1.110   .     S
C354   H373    1.112   .     S
C354   N396    1.450   .     S
C354   H374    1.097   .     S
C355   N397    1.449   .     S
C355   H378    1.110   .     S
C355   H379    1.110   .     S
C355   H377    1.109   .     S
C356   H383    1.110   .     S
C356   H382    1.111   .     S
C356   N398    1.447   .     S
C356   H381    1.111   .     S
C357   H384    1.082   .     S
C357   O408    1.221   .     D
C358   C359    1.480   .     S
C358   H385    1.082   .     S
C358   O400    1.221   .     D
C359   C1090   1.387   .     S
C360   H386    1.084   .     S
C361   C364    1.396   .     A
C361   H387    1.084   .     S
C361   C445    1.368   .     S
C362   H388    1.084   .     S
C362   C364    1.396   .     A
C362   C442    1.369   .     S
C363   H389    1.084   .     S
H367   N395    1.032   .     S
H371   N396    1.031   .     S
H375   N397    1.031   .     S
H380   N398    1.030   .     S
N393   Zn409   2.008   .     S
N394   Zn410   2.008   .     S
O399   Zn409   1.992   .     S
O401   Zn410   1.992   .     S
O402   Zn409   1.992   .     S
O403   Zn410   1.992   .     S
O404   Zn409   2.026   .     S
O405   Zn410   2.026   .     S
O406   Zn409   2.014   .     S
O407   Zn410   2.014   .     S
C411   O481    1.282   .     A
C411   C412    1.414   .     S
C411   O485    1.280   .     A
C412   C445    1.396   .     A
C412   C442    1.396   .     A
C413   N476    1.366   .     A
C413   H472    1.082   .     S
C414   H473    1.081   .     S
C414   N475    1.366   .     A
C414   C661    1.416   .     S
C415   H474    1.082   .     S
C415   N476    1.366   .     A
C416   N475    1.366   .     A
C416   H448    1.082   .     S
C416   C659    1.416   .     S
C417   O489    1.288   .     A
C417   O486    1.280   .     A
C417   C423    1.434   .     S
C418   O488    1.285   .     A
C418   O487    1.285   .     A
C418   C421    1.436   .     S
C419   N477    1.428   .     S
C419   C430    1.406   .     A
C419   C421    1.408   .     A
C420   C431    1.415   .     A
C420   C423    1.407   .     A
C420   N478    1.429   .     S
C421   C424    1.403   .     A
C422   O484    1.279   .     A
C422   C446    1.414   .     S
C422   O483    1.282   .     A
C423   C425    1.398   .     A
C424   N479    1.432   .     S
C424   C426    1.397   .     A
C425   C427    1.394   .     A
C425   N480    1.431   .     S
C426   C432    1.396   .     A
C426   C428    1.413   .     A
C427   C429    1.415   .     A
C427   C434    1.398   .     A
C428   C430    1.421   .     A
C428   C1167   1.408   .     S
C429   C431    1.425   .     A
C429   C1166   1.408   1_554 S
C430   C441    1.417   .     A
C431   C433    1.422   .     A
C432   H447    1.084   .     S
C432   C1171   1.386   .     S
C433   C439    1.476   .     S
C433   C1170   1.386   1_554 S
C434   H458    1.084   .     S
C434   C1179   1.387   1_554 S
C435   N477    1.447   .     S
C435   H450    1.109   .     S
C435   H451    1.112   .     S
C435   H452    1.103   .     S
C436   H454    1.110   .     S
C436   H455    1.112   .     S
C436   N478    1.450   .     S
C436   H456    1.097   .     S
C437   N479    1.449   .     S
C437   H460    1.110   .     S
C437   H461    1.110   .     S
C437   H459    1.109   .     S
C438   H465    1.110   .     S
C438   H464    1.111   .     S
C438   N480    1.447   .     S
C438   H463    1.111   .     S
C439   H466    1.082   .     S
C439   O490    1.221   .     D
C440   C441    1.480   .     S
C440   H467    1.082   .     S
C440   O482    1.221   .     D
C441   C1172   1.387   .     S
C442   H468    1.084   .     S
C443   C446    1.396   .     A
C443   H469    1.084   .     S
C443   C281    1.368   1_655 S
C444   H470    1.084   .     S
C444   C446    1.396   .     A
C444   C278    1.369   1_655 S
C445   H471    1.084   .     S
H449   N477    1.032   .     S
H453   N478    1.031   .     S
H457   N479    1.031   .     S
H462   N480    1.030   .     S
N475   Zn491   2.008   .     S
N476   Zn492   2.008   .     S
O481   Zn491   1.992   .     S
O483   Zn492   1.992   .     S
O484   Zn491   1.992   .     S
O485   Zn492   1.992   .     S
O486   Zn491   2.026   .     S
O487   Zn492   2.026   .     S
O488   Zn491   2.014   .     S
O489   Zn492   2.014   .     S
C493   O563    1.282   .     A
C493   C494    1.414   .     S
C493   O567    1.280   .     A
C494   C527    1.396   .     A
C494   C524    1.396   .     A
C495   N558    1.366   .     A
C495   H554    1.082   .     S
C496   H555    1.081   .     S
C496   N557    1.366   .     A
C496   C5      1.416   1_565 S
C497   H556    1.082   .     S
C497   N558    1.366   .     A
C498   N557    1.366   .     A
C498   H530    1.082   .     S
C498   C3      1.416   1_565 S
C499   O571    1.288   .     A
C499   O568    1.280   .     A
C499   C505    1.434   .     S
C500   O570    1.285   .     A
C500   O569    1.285   .     A
C500   C503    1.436   .     S
C501   N559    1.428   .     S
C501   C512    1.406   .     A
C501   C503    1.408   .     A
C502   C513    1.415   .     A
C502   C505    1.407   .     A
C502   N560    1.429   .     S
C503   C506    1.403   .     A
C504   O566    1.279   .     A
C504   C528    1.414   .     S
C504   O565    1.282   .     A
C505   C507    1.398   .     A
C506   N561    1.432   .     S
C506   C508    1.397   .     A
C507   C509    1.394   .     A
C507   N562    1.431   .     S
C508   C514    1.396   .     A
C508   C510    1.413   .     A
C509   C511    1.415   .     A
C509   C516    1.398   .     A
C510   C512    1.421   .     A
C510   C1249   1.408   .     S
C511   C513    1.425   .     A
C511   C1248   1.408   1_554 S
C512   C523    1.417   .     A
C513   C515    1.422   .     A
C514   H529    1.084   .     S
C514   C1253   1.386   .     S
C515   C521    1.476   .     S
C515   C1252   1.386   1_554 S
C516   H540    1.084   .     S
C516   C1261   1.387   1_554 S
C517   N559    1.447   .     S
C517   H532    1.109   .     S
C517   H533    1.112   .     S
C517   H534    1.103   .     S
C518   H536    1.110   .     S
C518   H537    1.112   .     S
C518   N560    1.450   .     S
C518   H538    1.097   .     S
C519   N561    1.449   .     S
C519   H542    1.110   .     S
C519   H543    1.110   .     S
C519   H541    1.109   .     S
C520   H547    1.110   .     S
C520   H546    1.111   .     S
C520   N562    1.447   .     S
C520   H545    1.111   .     S
C521   H548    1.082   .     S
C521   O572    1.221   .     D
C522   C523    1.480   .     S
C522   H549    1.082   .     S
C522   O564    1.221   .     D
C523   C1254   1.387   .     S
C524   H550    1.084   .     S
C524   C690    1.369   1_455 S
C525   C528    1.396   .     A
C525   H551    1.084   .     S
C525   C609    1.368   .     S
C526   H552    1.084   .     S
C526   C528    1.396   .     A
C526   C606    1.369   .     S
C527   H553    1.084   .     S
C527   C689    1.368   1_455 S
H531   N559    1.032   .     S
H535   N560    1.031   .     S
H539   N561    1.031   .     S
H544   N562    1.030   .     S
N557   Zn573   2.008   .     S
N558   Zn574   2.008   .     S
O563   Zn573   1.992   .     S
O565   Zn574   1.992   .     S
O566   Zn573   1.992   .     S
O567   Zn574   1.992   .     S
O568   Zn573   2.026   .     S
O569   Zn574   2.026   .     S
O570   Zn573   2.014   .     S
O571   Zn574   2.014   .     S
C575   O645    1.282   .     A
C575   C576    1.414   .     S
C575   O649    1.280   .     A
C576   C609    1.396   .     A
C576   C606    1.396   .     A
C577   N640    1.366   .     A
C577   H636    1.082   .     S
C578   H637    1.081   .     S
C578   N639    1.366   .     A
C578   C87     1.416   1_565 S
C579   H638    1.082   .     S
C579   N640    1.366   .     A
C580   N639    1.366   .     A
C580   H612    1.082   .     S
C580   C85     1.416   1_565 S
C581   O653    1.288   .     A
C581   O650    1.280   .     A
C581   C587    1.434   .     S
C582   O652    1.285   .     A
C582   O651    1.285   .     A
C582   C585    1.436   .     S
C583   N641    1.428   .     S
C583   C594    1.406   .     A
C583   C585    1.408   .     A
C584   C595    1.415   .     A
C584   C587    1.407   .     A
C584   N642    1.429   .     S
C585   C588    1.403   .     A
C586   O648    1.279   .     A
C586   C610    1.414   .     S
C586   O647    1.282   .     A
C587   C589    1.398   .     A
C588   N643    1.432   .     S
C588   C590    1.397   .     A
C589   C591    1.394   .     A
C589   N644    1.431   .     S
C590   C596    1.396   .     A
C590   C592    1.413   .     A
C591   C593    1.415   .     A
C591   C598    1.398   .     A
C592   C594    1.421   .     A
C592   C1331   1.408   .     S
C593   C595    1.425   .     A
C593   C1330   1.408   1_554 S
C594   C605    1.417   .     A
C595   C597    1.422   .     A
C596   H611    1.084   .     S
C596   C1335   1.386   .     S
C597   C603    1.476   .     S
C597   C1334   1.386   1_554 S
C598   H622    1.084   .     S
C598   C1343   1.387   1_554 S
C599   N641    1.447   .     S
C599   H614    1.109   .     S
C599   H615    1.112   .     S
C599   H616    1.103   .     S
C600   H618    1.110   .     S
C600   H619    1.112   .     S
C600   N642    1.450   .     S
C600   H620    1.097   .     S
C601   N643    1.449   .     S
C601   H624    1.110   .     S
C601   H625    1.110   .     S
C601   H623    1.109   .     S
C602   H629    1.110   .     S
C602   H628    1.111   .     S
C602   N644    1.447   .     S
C602   H627    1.111   .     S
C603   H630    1.082   .     S
C603   O654    1.221   .     D
C604   C605    1.480   .     S
C604   H631    1.082   .     S
C604   O646    1.221   .     D
C605   C1336   1.387   .     S
C606   H632    1.084   .     S
C607   C610    1.396   .     A
C607   H633    1.084   .     S
C607   C691    1.368   .     S
C608   H634    1.084   .     S
C608   C610    1.396   .     A
C608   C688    1.369   .     S
C609   H635    1.084   .     S
H613   N641    1.032   .     S
H617   N642    1.031   .     S
H621   N643    1.031   .     S
H626   N644    1.030   .     S
N639   Zn655   2.008   .     S
N640   Zn656   2.008   .     S
O645   Zn655   1.992   .     S
O647   Zn656   1.992   .     S
O648   Zn655   1.992   .     S
O649   Zn656   1.992   .     S
O650   Zn655   2.026   .     S
O651   Zn656   2.026   .     S
O652   Zn655   2.014   .     S
O653   Zn656   2.014   .     S
C657   O727    1.282   .     A
C657   C658    1.414   .     S
C657   O731    1.280   .     A
C658   C691    1.396   .     A
C658   C688    1.396   .     A
C659   N722    1.366   .     A
C659   H718    1.082   .     S
C660   H719    1.081   .     S
C660   N721    1.366   .     A
C660   C169    1.416   1_565 S
C661   H720    1.082   .     S
C661   N722    1.366   .     A
C662   N721    1.366   .     A
C662   H694    1.082   .     S
C662   C167    1.416   1_565 S
C663   O735    1.288   .     A
C663   O732    1.280   .     A
C663   C669    1.434   .     S
C664   O734    1.285   .     A
C664   O733    1.285   .     A
C664   C667    1.436   .     S
C665   N723    1.428   .     S
C665   C676    1.406   .     A
C665   C667    1.408   .     A
C666   C677    1.415   .     A
C666   C669    1.407   .     A
C666   N724    1.429   .     S
C667   C670    1.403   .     A
C668   O730    1.279   .     A
C668   C692    1.414   .     S
C668   O729    1.282   .     A
C669   C671    1.398   .     A
C670   N725    1.432   .     S
C670   C672    1.397   .     A
C671   C673    1.394   .     A
C671   N726    1.431   .     S
C672   C678    1.396   .     A
C672   C674    1.413   .     A
C673   C675    1.415   .     A
C673   C680    1.398   .     A
C674   C676    1.421   .     A
C674   C1413   1.408   .     S
C675   C677    1.425   .     A
C675   C1412   1.408   1_554 S
C676   C687    1.417   .     A
C677   C679    1.422   .     A
C678   H693    1.084   .     S
C678   C1417   1.386   .     S
C679   C685    1.476   .     S
C679   C1416   1.386   1_554 S
C680   H704    1.084   .     S
C680   C1425   1.387   1_554 S
C681   N723    1.447   .     S
C681   H696    1.109   .     S
C681   H697    1.112   .     S
C681   H698    1.103   .     S
C682   H700    1.110   .     S
C682   H701    1.112   .     S
C682   N724    1.450   .     S
C682   H702    1.097   .     S
C683   N725    1.449   .     S
C683   H706    1.110   .     S
C683   H707    1.110   .     S
C683   H705    1.109   .     S
C684   H711    1.110   .     S
C684   H710    1.111   .     S
C684   N726    1.447   .     S
C684   H709    1.111   .     S
C685   H712    1.082   .     S
C685   O736    1.221   .     D
C686   C687    1.480   .     S
C686   H713    1.082   .     S
C686   O728    1.221   .     D
C687   C1418   1.387   .     S
C688   H714    1.084   .     S
C689   C692    1.396   .     A
C689   H715    1.084   .     S
C689   C527    1.368   1_655 S
C690   H716    1.084   .     S
C690   C692    1.396   .     A
C690   C524    1.369   1_655 S
C691   H717    1.084   .     S
H695   N723    1.032   .     S
H699   N724    1.031   .     S
H703   N725    1.031   .     S
H708   N726    1.030   .     S
N721   Zn737   2.008   .     S
N722   Zn738   2.008   .     S
O727   Zn737   1.992   .     S
O729   Zn738   1.992   .     S
O730   Zn737   1.992   .     S
O731   Zn738   1.992   .     S
O732   Zn737   2.026   .     S
O733   Zn738   2.026   .     S
O734   Zn737   2.014   .     S
O735   Zn738   2.014   .     S
C739   O809    1.282   .     A
C739   C740    1.414   .     S
C739   O813    1.280   .     A
C740   C773    1.396   .     A
C740   C770    1.396   .     A
C741   N804    1.366   .     A
C741   H800    1.082   .     S
C741   C1236   1.416   1_545 S
C742   H801    1.081   .     S
C742   N803    1.366   .     A
C742   C989    1.416   .     S
C743   H802    1.082   .     S
C743   N804    1.366   .     A
C743   C1234   1.416   1_545 S
C744   N803    1.366   .     A
C744   H776    1.082   .     S
C744   C987    1.416   .     S
C745   O817    1.288   .     A
C745   O814    1.280   .     A
C745   C751    1.434   .     S
C746   O816    1.285   .     A
C746   O815    1.285   .     A
C746   C749    1.436   .     S
C747   N805    1.428   .     S
C747   C758    1.406   .     A
C747   C749    1.408   .     A
C748   C759    1.415   .     A
C748   C751    1.407   .     A
C748   N806    1.429   .     S
C749   C752    1.403   .     A
C750   O812    1.279   .     A
C750   C774    1.414   .     S
C750   O811    1.282   .     A
C751   C753    1.398   .     A
C752   N807    1.432   .     S
C752   C754    1.397   .     A
C753   C755    1.394   .     A
C753   N808    1.431   .     S
C754   C760    1.396   .     A
C754   C756    1.413   .     A
C755   C757    1.415   .     A
C755   C762    1.398   .     A
C756   C758    1.421   .     A
C756   C19     1.408   1_556 S
C757   C759    1.425   .     A
C758   C769    1.417   .     A
C759   C761    1.422   .     A
C760   H775    1.084   .     S
C760   C23     1.386   1_556 S
C761   C767    1.476   .     S
C762   H786    1.084   .     S
C763   N805    1.447   .     S
C763   H778    1.109   .     S
C763   H779    1.112   .     S
C763   H780    1.103   .     S
C764   H782    1.110   .     S
C764   H783    1.112   .     S
C764   N806    1.450   .     S
C764   H784    1.097   .     S
C765   N807    1.449   .     S
C765   H788    1.110   .     S
C765   H789    1.110   .     S
C765   H787    1.109   .     S
C766   H793    1.110   .     S
C766   H792    1.111   .     S
C766   N808    1.447   .     S
C766   H791    1.111   .     S
C767   H794    1.082   .     S
C767   O818    1.221   .     D
C768   C769    1.480   .     S
C768   H795    1.082   .     S
C768   O810    1.221   .     D
C769   C24     1.387   1_556 S
C770   H796    1.084   .     S
C770   C936    1.369   1_455 S
C771   C774    1.396   .     A
C771   H797    1.084   .     S
C771   C855    1.368   .     S
C772   H798    1.084   .     S
C772   C774    1.396   .     A
C772   C852    1.369   .     S
C773   H799    1.084   .     S
C773   C935    1.368   1_455 S
H777   N805    1.032   .     S
H781   N806    1.031   .     S
H785   N807    1.031   .     S
H790   N808    1.030   .     S
N803   Zn819   2.008   .     S
N804   Zn820   2.008   .     S
O809   Zn819   1.992   .     S
O811   Zn820   1.992   .     S
O812   Zn819   1.992   .     S
O813   Zn820   1.992   .     S
O814   Zn819   2.026   .     S
O815   Zn820   2.026   .     S
O816   Zn819   2.014   .     S
O817   Zn820   2.014   .     S
C821   O891    1.282   .     A
C821   C822    1.414   .     S
C821   O895    1.280   .     A
C822   C855    1.396   .     A
C822   C852    1.396   .     A
C823   N886    1.366   .     A
C823   H882    1.082   .     S
C823   C1318   1.416   1_545 S
C824   H883    1.081   .     S
C824   N885    1.366   .     A
C824   C1071   1.416   .     S
C825   H884    1.082   .     S
C825   N886    1.366   .     A
C825   C1316   1.416   1_545 S
C826   N885    1.366   .     A
C826   H858    1.082   .     S
C826   C1069   1.416   .     S
C827   O899    1.288   .     A
C827   O896    1.280   .     A
C827   C833    1.434   .     S
C828   O898    1.285   .     A
C828   O897    1.285   .     A
C828   C831    1.436   .     S
C829   N887    1.428   .     S
C829   C840    1.406   .     A
C829   C831    1.408   .     A
C830   C841    1.415   .     A
C830   C833    1.407   .     A
C830   N888    1.429   .     S
C831   C834    1.403   .     A
C832   O894    1.279   .     A
C832   C856    1.414   .     S
C832   O893    1.282   .     A
C833   C835    1.398   .     A
C834   N889    1.432   .     S
C834   C836    1.397   .     A
C835   C837    1.394   .     A
C835   N890    1.431   .     S
C836   C842    1.396   .     A
C836   C838    1.413   .     A
C837   C839    1.415   .     A
C837   C844    1.398   .     A
C838   C840    1.421   .     A
C838   C101    1.408   1_556 S
C839   C841    1.425   .     A
C840   C851    1.417   .     A
C841   C843    1.422   .     A
C842   H857    1.084   .     S
C842   C105    1.386   1_556 S
C843   C849    1.476   .     S
C844   H868    1.084   .     S
C845   N887    1.447   .     S
C845   H860    1.109   .     S
C845   H861    1.112   .     S
C845   H862    1.103   .     S
C846   H864    1.110   .     S
C846   H865    1.112   .     S
C846   N888    1.450   .     S
C846   H866    1.097   .     S
C847   N889    1.449   .     S
C847   H870    1.110   .     S
C847   H871    1.110   .     S
C847   H869    1.109   .     S
C848   H875    1.110   .     S
C848   H874    1.111   .     S
C848   N890    1.447   .     S
C848   H873    1.111   .     S
C849   H876    1.082   .     S
C849   O900    1.221   .     D
C850   C851    1.480   .     S
C850   H877    1.082   .     S
C850   O892    1.221   .     D
C851   C106    1.387   1_556 S
C852   H878    1.084   .     S
C853   C856    1.396   .     A
C853   H879    1.084   .     S
C853   C937    1.368   .     S
C854   H880    1.084   .     S
C854   C856    1.396   .     A
C854   C934    1.369   .     S
C855   H881    1.084   .     S
H859   N887    1.032   .     S
H863   N888    1.031   .     S
H867   N889    1.031   .     S
H872   N890    1.030   .     S
N885   Zn901   2.008   .     S
N886   Zn902   2.008   .     S
O891   Zn901   1.992   .     S
O893   Zn902   1.992   .     S
O894   Zn901   1.992   .     S
O895   Zn902   1.992   .     S
O896   Zn901   2.026   .     S
O897   Zn902   2.026   .     S
O898   Zn901   2.014   .     S
O899   Zn902   2.014   .     S
C903   O973    1.282   .     A
C903   C904    1.414   .     S
C903   O977    1.280   .     A
C904   C937    1.396   .     A
C904   C934    1.396   .     A
C905   N968    1.366   .     A
C905   H964    1.082   .     S
C905   C1400   1.416   1_545 S
C906   H965    1.081   .     S
C906   N967    1.366   .     A
C906   C1153   1.416   .     S
C907   H966    1.082   .     S
C907   N968    1.366   .     A
C907   C1398   1.416   1_545 S
C908   N967    1.366   .     A
C908   H940    1.082   .     S
C908   C1151   1.416   .     S
C909   O981    1.288   .     A
C909   O978    1.280   .     A
C909   C915    1.434   .     S
C910   O980    1.285   .     A
C910   O979    1.285   .     A
C910   C913    1.436   .     S
C911   N969    1.428   .     S
C911   C922    1.406   .     A
C911   C913    1.408   .     A
C912   C923    1.415   .     A
C912   C915    1.407   .     A
C912   N970    1.429   .     S
C913   C916    1.403   .     A
C914   O976    1.279   .     A
C914   C938    1.414   .     S
C914   O975    1.282   .     A
C915   C917    1.398   .     A
C916   N971    1.432   .     S
C916   C918    1.397   .     A
C917   C919    1.394   .     A
C917   N972    1.431   .     S
C918   C924    1.396   .     A
C918   C920    1.413   .     A
C919   C921    1.415   .     A
C919   C926    1.398   .     A
C920   C922    1.421   .     A
C920   C183    1.408   1_556 S
C921   C923    1.425   .     A
C922   C933    1.417   .     A
C923   C925    1.422   .     A
C924   H939    1.084   .     S
C924   C187    1.386   1_556 S
C925   C931    1.476   .     S
C926   H950    1.084   .     S
C927   N969    1.447   .     S
C927   H942    1.109   .     S
C927   H943    1.112   .     S
C927   H944    1.103   .     S
C928   H946    1.110   .     S
C928   H947    1.112   .     S
C928   N970    1.450   .     S
C928   H948    1.097   .     S
C929   N971    1.449   .     S
C929   H952    1.110   .     S
C929   H953    1.110   .     S
C929   H951    1.109   .     S
C930   H957    1.110   .     S
C930   H956    1.111   .     S
C930   N972    1.447   .     S
C930   H955    1.111   .     S
C931   H958    1.082   .     S
C931   O982    1.221   .     D
C932   C933    1.480   .     S
C932   H959    1.082   .     S
C932   O974    1.221   .     D
C933   C188    1.387   1_556 S
C934   H960    1.084   .     S
C935   C938    1.396   .     A
C935   H961    1.084   .     S
C935   C773    1.368   1_655 S
C936   H962    1.084   .     S
C936   C938    1.396   .     A
C936   C770    1.369   1_655 S
C937   H963    1.084   .     S
H941   N969    1.032   .     S
H945   N970    1.031   .     S
H949   N971    1.031   .     S
H954   N972    1.030   .     S
N967   Zn983   2.008   .     S
N968   Zn984   2.008   .     S
O973   Zn983   1.992   .     S
O975   Zn984   1.992   .     S
O976   Zn983   1.992   .     S
O977   Zn984   1.992   .     S
O978   Zn983   2.026   .     S
O979   Zn984   2.026   .     S
O980   Zn983   2.014   .     S
O981   Zn984   2.014   .     S
C985   O1055   1.282   .     A
C985   C986    1.414   .     S
C985   O1059   1.280   .     A
C986   C1019   1.396   .     A
C986   C1016   1.396   .     A
C987   N1050   1.366   .     A
C987   H1046   1.082   .     S
C988   H1047   1.081   .     S
C988   N1049   1.366   .     A
C988   C1235   1.416   .     S
C989   H1048   1.082   .     S
C989   N1050   1.366   .     A
C990   N1049   1.366   .     A
C990   H1022   1.082   .     S
C990   C1233   1.416   .     S
C991   O1063   1.288   .     A
C991   O1060   1.280   .     A
C991   C997    1.434   .     S
C992   O1062   1.285   .     A
C992   O1061   1.285   .     A
C992   C995    1.436   .     S
C993   N1051   1.428   .     S
C993   C1004   1.406   .     A
C993   C995    1.408   .     A
C994   C1005   1.415   .     A
C994   C997    1.407   .     A
C994   N1052   1.429   .     S
C995   C998    1.403   .     A
C996   O1058   1.279   .     A
C996   C1020   1.414   .     S
C996   O1057   1.282   .     A
C997   C999    1.398   .     A
C998   N1053   1.432   .     S
C998   C1000   1.397   .     A
C999   C1001   1.394   .     A
C999   N1054   1.431   .     S
C1000  C1006   1.396   .     A
C1000  C1002   1.413   .     A
C1001  C1003   1.415   .     A
C1001  C1008   1.398   .     A
C1002  C1004   1.421   .     A
C1002  C265    1.408   1_556 S
C1003  C1005   1.425   .     A
C1004  C1015   1.417   .     A
C1005  C1007   1.422   .     A
C1006  H1021   1.084   .     S
C1006  C269    1.386   1_556 S
C1007  C1013   1.476   .     S
C1008  H1032   1.084   .     S
C1009  N1051   1.447   .     S
C1009  H1024   1.109   .     S
C1009  H1025   1.112   .     S
C1009  H1026   1.103   .     S
C1010  H1028   1.110   .     S
C1010  H1029   1.112   .     S
C1010  N1052   1.450   .     S
C1010  H1030   1.097   .     S
C1011  N1053   1.449   .     S
C1011  H1034   1.110   .     S
C1011  H1035   1.110   .     S
C1011  H1033   1.109   .     S
C1012  H1039   1.110   .     S
C1012  H1038   1.111   .     S
C1012  N1054   1.447   .     S
C1012  H1037   1.111   .     S
C1013  H1040   1.082   .     S
C1013  O1064   1.221   .     D
C1014  C1015   1.480   .     S
C1014  H1041   1.082   .     S
C1014  O1056   1.221   .     D
C1015  C270    1.387   1_556 S
C1016  H1042   1.084   .     S
C1016  C1182   1.369   1_455 S
C1017  C1020   1.396   .     A
C1017  H1043   1.084   .     S
C1017  C1101   1.368   .     S
C1018  H1044   1.084   .     S
C1018  C1020   1.396   .     A
C1018  C1098   1.369   .     S
C1019  H1045   1.084   .     S
C1019  C1181   1.368   1_455 S
H1023  N1051   1.032   .     S
H1027  N1052   1.031   .     S
H1031  N1053   1.031   .     S
H1036  N1054   1.030   .     S
N1049  Zn1065  2.008   .     S
N1050  Zn1066  2.008   .     S
O1055  Zn1065  1.992   .     S
O1057  Zn1066  1.992   .     S
O1058  Zn1065  1.992   .     S
O1059  Zn1066  1.992   .     S
O1060  Zn1065  2.026   .     S
O1061  Zn1066  2.026   .     S
O1062  Zn1065  2.014   .     S
O1063  Zn1066  2.014   .     S
C1067  O1137   1.282   .     A
C1067  C1068   1.414   .     S
C1067  O1141   1.280   .     A
C1068  C1101   1.396   .     A
C1068  C1098   1.396   .     A
C1069  N1132   1.366   .     A
C1069  H1128   1.082   .     S
C1070  H1129   1.081   .     S
C1070  N1131   1.366   .     A
C1070  C1317   1.416   .     S
C1071  H1130   1.082   .     S
C1071  N1132   1.366   .     A
C1072  N1131   1.366   .     A
C1072  H1104   1.082   .     S
C1072  C1315   1.416   .     S
C1073  O1145   1.288   .     A
C1073  O1142   1.280   .     A
C1073  C1079   1.434   .     S
C1074  O1144   1.285   .     A
C1074  O1143   1.285   .     A
C1074  C1077   1.436   .     S
C1075  N1133   1.428   .     S
C1075  C1086   1.406   .     A
C1075  C1077   1.408   .     A
C1076  C1087   1.415   .     A
C1076  C1079   1.407   .     A
C1076  N1134   1.429   .     S
C1077  C1080   1.403   .     A
C1078  O1140   1.279   .     A
C1078  C1102   1.414   .     S
C1078  O1139   1.282   .     A
C1079  C1081   1.398   .     A
C1080  N1135   1.432   .     S
C1080  C1082   1.397   .     A
C1081  C1083   1.394   .     A
C1081  N1136   1.431   .     S
C1082  C1088   1.396   .     A
C1082  C1084   1.413   .     A
C1083  C1085   1.415   .     A
C1083  C1090   1.398   .     A
C1084  C1086   1.421   .     A
C1084  C347    1.408   1_556 S
C1085  C1087   1.425   .     A
C1086  C1097   1.417   .     A
C1087  C1089   1.422   .     A
C1088  H1103   1.084   .     S
C1088  C351    1.386   1_556 S
C1089  C1095   1.476   .     S
C1090  H1114   1.084   .     S
C1091  N1133   1.447   .     S
C1091  H1106   1.109   .     S
C1091  H1107   1.112   .     S
C1091  H1108   1.103   .     S
C1092  H1110   1.110   .     S
C1092  H1111   1.112   .     S
C1092  N1134   1.450   .     S
C1092  H1112   1.097   .     S
C1093  N1135   1.449   .     S
C1093  H1116   1.110   .     S
C1093  H1117   1.110   .     S
C1093  H1115   1.109   .     S
C1094  H1121   1.110   .     S
C1094  H1120   1.111   .     S
C1094  N1136   1.447   .     S
C1094  H1119   1.111   .     S
C1095  H1122   1.082   .     S
C1095  O1146   1.221   .     D
C1096  C1097   1.480   .     S
C1096  H1123   1.082   .     S
C1096  O1138   1.221   .     D
C1097  C352    1.387   1_556 S
C1098  H1124   1.084   .     S
C1099  C1102   1.396   .     A
C1099  H1125   1.084   .     S
C1099  C1183   1.368   .     S
C1100  H1126   1.084   .     S
C1100  C1102   1.396   .     A
C1100  C1180   1.369   .     S
C1101  H1127   1.084   .     S
H1105  N1133   1.032   .     S
H1109  N1134   1.031   .     S
H1113  N1135   1.031   .     S
H1118  N1136   1.030   .     S
N1131  Zn1147  2.008   .     S
N1132  Zn1148  2.008   .     S
O1137  Zn1147  1.992   .     S
O1139  Zn1148  1.992   .     S
O1140  Zn1147  1.992   .     S
O1141  Zn1148  1.992   .     S
O1142  Zn1147  2.026   .     S
O1143  Zn1148  2.026   .     S
O1144  Zn1147  2.014   .     S
O1145  Zn1148  2.014   .     S
C1149  O1219   1.282   .     A
C1149  C1150   1.414   .     S
C1149  O1223   1.280   .     A
C1150  C1183   1.396   .     A
C1150  C1180   1.396   .     A
C1151  N1214   1.366   .     A
C1151  H1210   1.082   .     S
C1152  H1211   1.081   .     S
C1152  N1213   1.366   .     A
C1152  C1399   1.416   .     S
C1153  H1212   1.082   .     S
C1153  N1214   1.366   .     A
C1154  N1213   1.366   .     A
C1154  H1186   1.082   .     S
C1154  C1397   1.416   .     S
C1155  O1227   1.288   .     A
C1155  O1224   1.280   .     A
C1155  C1161   1.434   .     S
C1156  O1226   1.285   .     A
C1156  O1225   1.285   .     A
C1156  C1159   1.436   .     S
C1157  N1215   1.428   .     S
C1157  C1168   1.406   .     A
C1157  C1159   1.408   .     A
C1158  C1169   1.415   .     A
C1158  C1161   1.407   .     A
C1158  N1216   1.429   .     S
C1159  C1162   1.403   .     A
C1160  O1222   1.279   .     A
C1160  C1184   1.414   .     S
C1160  O1221   1.282   .     A
C1161  C1163   1.398   .     A
C1162  N1217   1.432   .     S
C1162  C1164   1.397   .     A
C1163  C1165   1.394   .     A
C1163  N1218   1.431   .     S
C1164  C1170   1.396   .     A
C1164  C1166   1.413   .     A
C1165  C1167   1.415   .     A
C1165  C1172   1.398   .     A
C1166  C1168   1.421   .     A
C1166  C429    1.408   1_556 S
C1167  C1169   1.425   .     A
C1168  C1179   1.417   .     A
C1169  C1171   1.422   .     A
C1170  H1185   1.084   .     S
C1170  C433    1.386   1_556 S
C1171  C1177   1.476   .     S
C1172  H1196   1.084   .     S
C1173  N1215   1.447   .     S
C1173  H1188   1.109   .     S
C1173  H1189   1.112   .     S
C1173  H1190   1.103   .     S
C1174  H1192   1.110   .     S
C1174  H1193   1.112   .     S
C1174  N1216   1.450   .     S
C1174  H1194   1.097   .     S
C1175  N1217   1.449   .     S
C1175  H1198   1.110   .     S
C1175  H1199   1.110   .     S
C1175  H1197   1.109   .     S
C1176  H1203   1.110   .     S
C1176  H1202   1.111   .     S
C1176  N1218   1.447   .     S
C1176  H1201   1.111   .     S
C1177  H1204   1.082   .     S
C1177  O1228   1.221   .     D
C1178  C1179   1.480   .     S
C1178  H1205   1.082   .     S
C1178  O1220   1.221   .     D
C1179  C434    1.387   1_556 S
C1180  H1206   1.084   .     S
C1181  C1184   1.396   .     A
C1181  H1207   1.084   .     S
C1181  C1019   1.368   1_655 S
C1182  H1208   1.084   .     S
C1182  C1184   1.396   .     A
C1182  C1016   1.369   1_655 S
C1183  H1209   1.084   .     S
H1187  N1215   1.032   .     S
H1191  N1216   1.031   .     S
H1195  N1217   1.031   .     S
H1200  N1218   1.030   .     S
N1213  Zn1229  2.008   .     S
N1214  Zn1230  2.008   .     S
O1219  Zn1229  1.992   .     S
O1221  Zn1230  1.992   .     S
O1222  Zn1229  1.992   .     S
O1223  Zn1230  1.992   .     S
O1224  Zn1229  2.026   .     S
O1225  Zn1230  2.026   .     S
O1226  Zn1229  2.014   .     S
O1227  Zn1230  2.014   .     S
C1231  O1301   1.282   .     A
C1231  C1232   1.414   .     S
C1231  O1305   1.280   .     A
C1232  C1265   1.396   .     A
C1232  C1262   1.396   .     A
C1233  N1296   1.366   .     A
C1233  H1292   1.082   .     S
C1234  H1293   1.081   .     S
C1234  N1295   1.366   .     A
C1234  C743    1.416   1_565 S
C1235  H1294   1.082   .     S
C1235  N1296   1.366   .     A
C1236  N1295   1.366   .     A
C1236  H1268   1.082   .     S
C1236  C741    1.416   1_565 S
C1237  O1309   1.288   .     A
C1237  O1306   1.280   .     A
C1237  C1243   1.434   .     S
C1238  O1308   1.285   .     A
C1238  O1307   1.285   .     A
C1238  C1241   1.436   .     S
C1239  N1297   1.428   .     S
C1239  C1250   1.406   .     A
C1239  C1241   1.408   .     A
C1240  C1251   1.415   .     A
C1240  C1243   1.407   .     A
C1240  N1298   1.429   .     S
C1241  C1244   1.403   .     A
C1242  O1304   1.279   .     A
C1242  C1266   1.414   .     S
C1242  O1303   1.282   .     A
C1243  C1245   1.398   .     A
C1244  N1299   1.432   .     S
C1244  C1246   1.397   .     A
C1245  C1247   1.394   .     A
C1245  N1300   1.431   .     S
C1246  C1252   1.396   .     A
C1246  C1248   1.413   .     A
C1247  C1249   1.415   .     A
C1247  C1254   1.398   .     A
C1248  C1250   1.421   .     A
C1248  C511    1.408   1_556 S
C1249  C1251   1.425   .     A
C1250  C1261   1.417   .     A
C1251  C1253   1.422   .     A
C1252  H1267   1.084   .     S
C1252  C515    1.386   1_556 S
C1253  C1259   1.476   .     S
C1254  H1278   1.084   .     S
C1255  N1297   1.447   .     S
C1255  H1270   1.109   .     S
C1255  H1271   1.112   .     S
C1255  H1272   1.103   .     S
C1256  H1274   1.110   .     S
C1256  H1275   1.112   .     S
C1256  N1298   1.450   .     S
C1256  H1276   1.097   .     S
C1257  N1299   1.449   .     S
C1257  H1280   1.110   .     S
C1257  H1281   1.110   .     S
C1257  H1279   1.109   .     S
C1258  H1285   1.110   .     S
C1258  H1284   1.111   .     S
C1258  N1300   1.447   .     S
C1258  H1283   1.111   .     S
C1259  H1286   1.082   .     S
C1259  O1310   1.221   .     D
C1260  C1261   1.480   .     S
C1260  H1287   1.082   .     S
C1260  O1302   1.221   .     D
C1261  C516    1.387   1_556 S
C1262  H1288   1.084   .     S
C1262  C1428   1.369   1_455 S
C1263  C1266   1.396   .     A
C1263  H1289   1.084   .     S
C1263  C1347   1.368   .     S
C1264  H1290   1.084   .     S
C1264  C1266   1.396   .     A
C1264  C1344   1.369   .     S
C1265  H1291   1.084   .     S
C1265  C1427   1.368   1_455 S
H1269  N1297   1.032   .     S
H1273  N1298   1.031   .     S
H1277  N1299   1.031   .     S
H1282  N1300   1.030   .     S
N1295  Zn1311  2.008   .     S
N1296  Zn1312  2.008   .     S
O1301  Zn1311  1.992   .     S
O1303  Zn1312  1.992   .     S
O1304  Zn1311  1.992   .     S
O1305  Zn1312  1.992   .     S
O1306  Zn1311  2.026   .     S
O1307  Zn1312  2.026   .     S
O1308  Zn1311  2.014   .     S
O1309  Zn1312  2.014   .     S
C1313  O1383   1.282   .     A
C1313  C1314   1.414   .     S
C1313  O1387   1.280   .     A
C1314  C1347   1.396   .     A
C1314  C1344   1.396   .     A
C1315  N1378   1.366   .     A
C1315  H1374   1.082   .     S
C1316  H1375   1.081   .     S
C1316  N1377   1.366   .     A
C1316  C825    1.416   1_565 S
C1317  H1376   1.082   .     S
C1317  N1378   1.366   .     A
C1318  N1377   1.366   .     A
C1318  H1350   1.082   .     S
C1318  C823    1.416   1_565 S
C1319  O1391   1.288   .     A
C1319  O1388   1.280   .     A
C1319  C1325   1.434   .     S
C1320  O1390   1.285   .     A
C1320  O1389   1.285   .     A
C1320  C1323   1.436   .     S
C1321  N1379   1.428   .     S
C1321  C1332   1.406   .     A
C1321  C1323   1.408   .     A
C1322  C1333   1.415   .     A
C1322  C1325   1.407   .     A
C1322  N1380   1.429   .     S
C1323  C1326   1.403   .     A
C1324  O1386   1.279   .     A
C1324  C1348   1.414   .     S
C1324  O1385   1.282   .     A
C1325  C1327   1.398   .     A
C1326  N1381   1.432   .     S
C1326  C1328   1.397   .     A
C1327  C1329   1.394   .     A
C1327  N1382   1.431   .     S
C1328  C1334   1.396   .     A
C1328  C1330   1.413   .     A
C1329  C1331   1.415   .     A
C1329  C1336   1.398   .     A
C1330  C1332   1.421   .     A
C1330  C593    1.408   1_556 S
C1331  C1333   1.425   .     A
C1332  C1343   1.417   .     A
C1333  C1335   1.422   .     A
C1334  H1349   1.084   .     S
C1334  C597    1.386   1_556 S
C1335  C1341   1.476   .     S
C1336  H1360   1.084   .     S
C1337  N1379   1.447   .     S
C1337  H1352   1.109   .     S
C1337  H1353   1.112   .     S
C1337  H1354   1.103   .     S
C1338  H1356   1.110   .     S
C1338  H1357   1.112   .     S
C1338  N1380   1.450   .     S
C1338  H1358   1.097   .     S
C1339  N1381   1.449   .     S
C1339  H1362   1.110   .     S
C1339  H1363   1.110   .     S
C1339  H1361   1.109   .     S
C1340  H1367   1.110   .     S
C1340  H1366   1.111   .     S
C1340  N1382   1.447   .     S
C1340  H1365   1.111   .     S
C1341  H1368   1.082   .     S
C1341  O1392   1.221   .     D
C1342  C1343   1.480   .     S
C1342  H1369   1.082   .     S
C1342  O1384   1.221   .     D
C1343  C598    1.387   1_556 S
C1344  H1370   1.084   .     S
C1345  C1348   1.396   .     A
C1345  H1371   1.084   .     S
C1345  C1429   1.368   .     S
C1346  H1372   1.084   .     S
C1346  C1348   1.396   .     A
C1346  C1426   1.369   .     S
C1347  H1373   1.084   .     S
H1351  N1379   1.032   .     S
H1355  N1380   1.031   .     S
H1359  N1381   1.031   .     S
H1364  N1382   1.030   .     S
N1377  Zn1393  2.008   .     S
N1378  Zn1394  2.008   .     S
O1383  Zn1393  1.992   .     S
O1385  Zn1394  1.992   .     S
O1386  Zn1393  1.992   .     S
O1387  Zn1394  1.992   .     S
O1388  Zn1393  2.026   .     S
O1389  Zn1394  2.026   .     S
O1390  Zn1393  2.014   .     S
O1391  Zn1394  2.014   .     S
C1395  O1465   1.282   .     A
C1395  C1396   1.414   .     S
C1395  O1469   1.280   .     A
C1396  C1429   1.396   .     A
C1396  C1426   1.396   .     A
C1397  N1460   1.366   .     A
C1397  H1456   1.082   .     S
C1398  H1457   1.081   .     S
C1398  N1459   1.366   .     A
C1398  C907    1.416   1_565 S
C1399  H1458   1.082   .     S
C1399  N1460   1.366   .     A
C1400  N1459   1.366   .     A
C1400  H1432   1.082   .     S
C1400  C905    1.416   1_565 S
C1401  O1473   1.288   .     A
C1401  O1470   1.280   .     A
C1401  C1407   1.434   .     S
C1402  O1472   1.285   .     A
C1402  O1471   1.285   .     A
C1402  C1405   1.436   .     S
C1403  N1461   1.428   .     S
C1403  C1414   1.406   .     A
C1403  C1405   1.408   .     A
C1404  C1415   1.415   .     A
C1404  C1407   1.407   .     A
C1404  N1462   1.429   .     S
C1405  C1408   1.403   .     A
C1406  O1468   1.279   .     A
C1406  C1430   1.414   .     S
C1406  O1467   1.282   .     A
C1407  C1409   1.398   .     A
C1408  N1463   1.432   .     S
C1408  C1410   1.397   .     A
C1409  C1411   1.394   .     A
C1409  N1464   1.431   .     S
C1410  C1416   1.396   .     A
C1410  C1412   1.413   .     A
C1411  C1413   1.415   .     A
C1411  C1418   1.398   .     A
C1412  C1414   1.421   .     A
C1412  C675    1.408   1_556 S
C1413  C1415   1.425   .     A
C1414  C1425   1.417   .     A
C1415  C1417   1.422   .     A
C1416  H1431   1.084   .     S
C1416  C679    1.386   1_556 S
C1417  C1423   1.476   .     S
C1418  H1442   1.084   .     S
C1419  N1461   1.447   .     S
C1419  H1434   1.109   .     S
C1419  H1435   1.112   .     S
C1419  H1436   1.103   .     S
C1420  H1438   1.110   .     S
C1420  H1439   1.112   .     S
C1420  N1462   1.450   .     S
C1420  H1440   1.097   .     S
C1421  N1463   1.449   .     S
C1421  H1444   1.110   .     S
C1421  H1445   1.110   .     S
C1421  H1443   1.109   .     S
C1422  H1449   1.110   .     S
C1422  H1448   1.111   .     S
C1422  N1464   1.447   .     S
C1422  H1447   1.111   .     S
C1423  H1450   1.082   .     S
C1423  O1474   1.221   .     D
C1424  C1425   1.480   .     S
C1424  H1451   1.082   .     S
C1424  O1466   1.221   .     D
C1425  C680    1.387   1_556 S
C1426  H1452   1.084   .     S
C1427  C1430   1.396   .     A
C1427  H1453   1.084   .     S
C1427  C1265   1.368   1_655 S
C1428  H1454   1.084   .     S
C1428  C1430   1.396   .     A
C1428  C1262   1.369   1_655 S
C1429  H1455   1.084   .     S
H1433  N1461   1.032   .     S
H1437  N1462   1.031   .     S
H1441  N1463   1.031   .     S
H1446  N1464   1.030   .     S
N1459  Zn1475  2.008   .     S
N1460  Zn1476  2.008   .     S
O1465  Zn1475  1.992   .     S
O1467  Zn1476  1.992   .     S
O1468  Zn1475  1.992   .     S
O1469  Zn1476  1.992   .     S
O1470  Zn1475  2.026   .     S
O1471  Zn1476  2.026   .     S
O1472  Zn1475  2.014   .     S
O1473  Zn1476  2.014   .     S
