data_str_m2_o10_o17_pcu_sym.232
_audit_creation_date              2020-01-03
_audit_creation_method            'Materials Studio'
_symmetry_space_group_name_H-M    'P1'
_symmetry_Int_Tables_number       1
_symmetry_cell_setting            triclinic
loop_
_symmetry_equiv_pos_as_xyz
  x,y,z
_cell_length_a                    29.9684
_cell_length_b                    25.9447
_cell_length_c                    22.3687
_cell_angle_alpha                 102.9118
_cell_angle_beta                  94.2206
_cell_angle_gamma                 92.2345
loop_
_atom_site_label
_atom_site_type_symbol
_atom_site_fract_x
_atom_site_fract_y
_atom_site_fract_z
_atom_site_U_iso_or_equiv
_atom_site_adp_type
_atom_site_occupancy
C1     C     0.24314   0.06665   0.15132   0.00000  Uiso   1.00
C2     C     0.24478   0.26594   0.18213   0.00000  Uiso   1.00
C3     C     0.01840   0.07402   0.11440   0.00000  Uiso   1.00
C4     C     0.48128   0.25894   0.22171   0.00000  Uiso   1.00
C5     C     0.22944   0.01059   0.14221   0.00000  Uiso   1.00
C6     C     0.23212   0.32065   0.19060   0.00000  Uiso   1.00
C7     C     0.16453   0.16746   0.16762   0.00000  Uiso   1.00
C8     C     0.33539   0.16641   0.16583   0.00000  Uiso   1.00
C9     C     0.40920   0.21192   0.19403   0.00000  Uiso   1.00
C10    C     0.09046   0.12176   0.14079   0.00000  Uiso   1.00
C11    C     0.38340   0.16642   0.16448   0.00000  Uiso   1.00
C12    C     0.11636   0.16756   0.16929   0.00000  Uiso   1.00
C13    C     0.40327   0.12043   0.13652   0.00000  Uiso   1.00
C14    C     0.09633   0.21346   0.19757   0.00000  Uiso   1.00
C15    C     0.45014   0.11867   0.13958   0.00000  Uiso   1.00
C16    C     0.04946   0.21416   0.19658   0.00000  Uiso   1.00
C17    C     0.47636   0.16591   0.16765   0.00000  Uiso   1.00
C18    C     0.02328   0.16693   0.16858   0.00000  Uiso   1.00
C19    C     0.45560   0.21239   0.19472   0.00000  Uiso   1.00
C20    C     0.04405   0.12079   0.14096   0.00000  Uiso   1.00
C21    C     0.47169   0.07181   0.11453   0.00000  Uiso   1.00
C22    C     0.02787   0.26046   0.22247   0.00000  Uiso   1.00
Cu23   Cu    0.25501   0.17246   0.22813   0.00000  Uiso   1.00
Cu24   Cu    0.24500   0.16087   0.10521   0.00000  Uiso   1.00
H25    H     0.39294   0.24716   0.21557   0.00000  Uiso   1.00
H26    H     0.10662   0.08671   0.11915   0.00000  Uiso   1.00
H27    H     0.38162   0.08654   0.11306   0.00000  Uiso   1.00
H28    H     0.11746   0.24842   0.21927   0.00000  Uiso   1.00
H29    H     0.03511   0.03848   0.09516   0.00000  Uiso   1.00
H30    H     0.46490   0.29465   0.24142   0.00000  Uiso   1.00
H31    H     0.21265   0.12917   0.31698   0.00000  Uiso   1.00
H32    H     0.28647   0.20557   0.01673   0.00000  Uiso   1.00
N33    N     0.23745   0.15214   0.01284   0.00000  Uiso   1.00
N34    N     0.26256   0.18119   0.32049   0.00000  Uiso   1.00
O35    O     0.25326   0.09538   0.20659   0.00000  Uiso   1.00
O36    O     0.24675   0.23796   0.12674   0.00000  Uiso   1.00
O37    O     0.24480   0.08559   0.10279   0.00000  Uiso   1.00
O38    O     0.25520   0.24774   0.23055   0.00000  Uiso   1.00
O39    O     0.18936   0.17155   0.21857   0.00000  Uiso   1.00
O40    O     0.31065   0.16179   0.11476   0.00000  Uiso   1.00
O41    O     0.18090   0.16176   0.11477   0.00000  Uiso   1.00
O42    O     0.31910   0.17157   0.21857   0.00000  Uiso   1.00
C43    C     0.44750   0.01933   0.09019   0.00000  Uiso   1.00
O44    O     0.41615   0.00538   0.11604   0.00000  Uiso   1.00
O45    O     0.46241   0.31781   0.03938   0.00000  Uiso   1.00
H46    H     0.44396   0.28290   0.02766   0.00000  Uiso   1.00
C47    C     0.05228   0.31181   0.24854   0.00000  Uiso   1.00
O48    O     0.06175   0.00747   0.21460   0.00000  Uiso   1.00
O49    O     0.06217   0.32823   0.31210   0.00000  Uiso   1.00
H50    H     0.07740   0.03174   0.32468   0.00000  Uiso   1.00
C51    C     0.20700   0.31567   0.07905   0.00000  Uiso   1.00
C52    C     0.16350   0.00711   0.06367   0.00000  Uiso   1.00
H53    H     0.13968   0.00452   0.09878   0.00000  Uiso   1.00
H54    H     0.16922   0.04900   0.06138   0.00000  Uiso   1.00
H55    H     0.14797   0.31792   0.01831   0.00000  Uiso   1.00
H56    H     0.23100   0.31655   0.04392   0.00000  Uiso   1.00
H57    H     0.19574   0.27402   0.07550   0.00000  Uiso   1.00
C58    C     0.21564   0.01372   0.25232   0.00000  Uiso   1.00
C59    C     0.16936   0.03545   0.24412   0.00000  Uiso   1.00
H60    H     0.17029   0.06785   0.21928   0.00000  Uiso   1.00
H61    H     0.14575   0.00316   0.21749   0.00000  Uiso   1.00
H62    H     0.15665   0.05134   0.28944   0.00000  Uiso   1.00
H63    H     0.21133   0.31741   0.28031   0.00000  Uiso   1.00
H64    H     0.24032   0.04446   0.27958   0.00000  Uiso   1.00
C65    C     0.74314   0.06665   0.15132   0.00000  Uiso   1.00
C66    C     0.74478   0.26594   0.18213   0.00000  Uiso   1.00
C67    C     0.51840   0.07402   0.11440   0.00000  Uiso   1.00
C68    C     0.98128   0.25894   0.22171   0.00000  Uiso   1.00
C69    C     0.72944   0.01059   0.14221   0.00000  Uiso   1.00
C70    C     0.73212   0.32065   0.19060   0.00000  Uiso   1.00
C71    C     0.66453   0.16746   0.16762   0.00000  Uiso   1.00
C72    C     0.83539   0.16641   0.16583   0.00000  Uiso   1.00
C73    C     0.90920   0.21192   0.19403   0.00000  Uiso   1.00
C74    C     0.59046   0.12176   0.14079   0.00000  Uiso   1.00
C75    C     0.88340   0.16642   0.16448   0.00000  Uiso   1.00
C76    C     0.61636   0.16756   0.16929   0.00000  Uiso   1.00
C77    C     0.90327   0.12043   0.13652   0.00000  Uiso   1.00
C78    C     0.59633   0.21346   0.19757   0.00000  Uiso   1.00
C79    C     0.95014   0.11867   0.13958   0.00000  Uiso   1.00
C80    C     0.54946   0.21416   0.19658   0.00000  Uiso   1.00
C81    C     0.97636   0.16591   0.16765   0.00000  Uiso   1.00
C82    C     0.52328   0.16693   0.16858   0.00000  Uiso   1.00
C83    C     0.95560   0.21239   0.19472   0.00000  Uiso   1.00
C84    C     0.54405   0.12079   0.14096   0.00000  Uiso   1.00
C85    C     0.97169   0.07181   0.11453   0.00000  Uiso   1.00
C86    C     0.52787   0.26046   0.22247   0.00000  Uiso   1.00
Cu87   Cu    0.75501   0.17246   0.22813   0.00000  Uiso   1.00
Cu88   Cu    0.74500   0.16087   0.10521   0.00000  Uiso   1.00
H89    H     0.89294   0.24716   0.21557   0.00000  Uiso   1.00
H90    H     0.60662   0.08671   0.11915   0.00000  Uiso   1.00
H91    H     0.88162   0.08654   0.11306   0.00000  Uiso   1.00
H92    H     0.61746   0.24842   0.21927   0.00000  Uiso   1.00
H93    H     0.53511   0.03848   0.09516   0.00000  Uiso   1.00
H94    H     0.96490   0.29465   0.24142   0.00000  Uiso   1.00
H95    H     0.71265   0.12917   0.31698   0.00000  Uiso   1.00
H96    H     0.78647   0.20557   0.01673   0.00000  Uiso   1.00
N97    N     0.73745   0.15214   0.01284   0.00000  Uiso   1.00
N98    N     0.76256   0.18119   0.32049   0.00000  Uiso   1.00
O99    O     0.75326   0.09538   0.20659   0.00000  Uiso   1.00
O100   O     0.74675   0.23796   0.12674   0.00000  Uiso   1.00
O101   O     0.74480   0.08559   0.10279   0.00000  Uiso   1.00
O102   O     0.75520   0.24774   0.23055   0.00000  Uiso   1.00
O103   O     0.68936   0.17155   0.21857   0.00000  Uiso   1.00
O104   O     0.81065   0.16179   0.11476   0.00000  Uiso   1.00
O105   O     0.68090   0.16176   0.11477   0.00000  Uiso   1.00
O106   O     0.81910   0.17157   0.21857   0.00000  Uiso   1.00
C107   C     0.94750   0.01933   0.09019   0.00000  Uiso   1.00
O108   O     0.91615   0.00538   0.11604   0.00000  Uiso   1.00
O109   O     0.96241   0.31781   0.03938   0.00000  Uiso   1.00
H110   H     0.94396   0.28290   0.02766   0.00000  Uiso   1.00
C111   C     0.55228   0.31181   0.24854   0.00000  Uiso   1.00
O112   O     0.56175   0.00747   0.21460   0.00000  Uiso   1.00
O113   O     0.56217   0.32823   0.31210   0.00000  Uiso   1.00
H114   H     0.57740   0.03174   0.32468   0.00000  Uiso   1.00
C115   C     0.70700   0.31567   0.07905   0.00000  Uiso   1.00
C116   C     0.66350   0.00711   0.06367   0.00000  Uiso   1.00
H117   H     0.63968   0.00452   0.09878   0.00000  Uiso   1.00
H118   H     0.66922   0.04900   0.06138   0.00000  Uiso   1.00
H119   H     0.64797   0.31792   0.01831   0.00000  Uiso   1.00
H120   H     0.73100   0.31655   0.04392   0.00000  Uiso   1.00
H121   H     0.69574   0.27402   0.07550   0.00000  Uiso   1.00
C122   C     0.71564   0.01372   0.25232   0.00000  Uiso   1.00
C123   C     0.66936   0.03545   0.24412   0.00000  Uiso   1.00
H124   H     0.67029   0.06785   0.21928   0.00000  Uiso   1.00
H125   H     0.64575   0.00316   0.21749   0.00000  Uiso   1.00
H126   H     0.65665   0.05134   0.28944   0.00000  Uiso   1.00
H127   H     0.71133   0.31741   0.28031   0.00000  Uiso   1.00
H128   H     0.74032   0.04446   0.27958   0.00000  Uiso   1.00
C129   C     0.24314   0.39998   0.15132   0.00000  Uiso   1.00
C130   C     0.24478   0.59927   0.18213   0.00000  Uiso   1.00
C131   C     0.01840   0.40735   0.11440   0.00000  Uiso   1.00
C132   C     0.48128   0.59228   0.22171   0.00000  Uiso   1.00
C133   C     0.22944   0.34393   0.14221   0.00000  Uiso   1.00
C134   C     0.23212   0.65399   0.19060   0.00000  Uiso   1.00
C135   C     0.16453   0.50079   0.16762   0.00000  Uiso   1.00
C136   C     0.33539   0.49974   0.16583   0.00000  Uiso   1.00
C137   C     0.40920   0.54525   0.19403   0.00000  Uiso   1.00
C138   C     0.09046   0.45510   0.14079   0.00000  Uiso   1.00
C139   C     0.38340   0.49976   0.16448   0.00000  Uiso   1.00
C140   C     0.11636   0.50090   0.16929   0.00000  Uiso   1.00
C141   C     0.40327   0.45376   0.13652   0.00000  Uiso   1.00
C142   C     0.09633   0.54680   0.19757   0.00000  Uiso   1.00
C143   C     0.45014   0.45200   0.13958   0.00000  Uiso   1.00
C144   C     0.04946   0.54749   0.19658   0.00000  Uiso   1.00
C145   C     0.47636   0.49924   0.16765   0.00000  Uiso   1.00
C146   C     0.02328   0.50026   0.16858   0.00000  Uiso   1.00
C147   C     0.45560   0.54572   0.19472   0.00000  Uiso   1.00
C148   C     0.04405   0.45412   0.14096   0.00000  Uiso   1.00
C149   C     0.47169   0.40514   0.11453   0.00000  Uiso   1.00
C150   C     0.02787   0.59380   0.22247   0.00000  Uiso   1.00
Cu151  Cu    0.25501   0.50579   0.22813   0.00000  Uiso   1.00
Cu152  Cu    0.24500   0.49421   0.10521   0.00000  Uiso   1.00
H153   H     0.39294   0.58050   0.21557   0.00000  Uiso   1.00
H154   H     0.10662   0.42004   0.11915   0.00000  Uiso   1.00
H155   H     0.38162   0.41988   0.11306   0.00000  Uiso   1.00
H156   H     0.11746   0.58175   0.21927   0.00000  Uiso   1.00
H157   H     0.03511   0.37182   0.09516   0.00000  Uiso   1.00
H158   H     0.46490   0.62798   0.24142   0.00000  Uiso   1.00
H159   H     0.21265   0.46250   0.31698   0.00000  Uiso   1.00
H160   H     0.28647   0.53891   0.01673   0.00000  Uiso   1.00
N161   N     0.23745   0.48547   0.01284   0.00000  Uiso   1.00
N162   N     0.26256   0.51453   0.32049   0.00000  Uiso   1.00
O163   O     0.25326   0.42871   0.20659   0.00000  Uiso   1.00
O164   O     0.24675   0.57129   0.12674   0.00000  Uiso   1.00
O165   O     0.24480   0.41892   0.10279   0.00000  Uiso   1.00
O166   O     0.25520   0.58108   0.23055   0.00000  Uiso   1.00
O167   O     0.18936   0.50488   0.21857   0.00000  Uiso   1.00
O168   O     0.31065   0.49512   0.11476   0.00000  Uiso   1.00
O169   O     0.18090   0.49510   0.11477   0.00000  Uiso   1.00
O170   O     0.31910   0.50490   0.21857   0.00000  Uiso   1.00
C171   C     0.44750   0.35266   0.09019   0.00000  Uiso   1.00
O172   O     0.41615   0.33872   0.11604   0.00000  Uiso   1.00
O173   O     0.46241   0.65114   0.03938   0.00000  Uiso   1.00
H174   H     0.44396   0.61623   0.02766   0.00000  Uiso   1.00
C175   C     0.05228   0.64515   0.24854   0.00000  Uiso   1.00
O176   O     0.06175   0.34080   0.21460   0.00000  Uiso   1.00
O177   O     0.06217   0.66157   0.31210   0.00000  Uiso   1.00
H178   H     0.07740   0.36508   0.32468   0.00000  Uiso   1.00
C179   C     0.20700   0.64900   0.07905   0.00000  Uiso   1.00
C180   C     0.16350   0.34044   0.06367   0.00000  Uiso   1.00
H181   H     0.13968   0.33785   0.09878   0.00000  Uiso   1.00
H182   H     0.16922   0.38234   0.06138   0.00000  Uiso   1.00
H183   H     0.14797   0.65126   0.01831   0.00000  Uiso   1.00
H184   H     0.23100   0.64988   0.04392   0.00000  Uiso   1.00
H185   H     0.19574   0.60735   0.07550   0.00000  Uiso   1.00
C186   C     0.21564   0.34706   0.25232   0.00000  Uiso   1.00
C187   C     0.16936   0.36878   0.24412   0.00000  Uiso   1.00
H188   H     0.17029   0.40119   0.21928   0.00000  Uiso   1.00
H189   H     0.14575   0.33649   0.21749   0.00000  Uiso   1.00
H190   H     0.15665   0.38467   0.28944   0.00000  Uiso   1.00
H191   H     0.21133   0.65074   0.28031   0.00000  Uiso   1.00
H192   H     0.24032   0.37779   0.27958   0.00000  Uiso   1.00
C193   C     0.74314   0.39998   0.15132   0.00000  Uiso   1.00
C194   C     0.74478   0.59927   0.18213   0.00000  Uiso   1.00
C195   C     0.51840   0.40735   0.11440   0.00000  Uiso   1.00
C196   C     0.98128   0.59228   0.22171   0.00000  Uiso   1.00
C197   C     0.72944   0.34393   0.14221   0.00000  Uiso   1.00
C198   C     0.73212   0.65399   0.19060   0.00000  Uiso   1.00
C199   C     0.66453   0.50079   0.16762   0.00000  Uiso   1.00
C200   C     0.83539   0.49974   0.16583   0.00000  Uiso   1.00
C201   C     0.90920   0.54525   0.19403   0.00000  Uiso   1.00
C202   C     0.59046   0.45510   0.14079   0.00000  Uiso   1.00
C203   C     0.88340   0.49976   0.16448   0.00000  Uiso   1.00
C204   C     0.61636   0.50090   0.16929   0.00000  Uiso   1.00
C205   C     0.90327   0.45376   0.13652   0.00000  Uiso   1.00
C206   C     0.59633   0.54680   0.19757   0.00000  Uiso   1.00
C207   C     0.95014   0.45200   0.13958   0.00000  Uiso   1.00
C208   C     0.54946   0.54749   0.19658   0.00000  Uiso   1.00
C209   C     0.97636   0.49924   0.16765   0.00000  Uiso   1.00
C210   C     0.52328   0.50026   0.16858   0.00000  Uiso   1.00
C211   C     0.95560   0.54572   0.19472   0.00000  Uiso   1.00
C212   C     0.54405   0.45412   0.14096   0.00000  Uiso   1.00
C213   C     0.97169   0.40514   0.11453   0.00000  Uiso   1.00
C214   C     0.52787   0.59380   0.22247   0.00000  Uiso   1.00
Cu215  Cu    0.75501   0.50579   0.22813   0.00000  Uiso   1.00
Cu216  Cu    0.74500   0.49421   0.10521   0.00000  Uiso   1.00
H217   H     0.89294   0.58050   0.21557   0.00000  Uiso   1.00
H218   H     0.60662   0.42004   0.11915   0.00000  Uiso   1.00
H219   H     0.88162   0.41988   0.11306   0.00000  Uiso   1.00
H220   H     0.61746   0.58175   0.21927   0.00000  Uiso   1.00
H221   H     0.53511   0.37182   0.09516   0.00000  Uiso   1.00
H222   H     0.96490   0.62798   0.24142   0.00000  Uiso   1.00
H223   H     0.71265   0.46250   0.31698   0.00000  Uiso   1.00
H224   H     0.78647   0.53891   0.01673   0.00000  Uiso   1.00
N225   N     0.73745   0.48547   0.01284   0.00000  Uiso   1.00
N226   N     0.76256   0.51453   0.32049   0.00000  Uiso   1.00
O227   O     0.75326   0.42871   0.20659   0.00000  Uiso   1.00
O228   O     0.74675   0.57129   0.12674   0.00000  Uiso   1.00
O229   O     0.74480   0.41892   0.10279   0.00000  Uiso   1.00
O230   O     0.75520   0.58108   0.23055   0.00000  Uiso   1.00
O231   O     0.68936   0.50488   0.21857   0.00000  Uiso   1.00
O232   O     0.81065   0.49512   0.11476   0.00000  Uiso   1.00
O233   O     0.68090   0.49510   0.11477   0.00000  Uiso   1.00
O234   O     0.81910   0.50490   0.21857   0.00000  Uiso   1.00
C235   C     0.94750   0.35266   0.09019   0.00000  Uiso   1.00
O236   O     0.91615   0.33872   0.11604   0.00000  Uiso   1.00
O237   O     0.96241   0.65114   0.03938   0.00000  Uiso   1.00
H238   H     0.94396   0.61623   0.02766   0.00000  Uiso   1.00
C239   C     0.55228   0.64515   0.24854   0.00000  Uiso   1.00
O240   O     0.56175   0.34080   0.21460   0.00000  Uiso   1.00
O241   O     0.56217   0.66157   0.31210   0.00000  Uiso   1.00
H242   H     0.57740   0.36508   0.32468   0.00000  Uiso   1.00
C243   C     0.70700   0.64900   0.07905   0.00000  Uiso   1.00
C244   C     0.66350   0.34044   0.06367   0.00000  Uiso   1.00
H245   H     0.63968   0.33785   0.09878   0.00000  Uiso   1.00
H246   H     0.66922   0.38234   0.06138   0.00000  Uiso   1.00
H247   H     0.64797   0.65126   0.01831   0.00000  Uiso   1.00
H248   H     0.73100   0.64988   0.04392   0.00000  Uiso   1.00
H249   H     0.69574   0.60735   0.07550   0.00000  Uiso   1.00
C250   C     0.71564   0.34706   0.25232   0.00000  Uiso   1.00
C251   C     0.66936   0.36878   0.24412   0.00000  Uiso   1.00
H252   H     0.67029   0.40119   0.21928   0.00000  Uiso   1.00
H253   H     0.64575   0.33649   0.21749   0.00000  Uiso   1.00
H254   H     0.65665   0.38467   0.28944   0.00000  Uiso   1.00
H255   H     0.71133   0.65074   0.28031   0.00000  Uiso   1.00
H256   H     0.74032   0.37779   0.27958   0.00000  Uiso   1.00
C257   C     0.24314   0.73331   0.15132   0.00000  Uiso   1.00
C258   C     0.24478   0.93260   0.18213   0.00000  Uiso   1.00
C259   C     0.01840   0.74069   0.11440   0.00000  Uiso   1.00
C260   C     0.48128   0.92561   0.22171   0.00000  Uiso   1.00
C261   C     0.22944   0.67726   0.14221   0.00000  Uiso   1.00
C262   C     0.23212   0.98732   0.19060   0.00000  Uiso   1.00
C263   C     0.16453   0.83413   0.16762   0.00000  Uiso   1.00
C264   C     0.33539   0.83308   0.16583   0.00000  Uiso   1.00
C265   C     0.40920   0.87858   0.19403   0.00000  Uiso   1.00
C266   C     0.09046   0.78843   0.14079   0.00000  Uiso   1.00
C267   C     0.38340   0.83309   0.16448   0.00000  Uiso   1.00
C268   C     0.11636   0.83423   0.16929   0.00000  Uiso   1.00
C269   C     0.40327   0.78710   0.13652   0.00000  Uiso   1.00
C270   C     0.09633   0.88013   0.19757   0.00000  Uiso   1.00
C271   C     0.45014   0.78533   0.13958   0.00000  Uiso   1.00
C272   C     0.04946   0.88083   0.19658   0.00000  Uiso   1.00
C273   C     0.47636   0.83258   0.16765   0.00000  Uiso   1.00
C274   C     0.02328   0.83360   0.16858   0.00000  Uiso   1.00
C275   C     0.45560   0.87905   0.19472   0.00000  Uiso   1.00
C276   C     0.04405   0.78745   0.14096   0.00000  Uiso   1.00
C277   C     0.47169   0.73847   0.11453   0.00000  Uiso   1.00
C278   C     0.02787   0.92713   0.22247   0.00000  Uiso   1.00
Cu279  Cu    0.25501   0.83913   0.22813   0.00000  Uiso   1.00
Cu280  Cu    0.24500   0.82754   0.10521   0.00000  Uiso   1.00
H281   H     0.39294   0.91383   0.21557   0.00000  Uiso   1.00
H282   H     0.10662   0.75338   0.11915   0.00000  Uiso   1.00
H283   H     0.38162   0.75321   0.11306   0.00000  Uiso   1.00
H284   H     0.11746   0.91508   0.21927   0.00000  Uiso   1.00
H285   H     0.03511   0.70515   0.09516   0.00000  Uiso   1.00
H286   H     0.46490   0.96131   0.24142   0.00000  Uiso   1.00
H287   H     0.21265   0.79584   0.31698   0.00000  Uiso   1.00
H288   H     0.28647   0.87224   0.01673   0.00000  Uiso   1.00
N289   N     0.23745   0.81881   0.01284   0.00000  Uiso   1.00
N290   N     0.26256   0.84786   0.32049   0.00000  Uiso   1.00
O291   O     0.25326   0.76204   0.20659   0.00000  Uiso   1.00
O292   O     0.24675   0.90462   0.12674   0.00000  Uiso   1.00
O293   O     0.24480   0.75226   0.10279   0.00000  Uiso   1.00
O294   O     0.25520   0.91441   0.23055   0.00000  Uiso   1.00
O295   O     0.18936   0.83821   0.21857   0.00000  Uiso   1.00
O296   O     0.31065   0.82845   0.11476   0.00000  Uiso   1.00
O297   O     0.18090   0.82843   0.11477   0.00000  Uiso   1.00
O298   O     0.31910   0.83824   0.21857   0.00000  Uiso   1.00
C299   C     0.44750   0.68599   0.09019   0.00000  Uiso   1.00
O300   O     0.41615   0.67205   0.11604   0.00000  Uiso   1.00
O301   O     0.46241   0.98448   0.03938   0.00000  Uiso   1.00
H302   H     0.44396   0.94956   0.02766   0.00000  Uiso   1.00
C303   C     0.05228   0.97848   0.24854   0.00000  Uiso   1.00
O304   O     0.06175   0.67413   0.21460   0.00000  Uiso   1.00
O305   O     0.06217   0.99490   0.31210   0.00000  Uiso   1.00
H306   H     0.07740   0.69841   0.32468   0.00000  Uiso   1.00
C307   C     0.20700   0.98234   0.07905   0.00000  Uiso   1.00
C308   C     0.16350   0.67378   0.06367   0.00000  Uiso   1.00
H309   H     0.13968   0.67119   0.09878   0.00000  Uiso   1.00
H310   H     0.16922   0.71567   0.06138   0.00000  Uiso   1.00
H311   H     0.14797   0.98459   0.01831   0.00000  Uiso   1.00
H312   H     0.23100   0.98321   0.04392   0.00000  Uiso   1.00
H313   H     0.19574   0.94069   0.07550   0.00000  Uiso   1.00
C314   C     0.21564   0.68039   0.25232   0.00000  Uiso   1.00
C315   C     0.16936   0.70212   0.24412   0.00000  Uiso   1.00
H316   H     0.17029   0.73452   0.21928   0.00000  Uiso   1.00
H317   H     0.14575   0.66983   0.21749   0.00000  Uiso   1.00
H318   H     0.15665   0.71801   0.28944   0.00000  Uiso   1.00
H319   H     0.21133   0.98407   0.28031   0.00000  Uiso   1.00
H320   H     0.24032   0.71113   0.27958   0.00000  Uiso   1.00
C321   C     0.74314   0.73331   0.15132   0.00000  Uiso   1.00
C322   C     0.74478   0.93260   0.18213   0.00000  Uiso   1.00
C323   C     0.51840   0.74069   0.11440   0.00000  Uiso   1.00
C324   C     0.98128   0.92561   0.22171   0.00000  Uiso   1.00
C325   C     0.72944   0.67726   0.14221   0.00000  Uiso   1.00
C326   C     0.73212   0.98732   0.19060   0.00000  Uiso   1.00
C327   C     0.66453   0.83413   0.16762   0.00000  Uiso   1.00
C328   C     0.83539   0.83308   0.16583   0.00000  Uiso   1.00
C329   C     0.90920   0.87858   0.19403   0.00000  Uiso   1.00
C330   C     0.59046   0.78843   0.14079   0.00000  Uiso   1.00
C331   C     0.88340   0.83309   0.16448   0.00000  Uiso   1.00
C332   C     0.61636   0.83423   0.16929   0.00000  Uiso   1.00
C333   C     0.90327   0.78710   0.13652   0.00000  Uiso   1.00
C334   C     0.59633   0.88013   0.19757   0.00000  Uiso   1.00
C335   C     0.95014   0.78533   0.13958   0.00000  Uiso   1.00
C336   C     0.54946   0.88083   0.19658   0.00000  Uiso   1.00
C337   C     0.97636   0.83258   0.16765   0.00000  Uiso   1.00
C338   C     0.52328   0.83360   0.16858   0.00000  Uiso   1.00
C339   C     0.95560   0.87905   0.19472   0.00000  Uiso   1.00
C340   C     0.54405   0.78745   0.14096   0.00000  Uiso   1.00
C341   C     0.97169   0.73847   0.11453   0.00000  Uiso   1.00
C342   C     0.52787   0.92713   0.22247   0.00000  Uiso   1.00
Cu343  Cu    0.75501   0.83913   0.22813   0.00000  Uiso   1.00
Cu344  Cu    0.74500   0.82754   0.10521   0.00000  Uiso   1.00
H345   H     0.89294   0.91383   0.21557   0.00000  Uiso   1.00
H346   H     0.60662   0.75338   0.11915   0.00000  Uiso   1.00
H347   H     0.88162   0.75321   0.11306   0.00000  Uiso   1.00
H348   H     0.61746   0.91508   0.21927   0.00000  Uiso   1.00
H349   H     0.53511   0.70515   0.09516   0.00000  Uiso   1.00
H350   H     0.96490   0.96131   0.24142   0.00000  Uiso   1.00
H351   H     0.71265   0.79584   0.31698   0.00000  Uiso   1.00
H352   H     0.78647   0.87224   0.01673   0.00000  Uiso   1.00
N353   N     0.73745   0.81881   0.01284   0.00000  Uiso   1.00
N354   N     0.76256   0.84786   0.32049   0.00000  Uiso   1.00
O355   O     0.75326   0.76204   0.20659   0.00000  Uiso   1.00
O356   O     0.74675   0.90462   0.12674   0.00000  Uiso   1.00
O357   O     0.74480   0.75226   0.10279   0.00000  Uiso   1.00
O358   O     0.75520   0.91441   0.23055   0.00000  Uiso   1.00
O359   O     0.68936   0.83821   0.21857   0.00000  Uiso   1.00
O360   O     0.81065   0.82845   0.11476   0.00000  Uiso   1.00
O361   O     0.68090   0.82843   0.11477   0.00000  Uiso   1.00
O362   O     0.81910   0.83824   0.21857   0.00000  Uiso   1.00
C363   C     0.94750   0.68599   0.09019   0.00000  Uiso   1.00
O364   O     0.91615   0.67205   0.11604   0.00000  Uiso   1.00
O365   O     0.96241   0.98448   0.03938   0.00000  Uiso   1.00
H366   H     0.94396   0.94956   0.02766   0.00000  Uiso   1.00
C367   C     0.55228   0.97848   0.24854   0.00000  Uiso   1.00
O368   O     0.56175   0.67413   0.21460   0.00000  Uiso   1.00
O369   O     0.56217   0.99490   0.31210   0.00000  Uiso   1.00
H370   H     0.57740   0.69841   0.32468   0.00000  Uiso   1.00
C371   C     0.70700   0.98234   0.07905   0.00000  Uiso   1.00
C372   C     0.66350   0.67378   0.06367   0.00000  Uiso   1.00
H373   H     0.63968   0.67119   0.09878   0.00000  Uiso   1.00
H374   H     0.66922   0.71567   0.06138   0.00000  Uiso   1.00
H375   H     0.64797   0.98459   0.01831   0.00000  Uiso   1.00
H376   H     0.73100   0.98321   0.04392   0.00000  Uiso   1.00
H377   H     0.69574   0.94069   0.07550   0.00000  Uiso   1.00
C378   C     0.71564   0.68039   0.25232   0.00000  Uiso   1.00
C379   C     0.66936   0.70212   0.24412   0.00000  Uiso   1.00
H380   H     0.67029   0.73452   0.21928   0.00000  Uiso   1.00
H381   H     0.64575   0.66983   0.21749   0.00000  Uiso   1.00
H382   H     0.65665   0.71801   0.28944   0.00000  Uiso   1.00
H383   H     0.71133   0.98407   0.28031   0.00000  Uiso   1.00
H384   H     0.74032   0.71113   0.27958   0.00000  Uiso   1.00
C385   C     0.24314   0.06665   0.48465   0.00000  Uiso   1.00
C386   C     0.24478   0.26594   0.51546   0.00000  Uiso   1.00
C387   C     0.01840   0.07402   0.44774   0.00000  Uiso   1.00
C388   C     0.48128   0.25894   0.55505   0.00000  Uiso   1.00
C389   C     0.22944   0.01059   0.47554   0.00000  Uiso   1.00
C390   C     0.23212   0.32065   0.52393   0.00000  Uiso   1.00
C391   C     0.16453   0.16746   0.50095   0.00000  Uiso   1.00
C392   C     0.33539   0.16641   0.49916   0.00000  Uiso   1.00
C393   C     0.40920   0.21192   0.52736   0.00000  Uiso   1.00
C394   C     0.09046   0.12176   0.47413   0.00000  Uiso   1.00
C395   C     0.38340   0.16642   0.49782   0.00000  Uiso   1.00
C396   C     0.11636   0.16756   0.50263   0.00000  Uiso   1.00
C397   C     0.40327   0.12043   0.46985   0.00000  Uiso   1.00
C398   C     0.09633   0.21346   0.53090   0.00000  Uiso   1.00
C399   C     0.45014   0.11867   0.47291   0.00000  Uiso   1.00
C400   C     0.04946   0.21416   0.52991   0.00000  Uiso   1.00
C401   C     0.47636   0.16591   0.50099   0.00000  Uiso   1.00
C402   C     0.02328   0.16693   0.50191   0.00000  Uiso   1.00
C403   C     0.45560   0.21239   0.52805   0.00000  Uiso   1.00
C404   C     0.04405   0.12079   0.47429   0.00000  Uiso   1.00
C405   C     0.47169   0.07181   0.44787   0.00000  Uiso   1.00
C406   C     0.02787   0.26046   0.55580   0.00000  Uiso   1.00
Cu407  Cu    0.25501   0.17246   0.56146   0.00000  Uiso   1.00
Cu408  Cu    0.24500   0.16087   0.43854   0.00000  Uiso   1.00
H409   H     0.39294   0.24716   0.54890   0.00000  Uiso   1.00
H410   H     0.10662   0.08671   0.45248   0.00000  Uiso   1.00
H411   H     0.38162   0.08654   0.44639   0.00000  Uiso   1.00
H412   H     0.11746   0.24842   0.55260   0.00000  Uiso   1.00
H413   H     0.03511   0.03848   0.42849   0.00000  Uiso   1.00
H414   H     0.46490   0.29465   0.57475   0.00000  Uiso   1.00
H415   H     0.21265   0.12917   0.65032   0.00000  Uiso   1.00
H416   H     0.28647   0.20557   0.35006   0.00000  Uiso   1.00
N417   N     0.23745   0.15214   0.34617   0.00000  Uiso   1.00
N418   N     0.26256   0.18119   0.65383   0.00000  Uiso   1.00
O419   O     0.25326   0.09538   0.53992   0.00000  Uiso   1.00
O420   O     0.24675   0.23796   0.46008   0.00000  Uiso   1.00
O421   O     0.24480   0.08559   0.43612   0.00000  Uiso   1.00
O422   O     0.25520   0.24774   0.56388   0.00000  Uiso   1.00
O423   O     0.18936   0.17155   0.55191   0.00000  Uiso   1.00
O424   O     0.31065   0.16179   0.44809   0.00000  Uiso   1.00
O425   O     0.18090   0.16176   0.44810   0.00000  Uiso   1.00
O426   O     0.31910   0.17157   0.55190   0.00000  Uiso   1.00
C427   C     0.44750   0.01933   0.42352   0.00000  Uiso   1.00
O428   O     0.41615   0.00538   0.44938   0.00000  Uiso   1.00
O429   O     0.46241   0.31781   0.37271   0.00000  Uiso   1.00
H430   H     0.44396   0.28290   0.36099   0.00000  Uiso   1.00
C431   C     0.05228   0.31181   0.58187   0.00000  Uiso   1.00
O432   O     0.06175   0.00747   0.54793   0.00000  Uiso   1.00
O433   O     0.06217   0.32823   0.64543   0.00000  Uiso   1.00
H434   H     0.07740   0.03174   0.65801   0.00000  Uiso   1.00
C435   C     0.20700   0.31567   0.41239   0.00000  Uiso   1.00
C436   C     0.16350   0.00711   0.39700   0.00000  Uiso   1.00
H437   H     0.13968   0.00452   0.43211   0.00000  Uiso   1.00
H438   H     0.16922   0.04900   0.39472   0.00000  Uiso   1.00
H439   H     0.14797   0.31792   0.35165   0.00000  Uiso   1.00
H440   H     0.23100   0.31655   0.37725   0.00000  Uiso   1.00
H441   H     0.19574   0.27402   0.40883   0.00000  Uiso   1.00
C442   C     0.21564   0.01372   0.58565   0.00000  Uiso   1.00
C443   C     0.16936   0.03545   0.57745   0.00000  Uiso   1.00
H444   H     0.17029   0.06785   0.55261   0.00000  Uiso   1.00
H445   H     0.14575   0.00316   0.55082   0.00000  Uiso   1.00
H446   H     0.15665   0.05134   0.62278   0.00000  Uiso   1.00
H447   H     0.21133   0.31741   0.61365   0.00000  Uiso   1.00
H448   H     0.24032   0.04446   0.61291   0.00000  Uiso   1.00
C449   C     0.74314   0.06665   0.48465   0.00000  Uiso   1.00
C450   C     0.74478   0.26594   0.51546   0.00000  Uiso   1.00
C451   C     0.51840   0.07402   0.44774   0.00000  Uiso   1.00
C452   C     0.98128   0.25894   0.55505   0.00000  Uiso   1.00
C453   C     0.72944   0.01059   0.47554   0.00000  Uiso   1.00
C454   C     0.73212   0.32065   0.52393   0.00000  Uiso   1.00
C455   C     0.66453   0.16746   0.50095   0.00000  Uiso   1.00
C456   C     0.83539   0.16641   0.49916   0.00000  Uiso   1.00
C457   C     0.90920   0.21192   0.52736   0.00000  Uiso   1.00
C458   C     0.59046   0.12176   0.47413   0.00000  Uiso   1.00
C459   C     0.88340   0.16642   0.49782   0.00000  Uiso   1.00
C460   C     0.61636   0.16756   0.50263   0.00000  Uiso   1.00
C461   C     0.90327   0.12043   0.46985   0.00000  Uiso   1.00
C462   C     0.59633   0.21346   0.53090   0.00000  Uiso   1.00
C463   C     0.95014   0.11867   0.47291   0.00000  Uiso   1.00
C464   C     0.54946   0.21416   0.52991   0.00000  Uiso   1.00
C465   C     0.97636   0.16591   0.50099   0.00000  Uiso   1.00
C466   C     0.52328   0.16693   0.50191   0.00000  Uiso   1.00
C467   C     0.95560   0.21239   0.52805   0.00000  Uiso   1.00
C468   C     0.54405   0.12079   0.47429   0.00000  Uiso   1.00
C469   C     0.97169   0.07181   0.44787   0.00000  Uiso   1.00
C470   C     0.52787   0.26046   0.55580   0.00000  Uiso   1.00
Cu471  Cu    0.75501   0.17246   0.56146   0.00000  Uiso   1.00
Cu472  Cu    0.74500   0.16087   0.43854   0.00000  Uiso   1.00
H473   H     0.89294   0.24716   0.54890   0.00000  Uiso   1.00
H474   H     0.60662   0.08671   0.45248   0.00000  Uiso   1.00
H475   H     0.88162   0.08654   0.44639   0.00000  Uiso   1.00
H476   H     0.61746   0.24842   0.55260   0.00000  Uiso   1.00
H477   H     0.53511   0.03848   0.42849   0.00000  Uiso   1.00
H478   H     0.96490   0.29465   0.57475   0.00000  Uiso   1.00
H479   H     0.71265   0.12917   0.65032   0.00000  Uiso   1.00
H480   H     0.78647   0.20557   0.35006   0.00000  Uiso   1.00
N481   N     0.73745   0.15214   0.34617   0.00000  Uiso   1.00
N482   N     0.76256   0.18119   0.65383   0.00000  Uiso   1.00
O483   O     0.75326   0.09538   0.53992   0.00000  Uiso   1.00
O484   O     0.74675   0.23796   0.46008   0.00000  Uiso   1.00
O485   O     0.74480   0.08559   0.43612   0.00000  Uiso   1.00
O486   O     0.75520   0.24774   0.56388   0.00000  Uiso   1.00
O487   O     0.68936   0.17155   0.55191   0.00000  Uiso   1.00
O488   O     0.81065   0.16179   0.44809   0.00000  Uiso   1.00
O489   O     0.68090   0.16176   0.44810   0.00000  Uiso   1.00
O490   O     0.81910   0.17157   0.55190   0.00000  Uiso   1.00
C491   C     0.94750   0.01933   0.42352   0.00000  Uiso   1.00
O492   O     0.91615   0.00538   0.44938   0.00000  Uiso   1.00
O493   O     0.96241   0.31781   0.37271   0.00000  Uiso   1.00
H494   H     0.94396   0.28290   0.36099   0.00000  Uiso   1.00
C495   C     0.55228   0.31181   0.58187   0.00000  Uiso   1.00
O496   O     0.56175   0.00747   0.54793   0.00000  Uiso   1.00
O497   O     0.56217   0.32823   0.64543   0.00000  Uiso   1.00
H498   H     0.57740   0.03174   0.65801   0.00000  Uiso   1.00
C499   C     0.70700   0.31567   0.41239   0.00000  Uiso   1.00
C500   C     0.66350   0.00711   0.39700   0.00000  Uiso   1.00
H501   H     0.63968   0.00452   0.43211   0.00000  Uiso   1.00
H502   H     0.66922   0.04900   0.39472   0.00000  Uiso   1.00
H503   H     0.64797   0.31792   0.35165   0.00000  Uiso   1.00
H504   H     0.73100   0.31655   0.37725   0.00000  Uiso   1.00
H505   H     0.69574   0.27402   0.40883   0.00000  Uiso   1.00
C506   C     0.71564   0.01372   0.58565   0.00000  Uiso   1.00
C507   C     0.66936   0.03545   0.57745   0.00000  Uiso   1.00
H508   H     0.67029   0.06785   0.55261   0.00000  Uiso   1.00
H509   H     0.64575   0.00316   0.55082   0.00000  Uiso   1.00
H510   H     0.65665   0.05134   0.62278   0.00000  Uiso   1.00
H511   H     0.71133   0.31741   0.61365   0.00000  Uiso   1.00
H512   H     0.74032   0.04446   0.61291   0.00000  Uiso   1.00
C513   C     0.24314   0.39998   0.48465   0.00000  Uiso   1.00
C514   C     0.24478   0.59927   0.51546   0.00000  Uiso   1.00
C515   C     0.01840   0.40735   0.44774   0.00000  Uiso   1.00
C516   C     0.48128   0.59228   0.55505   0.00000  Uiso   1.00
C517   C     0.22944   0.34393   0.47554   0.00000  Uiso   1.00
C518   C     0.23212   0.65399   0.52393   0.00000  Uiso   1.00
C519   C     0.16453   0.50079   0.50095   0.00000  Uiso   1.00
C520   C     0.33539   0.49974   0.49916   0.00000  Uiso   1.00
C521   C     0.40920   0.54525   0.52736   0.00000  Uiso   1.00
C522   C     0.09046   0.45510   0.47413   0.00000  Uiso   1.00
C523   C     0.38340   0.49976   0.49782   0.00000  Uiso   1.00
C524   C     0.11636   0.50090   0.50263   0.00000  Uiso   1.00
C525   C     0.40327   0.45376   0.46985   0.00000  Uiso   1.00
C526   C     0.09633   0.54680   0.53090   0.00000  Uiso   1.00
C527   C     0.45014   0.45200   0.47291   0.00000  Uiso   1.00
C528   C     0.04946   0.54749   0.52991   0.00000  Uiso   1.00
C529   C     0.47636   0.49924   0.50099   0.00000  Uiso   1.00
C530   C     0.02328   0.50026   0.50191   0.00000  Uiso   1.00
C531   C     0.45560   0.54572   0.52805   0.00000  Uiso   1.00
C532   C     0.04405   0.45412   0.47429   0.00000  Uiso   1.00
C533   C     0.47169   0.40514   0.44787   0.00000  Uiso   1.00
C534   C     0.02787   0.59380   0.55580   0.00000  Uiso   1.00
Cu535  Cu    0.25501   0.50579   0.56146   0.00000  Uiso   1.00
Cu536  Cu    0.24500   0.49421   0.43854   0.00000  Uiso   1.00
H537   H     0.39294   0.58050   0.54890   0.00000  Uiso   1.00
H538   H     0.10662   0.42004   0.45248   0.00000  Uiso   1.00
H539   H     0.38162   0.41988   0.44639   0.00000  Uiso   1.00
H540   H     0.11746   0.58175   0.55260   0.00000  Uiso   1.00
H541   H     0.03511   0.37182   0.42849   0.00000  Uiso   1.00
H542   H     0.46490   0.62798   0.57475   0.00000  Uiso   1.00
H543   H     0.21265   0.46250   0.65032   0.00000  Uiso   1.00
H544   H     0.28647   0.53891   0.35006   0.00000  Uiso   1.00
N545   N     0.23745   0.48547   0.34617   0.00000  Uiso   1.00
N546   N     0.26256   0.51453   0.65383   0.00000  Uiso   1.00
O547   O     0.25326   0.42871   0.53992   0.00000  Uiso   1.00
O548   O     0.24675   0.57129   0.46008   0.00000  Uiso   1.00
O549   O     0.24480   0.41892   0.43612   0.00000  Uiso   1.00
O550   O     0.25520   0.58108   0.56388   0.00000  Uiso   1.00
O551   O     0.18936   0.50488   0.55191   0.00000  Uiso   1.00
O552   O     0.31065   0.49512   0.44809   0.00000  Uiso   1.00
O553   O     0.18090   0.49510   0.44810   0.00000  Uiso   1.00
O554   O     0.31910   0.50490   0.55190   0.00000  Uiso   1.00
C555   C     0.44750   0.35266   0.42352   0.00000  Uiso   1.00
O556   O     0.41615   0.33872   0.44938   0.00000  Uiso   1.00
O557   O     0.46241   0.65114   0.37271   0.00000  Uiso   1.00
H558   H     0.44396   0.61623   0.36099   0.00000  Uiso   1.00
C559   C     0.05228   0.64515   0.58187   0.00000  Uiso   1.00
O560   O     0.06175   0.34080   0.54793   0.00000  Uiso   1.00
O561   O     0.06217   0.66157   0.64543   0.00000  Uiso   1.00
H562   H     0.07740   0.36508   0.65801   0.00000  Uiso   1.00
C563   C     0.20700   0.64900   0.41239   0.00000  Uiso   1.00
C564   C     0.16350   0.34044   0.39700   0.00000  Uiso   1.00
H565   H     0.13968   0.33785   0.43211   0.00000  Uiso   1.00
H566   H     0.16922   0.38234   0.39472   0.00000  Uiso   1.00
H567   H     0.14797   0.65126   0.35165   0.00000  Uiso   1.00
H568   H     0.23100   0.64988   0.37725   0.00000  Uiso   1.00
H569   H     0.19574   0.60735   0.40883   0.00000  Uiso   1.00
C570   C     0.21564   0.34706   0.58565   0.00000  Uiso   1.00
C571   C     0.16936   0.36878   0.57745   0.00000  Uiso   1.00
H572   H     0.17029   0.40119   0.55261   0.00000  Uiso   1.00
H573   H     0.14575   0.33649   0.55082   0.00000  Uiso   1.00
H574   H     0.15665   0.38467   0.62278   0.00000  Uiso   1.00
H575   H     0.21133   0.65074   0.61365   0.00000  Uiso   1.00
H576   H     0.24032   0.37779   0.61291   0.00000  Uiso   1.00
C577   C     0.74314   0.39998   0.48465   0.00000  Uiso   1.00
C578   C     0.74478   0.59927   0.51546   0.00000  Uiso   1.00
C579   C     0.51840   0.40735   0.44774   0.00000  Uiso   1.00
C580   C     0.98128   0.59228   0.55505   0.00000  Uiso   1.00
C581   C     0.72944   0.34393   0.47554   0.00000  Uiso   1.00
C582   C     0.73212   0.65399   0.52393   0.00000  Uiso   1.00
C583   C     0.66453   0.50079   0.50095   0.00000  Uiso   1.00
C584   C     0.83539   0.49974   0.49916   0.00000  Uiso   1.00
C585   C     0.90920   0.54525   0.52736   0.00000  Uiso   1.00
C586   C     0.59046   0.45510   0.47413   0.00000  Uiso   1.00
C587   C     0.88340   0.49976   0.49782   0.00000  Uiso   1.00
C588   C     0.61636   0.50090   0.50263   0.00000  Uiso   1.00
C589   C     0.90327   0.45376   0.46985   0.00000  Uiso   1.00
C590   C     0.59633   0.54680   0.53090   0.00000  Uiso   1.00
C591   C     0.95014   0.45200   0.47291   0.00000  Uiso   1.00
C592   C     0.54946   0.54749   0.52991   0.00000  Uiso   1.00
C593   C     0.97636   0.49924   0.50099   0.00000  Uiso   1.00
C594   C     0.52328   0.50026   0.50191   0.00000  Uiso   1.00
C595   C     0.95560   0.54572   0.52805   0.00000  Uiso   1.00
C596   C     0.54405   0.45412   0.47429   0.00000  Uiso   1.00
C597   C     0.97169   0.40514   0.44787   0.00000  Uiso   1.00
C598   C     0.52787   0.59380   0.55580   0.00000  Uiso   1.00
Cu599  Cu    0.75501   0.50579   0.56146   0.00000  Uiso   1.00
Cu600  Cu    0.74500   0.49421   0.43854   0.00000  Uiso   1.00
H601   H     0.89294   0.58050   0.54890   0.00000  Uiso   1.00
H602   H     0.60662   0.42004   0.45248   0.00000  Uiso   1.00
H603   H     0.88162   0.41988   0.44639   0.00000  Uiso   1.00
H604   H     0.61746   0.58175   0.55260   0.00000  Uiso   1.00
H605   H     0.53511   0.37182   0.42849   0.00000  Uiso   1.00
H606   H     0.96490   0.62798   0.57475   0.00000  Uiso   1.00
H607   H     0.71265   0.46250   0.65032   0.00000  Uiso   1.00
H608   H     0.78647   0.53891   0.35006   0.00000  Uiso   1.00
N609   N     0.73745   0.48547   0.34617   0.00000  Uiso   1.00
N610   N     0.76256   0.51453   0.65383   0.00000  Uiso   1.00
O611   O     0.75326   0.42871   0.53992   0.00000  Uiso   1.00
O612   O     0.74675   0.57129   0.46008   0.00000  Uiso   1.00
O613   O     0.74480   0.41892   0.43612   0.00000  Uiso   1.00
O614   O     0.75520   0.58108   0.56388   0.00000  Uiso   1.00
O615   O     0.68936   0.50488   0.55191   0.00000  Uiso   1.00
O616   O     0.81065   0.49512   0.44809   0.00000  Uiso   1.00
O617   O     0.68090   0.49510   0.44810   0.00000  Uiso   1.00
O618   O     0.81910   0.50490   0.55190   0.00000  Uiso   1.00
C619   C     0.94750   0.35266   0.42352   0.00000  Uiso   1.00
O620   O     0.91615   0.33872   0.44938   0.00000  Uiso   1.00
O621   O     0.96241   0.65114   0.37271   0.00000  Uiso   1.00
H622   H     0.94396   0.61623   0.36099   0.00000  Uiso   1.00
C623   C     0.55228   0.64515   0.58187   0.00000  Uiso   1.00
O624   O     0.56175   0.34080   0.54793   0.00000  Uiso   1.00
O625   O     0.56217   0.66157   0.64543   0.00000  Uiso   1.00
H626   H     0.57740   0.36508   0.65801   0.00000  Uiso   1.00
C627   C     0.70700   0.64900   0.41239   0.00000  Uiso   1.00
C628   C     0.66350   0.34044   0.39700   0.00000  Uiso   1.00
H629   H     0.63968   0.33785   0.43211   0.00000  Uiso   1.00
H630   H     0.66922   0.38234   0.39472   0.00000  Uiso   1.00
H631   H     0.64797   0.65126   0.35165   0.00000  Uiso   1.00
H632   H     0.73100   0.64988   0.37725   0.00000  Uiso   1.00
H633   H     0.69574   0.60735   0.40883   0.00000  Uiso   1.00
C634   C     0.71564   0.34706   0.58565   0.00000  Uiso   1.00
C635   C     0.66936   0.36878   0.57745   0.00000  Uiso   1.00
H636   H     0.67029   0.40119   0.55261   0.00000  Uiso   1.00
H637   H     0.64575   0.33649   0.55082   0.00000  Uiso   1.00
H638   H     0.65665   0.38467   0.62278   0.00000  Uiso   1.00
H639   H     0.71133   0.65074   0.61365   0.00000  Uiso   1.00
H640   H     0.74032   0.37779   0.61291   0.00000  Uiso   1.00
C641   C     0.24314   0.73331   0.48465   0.00000  Uiso   1.00
C642   C     0.24478   0.93260   0.51546   0.00000  Uiso   1.00
C643   C     0.01840   0.74069   0.44774   0.00000  Uiso   1.00
C644   C     0.48128   0.92561   0.55505   0.00000  Uiso   1.00
C645   C     0.22944   0.67726   0.47554   0.00000  Uiso   1.00
C646   C     0.23212   0.98732   0.52393   0.00000  Uiso   1.00
C647   C     0.16453   0.83413   0.50095   0.00000  Uiso   1.00
C648   C     0.33539   0.83308   0.49916   0.00000  Uiso   1.00
C649   C     0.40920   0.87858   0.52736   0.00000  Uiso   1.00
C650   C     0.09046   0.78843   0.47413   0.00000  Uiso   1.00
C651   C     0.38340   0.83309   0.49782   0.00000  Uiso   1.00
C652   C     0.11636   0.83423   0.50263   0.00000  Uiso   1.00
C653   C     0.40327   0.78710   0.46985   0.00000  Uiso   1.00
C654   C     0.09633   0.88013   0.53090   0.00000  Uiso   1.00
C655   C     0.45014   0.78533   0.47291   0.00000  Uiso   1.00
C656   C     0.04946   0.88083   0.52991   0.00000  Uiso   1.00
C657   C     0.47636   0.83258   0.50099   0.00000  Uiso   1.00
C658   C     0.02328   0.83360   0.50191   0.00000  Uiso   1.00
C659   C     0.45560   0.87905   0.52805   0.00000  Uiso   1.00
C660   C     0.04405   0.78745   0.47429   0.00000  Uiso   1.00
C661   C     0.47169   0.73847   0.44787   0.00000  Uiso   1.00
C662   C     0.02787   0.92713   0.55580   0.00000  Uiso   1.00
Cu663  Cu    0.25501   0.83913   0.56146   0.00000  Uiso   1.00
Cu664  Cu    0.24500   0.82754   0.43854   0.00000  Uiso   1.00
H665   H     0.39294   0.91383   0.54890   0.00000  Uiso   1.00
H666   H     0.10662   0.75338   0.45248   0.00000  Uiso   1.00
H667   H     0.38162   0.75321   0.44639   0.00000  Uiso   1.00
H668   H     0.11746   0.91508   0.55260   0.00000  Uiso   1.00
H669   H     0.03511   0.70515   0.42849   0.00000  Uiso   1.00
H670   H     0.46490   0.96131   0.57475   0.00000  Uiso   1.00
H671   H     0.21265   0.79584   0.65032   0.00000  Uiso   1.00
H672   H     0.28647   0.87224   0.35006   0.00000  Uiso   1.00
N673   N     0.23745   0.81881   0.34617   0.00000  Uiso   1.00
N674   N     0.26256   0.84786   0.65383   0.00000  Uiso   1.00
O675   O     0.25326   0.76204   0.53992   0.00000  Uiso   1.00
O676   O     0.24675   0.90462   0.46008   0.00000  Uiso   1.00
O677   O     0.24480   0.75226   0.43612   0.00000  Uiso   1.00
O678   O     0.25520   0.91441   0.56388   0.00000  Uiso   1.00
O679   O     0.18936   0.83821   0.55191   0.00000  Uiso   1.00
O680   O     0.31065   0.82845   0.44809   0.00000  Uiso   1.00
O681   O     0.18090   0.82843   0.44810   0.00000  Uiso   1.00
O682   O     0.31910   0.83824   0.55190   0.00000  Uiso   1.00
C683   C     0.44750   0.68599   0.42352   0.00000  Uiso   1.00
O684   O     0.41615   0.67205   0.44938   0.00000  Uiso   1.00
O685   O     0.46241   0.98448   0.37271   0.00000  Uiso   1.00
H686   H     0.44396   0.94956   0.36099   0.00000  Uiso   1.00
C687   C     0.05228   0.97848   0.58187   0.00000  Uiso   1.00
O688   O     0.06175   0.67413   0.54793   0.00000  Uiso   1.00
O689   O     0.06217   0.99490   0.64543   0.00000  Uiso   1.00
H690   H     0.07740   0.69841   0.65801   0.00000  Uiso   1.00
C691   C     0.20700   0.98234   0.41239   0.00000  Uiso   1.00
C692   C     0.16350   0.67378   0.39700   0.00000  Uiso   1.00
H693   H     0.13968   0.67119   0.43211   0.00000  Uiso   1.00
H694   H     0.16922   0.71567   0.39472   0.00000  Uiso   1.00
H695   H     0.14797   0.98459   0.35165   0.00000  Uiso   1.00
H696   H     0.23100   0.98321   0.37725   0.00000  Uiso   1.00
H697   H     0.19574   0.94069   0.40883   0.00000  Uiso   1.00
C698   C     0.21564   0.68039   0.58565   0.00000  Uiso   1.00
C699   C     0.16936   0.70212   0.57745   0.00000  Uiso   1.00
H700   H     0.17029   0.73452   0.55261   0.00000  Uiso   1.00
H701   H     0.14575   0.66983   0.55082   0.00000  Uiso   1.00
H702   H     0.15665   0.71801   0.62278   0.00000  Uiso   1.00
H703   H     0.21133   0.98407   0.61365   0.00000  Uiso   1.00
H704   H     0.24032   0.71113   0.61291   0.00000  Uiso   1.00
C705   C     0.74314   0.73331   0.48465   0.00000  Uiso   1.00
C706   C     0.74478   0.93260   0.51546   0.00000  Uiso   1.00
C707   C     0.51840   0.74069   0.44774   0.00000  Uiso   1.00
C708   C     0.98128   0.92561   0.55505   0.00000  Uiso   1.00
C709   C     0.72944   0.67726   0.47554   0.00000  Uiso   1.00
C710   C     0.73212   0.98732   0.52393   0.00000  Uiso   1.00
C711   C     0.66453   0.83413   0.50095   0.00000  Uiso   1.00
C712   C     0.83539   0.83308   0.49916   0.00000  Uiso   1.00
C713   C     0.90920   0.87858   0.52736   0.00000  Uiso   1.00
C714   C     0.59046   0.78843   0.47413   0.00000  Uiso   1.00
C715   C     0.88340   0.83309   0.49782   0.00000  Uiso   1.00
C716   C     0.61636   0.83423   0.50263   0.00000  Uiso   1.00
C717   C     0.90327   0.78710   0.46985   0.00000  Uiso   1.00
C718   C     0.59633   0.88013   0.53090   0.00000  Uiso   1.00
C719   C     0.95014   0.78533   0.47291   0.00000  Uiso   1.00
C720   C     0.54946   0.88083   0.52991   0.00000  Uiso   1.00
C721   C     0.97636   0.83258   0.50099   0.00000  Uiso   1.00
C722   C     0.52328   0.83360   0.50191   0.00000  Uiso   1.00
C723   C     0.95560   0.87905   0.52805   0.00000  Uiso   1.00
C724   C     0.54405   0.78745   0.47429   0.00000  Uiso   1.00
C725   C     0.97169   0.73847   0.44787   0.00000  Uiso   1.00
C726   C     0.52787   0.92713   0.55580   0.00000  Uiso   1.00
Cu727  Cu    0.75501   0.83913   0.56146   0.00000  Uiso   1.00
Cu728  Cu    0.74500   0.82754   0.43854   0.00000  Uiso   1.00
H729   H     0.89294   0.91383   0.54890   0.00000  Uiso   1.00
H730   H     0.60662   0.75338   0.45248   0.00000  Uiso   1.00
H731   H     0.88162   0.75321   0.44639   0.00000  Uiso   1.00
H732   H     0.61746   0.91508   0.55260   0.00000  Uiso   1.00
H733   H     0.53511   0.70515   0.42849   0.00000  Uiso   1.00
H734   H     0.96490   0.96131   0.57475   0.00000  Uiso   1.00
H735   H     0.71265   0.79584   0.65032   0.00000  Uiso   1.00
H736   H     0.78647   0.87224   0.35006   0.00000  Uiso   1.00
N737   N     0.73745   0.81881   0.34617   0.00000  Uiso   1.00
N738   N     0.76256   0.84786   0.65383   0.00000  Uiso   1.00
O739   O     0.75326   0.76204   0.53992   0.00000  Uiso   1.00
O740   O     0.74675   0.90462   0.46008   0.00000  Uiso   1.00
O741   O     0.74480   0.75226   0.43612   0.00000  Uiso   1.00
O742   O     0.75520   0.91441   0.56388   0.00000  Uiso   1.00
O743   O     0.68936   0.83821   0.55191   0.00000  Uiso   1.00
O744   O     0.81065   0.82845   0.44809   0.00000  Uiso   1.00
O745   O     0.68090   0.82843   0.44810   0.00000  Uiso   1.00
O746   O     0.81910   0.83824   0.55190   0.00000  Uiso   1.00
C747   C     0.94750   0.68599   0.42352   0.00000  Uiso   1.00
O748   O     0.91615   0.67205   0.44938   0.00000  Uiso   1.00
O749   O     0.96241   0.98448   0.37271   0.00000  Uiso   1.00
H750   H     0.94396   0.94956   0.36099   0.00000  Uiso   1.00
C751   C     0.55228   0.97848   0.58187   0.00000  Uiso   1.00
O752   O     0.56175   0.67413   0.54793   0.00000  Uiso   1.00
O753   O     0.56217   0.99490   0.64543   0.00000  Uiso   1.00
H754   H     0.57740   0.69841   0.65801   0.00000  Uiso   1.00
C755   C     0.70700   0.98234   0.41239   0.00000  Uiso   1.00
C756   C     0.66350   0.67378   0.39700   0.00000  Uiso   1.00
H757   H     0.63968   0.67119   0.43211   0.00000  Uiso   1.00
H758   H     0.66922   0.71567   0.39472   0.00000  Uiso   1.00
H759   H     0.64797   0.98459   0.35165   0.00000  Uiso   1.00
H760   H     0.73100   0.98321   0.37725   0.00000  Uiso   1.00
H761   H     0.69574   0.94069   0.40883   0.00000  Uiso   1.00
C762   C     0.71564   0.68039   0.58565   0.00000  Uiso   1.00
C763   C     0.66936   0.70212   0.57745   0.00000  Uiso   1.00
H764   H     0.67029   0.73452   0.55261   0.00000  Uiso   1.00
H765   H     0.64575   0.66983   0.55082   0.00000  Uiso   1.00
H766   H     0.65665   0.71801   0.62278   0.00000  Uiso   1.00
H767   H     0.71133   0.98407   0.61365   0.00000  Uiso   1.00
H768   H     0.74032   0.71113   0.61291   0.00000  Uiso   1.00
C769   C     0.24314   0.06665   0.81799   0.00000  Uiso   1.00
C770   C     0.24478   0.26594   0.84879   0.00000  Uiso   1.00
C771   C     0.01840   0.07402   0.78107   0.00000  Uiso   1.00
C772   C     0.48128   0.25894   0.88838   0.00000  Uiso   1.00
C773   C     0.22944   0.01059   0.80888   0.00000  Uiso   1.00
C774   C     0.23212   0.32065   0.85726   0.00000  Uiso   1.00
C775   C     0.16453   0.16746   0.83428   0.00000  Uiso   1.00
C776   C     0.33539   0.16641   0.83249   0.00000  Uiso   1.00
C777   C     0.40920   0.21192   0.86070   0.00000  Uiso   1.00
C778   C     0.09046   0.12176   0.80746   0.00000  Uiso   1.00
C779   C     0.38340   0.16642   0.83115   0.00000  Uiso   1.00
C780   C     0.11636   0.16756   0.83596   0.00000  Uiso   1.00
C781   C     0.40327   0.12043   0.80318   0.00000  Uiso   1.00
C782   C     0.09633   0.21346   0.86424   0.00000  Uiso   1.00
C783   C     0.45014   0.11867   0.80624   0.00000  Uiso   1.00
C784   C     0.04946   0.21416   0.86324   0.00000  Uiso   1.00
C785   C     0.47636   0.16591   0.83432   0.00000  Uiso   1.00
C786   C     0.02328   0.16693   0.83525   0.00000  Uiso   1.00
C787   C     0.45560   0.21239   0.86139   0.00000  Uiso   1.00
C788   C     0.04405   0.12079   0.80762   0.00000  Uiso   1.00
C789   C     0.47169   0.07181   0.78120   0.00000  Uiso   1.00
C790   C     0.02787   0.26046   0.88914   0.00000  Uiso   1.00
Cu791  Cu    0.25501   0.17246   0.89479   0.00000  Uiso   1.00
Cu792  Cu    0.24500   0.16087   0.77187   0.00000  Uiso   1.00
H793   H     0.39294   0.24716   0.88223   0.00000  Uiso   1.00
H794   H     0.10662   0.08671   0.78582   0.00000  Uiso   1.00
H795   H     0.38162   0.08654   0.77973   0.00000  Uiso   1.00
H796   H     0.11746   0.24842   0.88593   0.00000  Uiso   1.00
H797   H     0.03511   0.03848   0.76183   0.00000  Uiso   1.00
H798   H     0.46490   0.29465   0.90808   0.00000  Uiso   1.00
H799   H     0.21265   0.12917   0.98365   0.00000  Uiso   1.00
H800   H     0.28647   0.20557   0.68339   0.00000  Uiso   1.00
N801   N     0.23745   0.15214   0.67951   0.00000  Uiso   1.00
N802   N     0.26256   0.18119   0.98716   0.00000  Uiso   1.00
O803   O     0.25326   0.09538   0.87326   0.00000  Uiso   1.00
O804   O     0.24675   0.23796   0.79341   0.00000  Uiso   1.00
O805   O     0.24480   0.08559   0.76945   0.00000  Uiso   1.00
O806   O     0.25520   0.24774   0.89721   0.00000  Uiso   1.00
O807   O     0.18936   0.17155   0.88524   0.00000  Uiso   1.00
O808   O     0.31065   0.16179   0.78143   0.00000  Uiso   1.00
O809   O     0.18090   0.16176   0.78143   0.00000  Uiso   1.00
O810   O     0.31910   0.17157   0.88523   0.00000  Uiso   1.00
C811   C     0.44750   0.01933   0.75686   0.00000  Uiso   1.00
O812   O     0.41615   0.00538   0.78271   0.00000  Uiso   1.00
O813   O     0.46241   0.31781   0.70605   0.00000  Uiso   1.00
H814   H     0.44396   0.28290   0.69433   0.00000  Uiso   1.00
C815   C     0.05228   0.31181   0.91520   0.00000  Uiso   1.00
O816   O     0.06175   0.00747   0.88126   0.00000  Uiso   1.00
O817   O     0.06217   0.32823   0.97877   0.00000  Uiso   1.00
H818   H     0.07740   0.03174   0.99134   0.00000  Uiso   1.00
C819   C     0.20700   0.31567   0.74572   0.00000  Uiso   1.00
C820   C     0.16350   0.00711   0.73033   0.00000  Uiso   1.00
H821   H     0.13968   0.00452   0.76544   0.00000  Uiso   1.00
H822   H     0.16922   0.04900   0.72805   0.00000  Uiso   1.00
H823   H     0.14797   0.31792   0.68498   0.00000  Uiso   1.00
H824   H     0.23100   0.31655   0.71058   0.00000  Uiso   1.00
H825   H     0.19574   0.27402   0.74217   0.00000  Uiso   1.00
C826   C     0.21564   0.01372   0.91899   0.00000  Uiso   1.00
C827   C     0.16936   0.03545   0.91078   0.00000  Uiso   1.00
H828   H     0.17029   0.06785   0.88594   0.00000  Uiso   1.00
H829   H     0.14575   0.00316   0.88416   0.00000  Uiso   1.00
H830   H     0.15665   0.05134   0.95611   0.00000  Uiso   1.00
H831   H     0.21133   0.31741   0.94698   0.00000  Uiso   1.00
H832   H     0.24032   0.04446   0.94624   0.00000  Uiso   1.00
C833   C     0.74314   0.06665   0.81799   0.00000  Uiso   1.00
C834   C     0.74478   0.26594   0.84879   0.00000  Uiso   1.00
C835   C     0.51840   0.07402   0.78107   0.00000  Uiso   1.00
C836   C     0.98128   0.25894   0.88838   0.00000  Uiso   1.00
C837   C     0.72944   0.01059   0.80888   0.00000  Uiso   1.00
C838   C     0.73212   0.32065   0.85726   0.00000  Uiso   1.00
C839   C     0.66453   0.16746   0.83428   0.00000  Uiso   1.00
C840   C     0.83539   0.16641   0.83249   0.00000  Uiso   1.00
C841   C     0.90920   0.21192   0.86070   0.00000  Uiso   1.00
C842   C     0.59046   0.12176   0.80746   0.00000  Uiso   1.00
C843   C     0.88340   0.16642   0.83115   0.00000  Uiso   1.00
C844   C     0.61636   0.16756   0.83596   0.00000  Uiso   1.00
C845   C     0.90327   0.12043   0.80318   0.00000  Uiso   1.00
C846   C     0.59633   0.21346   0.86424   0.00000  Uiso   1.00
C847   C     0.95014   0.11867   0.80624   0.00000  Uiso   1.00
C848   C     0.54946   0.21416   0.86324   0.00000  Uiso   1.00
C849   C     0.97636   0.16591   0.83432   0.00000  Uiso   1.00
C850   C     0.52328   0.16693   0.83525   0.00000  Uiso   1.00
C851   C     0.95560   0.21239   0.86139   0.00000  Uiso   1.00
C852   C     0.54405   0.12079   0.80762   0.00000  Uiso   1.00
C853   C     0.97169   0.07181   0.78120   0.00000  Uiso   1.00
C854   C     0.52787   0.26046   0.88914   0.00000  Uiso   1.00
Cu855  Cu    0.75501   0.17246   0.89479   0.00000  Uiso   1.00
Cu856  Cu    0.74500   0.16087   0.77187   0.00000  Uiso   1.00
H857   H     0.89294   0.24716   0.88223   0.00000  Uiso   1.00
H858   H     0.60662   0.08671   0.78582   0.00000  Uiso   1.00
H859   H     0.88162   0.08654   0.77973   0.00000  Uiso   1.00
H860   H     0.61746   0.24842   0.88593   0.00000  Uiso   1.00
H861   H     0.53511   0.03848   0.76183   0.00000  Uiso   1.00
H862   H     0.96490   0.29465   0.90808   0.00000  Uiso   1.00
H863   H     0.71265   0.12917   0.98365   0.00000  Uiso   1.00
H864   H     0.78647   0.20557   0.68339   0.00000  Uiso   1.00
N865   N     0.73745   0.15214   0.67951   0.00000  Uiso   1.00
N866   N     0.76256   0.18119   0.98716   0.00000  Uiso   1.00
O867   O     0.75326   0.09538   0.87326   0.00000  Uiso   1.00
O868   O     0.74675   0.23796   0.79341   0.00000  Uiso   1.00
O869   O     0.74480   0.08559   0.76945   0.00000  Uiso   1.00
O870   O     0.75520   0.24774   0.89721   0.00000  Uiso   1.00
O871   O     0.68936   0.17155   0.88524   0.00000  Uiso   1.00
O872   O     0.81065   0.16179   0.78143   0.00000  Uiso   1.00
O873   O     0.68090   0.16176   0.78143   0.00000  Uiso   1.00
O874   O     0.81910   0.17157   0.88523   0.00000  Uiso   1.00
C875   C     0.94750   0.01933   0.75686   0.00000  Uiso   1.00
O876   O     0.91615   0.00538   0.78271   0.00000  Uiso   1.00
O877   O     0.96241   0.31781   0.70605   0.00000  Uiso   1.00
H878   H     0.94396   0.28290   0.69433   0.00000  Uiso   1.00
C879   C     0.55228   0.31181   0.91520   0.00000  Uiso   1.00
O880   O     0.56175   0.00747   0.88126   0.00000  Uiso   1.00
O881   O     0.56217   0.32823   0.97877   0.00000  Uiso   1.00
H882   H     0.57740   0.03174   0.99134   0.00000  Uiso   1.00
C883   C     0.70700   0.31567   0.74572   0.00000  Uiso   1.00
C884   C     0.66350   0.00711   0.73033   0.00000  Uiso   1.00
H885   H     0.63968   0.00452   0.76544   0.00000  Uiso   1.00
H886   H     0.66922   0.04900   0.72805   0.00000  Uiso   1.00
H887   H     0.64797   0.31792   0.68498   0.00000  Uiso   1.00
H888   H     0.73100   0.31655   0.71058   0.00000  Uiso   1.00
H889   H     0.69574   0.27402   0.74217   0.00000  Uiso   1.00
C890   C     0.71564   0.01372   0.91899   0.00000  Uiso   1.00
C891   C     0.66936   0.03545   0.91078   0.00000  Uiso   1.00
H892   H     0.67029   0.06785   0.88594   0.00000  Uiso   1.00
H893   H     0.64575   0.00316   0.88416   0.00000  Uiso   1.00
H894   H     0.65665   0.05134   0.95611   0.00000  Uiso   1.00
H895   H     0.71133   0.31741   0.94698   0.00000  Uiso   1.00
H896   H     0.74032   0.04446   0.94624   0.00000  Uiso   1.00
C897   C     0.24314   0.39998   0.81799   0.00000  Uiso   1.00
C898   C     0.24478   0.59927   0.84879   0.00000  Uiso   1.00
C899   C     0.01840   0.40735   0.78107   0.00000  Uiso   1.00
C900   C     0.48128   0.59228   0.88838   0.00000  Uiso   1.00
C901   C     0.22944   0.34393   0.80888   0.00000  Uiso   1.00
C902   C     0.23212   0.65399   0.85726   0.00000  Uiso   1.00
C903   C     0.16453   0.50079   0.83428   0.00000  Uiso   1.00
C904   C     0.33539   0.49974   0.83249   0.00000  Uiso   1.00
C905   C     0.40920   0.54525   0.86070   0.00000  Uiso   1.00
C906   C     0.09046   0.45510   0.80746   0.00000  Uiso   1.00
C907   C     0.38340   0.49976   0.83115   0.00000  Uiso   1.00
C908   C     0.11636   0.50090   0.83596   0.00000  Uiso   1.00
C909   C     0.40327   0.45376   0.80318   0.00000  Uiso   1.00
C910   C     0.09633   0.54680   0.86424   0.00000  Uiso   1.00
C911   C     0.45014   0.45200   0.80624   0.00000  Uiso   1.00
C912   C     0.04946   0.54749   0.86324   0.00000  Uiso   1.00
C913   C     0.47636   0.49924   0.83432   0.00000  Uiso   1.00
C914   C     0.02328   0.50026   0.83525   0.00000  Uiso   1.00
C915   C     0.45560   0.54572   0.86139   0.00000  Uiso   1.00
C916   C     0.04405   0.45412   0.80762   0.00000  Uiso   1.00
C917   C     0.47169   0.40514   0.78120   0.00000  Uiso   1.00
C918   C     0.02787   0.59380   0.88914   0.00000  Uiso   1.00
Cu919  Cu    0.25501   0.50579   0.89479   0.00000  Uiso   1.00
Cu920  Cu    0.24500   0.49421   0.77187   0.00000  Uiso   1.00
H921   H     0.39294   0.58050   0.88223   0.00000  Uiso   1.00
H922   H     0.10662   0.42004   0.78582   0.00000  Uiso   1.00
H923   H     0.38162   0.41988   0.77973   0.00000  Uiso   1.00
H924   H     0.11746   0.58175   0.88593   0.00000  Uiso   1.00
H925   H     0.03511   0.37182   0.76183   0.00000  Uiso   1.00
H926   H     0.46490   0.62798   0.90808   0.00000  Uiso   1.00
H927   H     0.21265   0.46250   0.98365   0.00000  Uiso   1.00
H928   H     0.28647   0.53891   0.68339   0.00000  Uiso   1.00
N929   N     0.23745   0.48547   0.67951   0.00000  Uiso   1.00
N930   N     0.26256   0.51453   0.98716   0.00000  Uiso   1.00
O931   O     0.25326   0.42871   0.87326   0.00000  Uiso   1.00
O932   O     0.24675   0.57129   0.79341   0.00000  Uiso   1.00
O933   O     0.24480   0.41892   0.76945   0.00000  Uiso   1.00
O934   O     0.25520   0.58108   0.89721   0.00000  Uiso   1.00
O935   O     0.18936   0.50488   0.88524   0.00000  Uiso   1.00
O936   O     0.31065   0.49512   0.78143   0.00000  Uiso   1.00
O937   O     0.18090   0.49510   0.78143   0.00000  Uiso   1.00
O938   O     0.31910   0.50490   0.88523   0.00000  Uiso   1.00
C939   C     0.44750   0.35266   0.75686   0.00000  Uiso   1.00
O940   O     0.41615   0.33872   0.78271   0.00000  Uiso   1.00
O941   O     0.46241   0.65114   0.70605   0.00000  Uiso   1.00
H942   H     0.44396   0.61623   0.69433   0.00000  Uiso   1.00
C943   C     0.05228   0.64515   0.91520   0.00000  Uiso   1.00
O944   O     0.06175   0.34080   0.88126   0.00000  Uiso   1.00
O945   O     0.06217   0.66157   0.97877   0.00000  Uiso   1.00
H946   H     0.07740   0.36508   0.99134   0.00000  Uiso   1.00
C947   C     0.20700   0.64900   0.74572   0.00000  Uiso   1.00
C948   C     0.16350   0.34044   0.73033   0.00000  Uiso   1.00
H949   H     0.13968   0.33785   0.76544   0.00000  Uiso   1.00
H950   H     0.16922   0.38234   0.72805   0.00000  Uiso   1.00
H951   H     0.14797   0.65126   0.68498   0.00000  Uiso   1.00
H952   H     0.23100   0.64988   0.71058   0.00000  Uiso   1.00
H953   H     0.19574   0.60735   0.74217   0.00000  Uiso   1.00
C954   C     0.21564   0.34706   0.91899   0.00000  Uiso   1.00
C955   C     0.16936   0.36878   0.91078   0.00000  Uiso   1.00
H956   H     0.17029   0.40119   0.88594   0.00000  Uiso   1.00
H957   H     0.14575   0.33649   0.88416   0.00000  Uiso   1.00
H958   H     0.15665   0.38467   0.95611   0.00000  Uiso   1.00
H959   H     0.21133   0.65074   0.94698   0.00000  Uiso   1.00
H960   H     0.24032   0.37779   0.94624   0.00000  Uiso   1.00
C961   C     0.74314   0.39998   0.81799   0.00000  Uiso   1.00
C962   C     0.74478   0.59927   0.84879   0.00000  Uiso   1.00
C963   C     0.51840   0.40735   0.78107   0.00000  Uiso   1.00
C964   C     0.98128   0.59228   0.88838   0.00000  Uiso   1.00
C965   C     0.72944   0.34393   0.80888   0.00000  Uiso   1.00
C966   C     0.73212   0.65399   0.85726   0.00000  Uiso   1.00
C967   C     0.66453   0.50079   0.83428   0.00000  Uiso   1.00
C968   C     0.83539   0.49974   0.83249   0.00000  Uiso   1.00
C969   C     0.90920   0.54525   0.86070   0.00000  Uiso   1.00
C970   C     0.59046   0.45510   0.80746   0.00000  Uiso   1.00
C971   C     0.88340   0.49976   0.83115   0.00000  Uiso   1.00
C972   C     0.61636   0.50090   0.83596   0.00000  Uiso   1.00
C973   C     0.90327   0.45376   0.80318   0.00000  Uiso   1.00
C974   C     0.59633   0.54680   0.86424   0.00000  Uiso   1.00
C975   C     0.95014   0.45200   0.80624   0.00000  Uiso   1.00
C976   C     0.54946   0.54749   0.86324   0.00000  Uiso   1.00
C977   C     0.97636   0.49924   0.83432   0.00000  Uiso   1.00
C978   C     0.52328   0.50026   0.83525   0.00000  Uiso   1.00
C979   C     0.95560   0.54572   0.86139   0.00000  Uiso   1.00
C980   C     0.54405   0.45412   0.80762   0.00000  Uiso   1.00
C981   C     0.97169   0.40514   0.78120   0.00000  Uiso   1.00
C982   C     0.52787   0.59380   0.88914   0.00000  Uiso   1.00
Cu983  Cu    0.75501   0.50579   0.89479   0.00000  Uiso   1.00
Cu984  Cu    0.74500   0.49421   0.77187   0.00000  Uiso   1.00
H985   H     0.89294   0.58050   0.88223   0.00000  Uiso   1.00
H986   H     0.60662   0.42004   0.78582   0.00000  Uiso   1.00
H987   H     0.88162   0.41988   0.77973   0.00000  Uiso   1.00
H988   H     0.61746   0.58175   0.88593   0.00000  Uiso   1.00
H989   H     0.53511   0.37182   0.76183   0.00000  Uiso   1.00
H990   H     0.96490   0.62798   0.90808   0.00000  Uiso   1.00
H991   H     0.71265   0.46250   0.98365   0.00000  Uiso   1.00
H992   H     0.78647   0.53891   0.68339   0.00000  Uiso   1.00
N993   N     0.73745   0.48547   0.67951   0.00000  Uiso   1.00
N994   N     0.76256   0.51453   0.98716   0.00000  Uiso   1.00
O995   O     0.75326   0.42871   0.87326   0.00000  Uiso   1.00
O996   O     0.74675   0.57129   0.79341   0.00000  Uiso   1.00
O997   O     0.74480   0.41892   0.76945   0.00000  Uiso   1.00
O998   O     0.75520   0.58108   0.89721   0.00000  Uiso   1.00
O999   O     0.68936   0.50488   0.88524   0.00000  Uiso   1.00
O1000  O     0.81065   0.49512   0.78143   0.00000  Uiso   1.00
O1001  O     0.68090   0.49510   0.78143   0.00000  Uiso   1.00
O1002  O     0.81910   0.50490   0.88523   0.00000  Uiso   1.00
C1003  C     0.94750   0.35266   0.75686   0.00000  Uiso   1.00
O1004  O     0.91615   0.33872   0.78271   0.00000  Uiso   1.00
O1005  O     0.96241   0.65114   0.70605   0.00000  Uiso   1.00
H1006  H     0.94396   0.61623   0.69433   0.00000  Uiso   1.00
C1007  C     0.55228   0.64515   0.91520   0.00000  Uiso   1.00
O1008  O     0.56175   0.34080   0.88126   0.00000  Uiso   1.00
O1009  O     0.56217   0.66157   0.97877   0.00000  Uiso   1.00
H1010  H     0.57740   0.36508   0.99134   0.00000  Uiso   1.00
C1011  C     0.70700   0.64900   0.74572   0.00000  Uiso   1.00
C1012  C     0.66350   0.34044   0.73033   0.00000  Uiso   1.00
H1013  H     0.63968   0.33785   0.76544   0.00000  Uiso   1.00
H1014  H     0.66922   0.38234   0.72805   0.00000  Uiso   1.00
H1015  H     0.64797   0.65126   0.68498   0.00000  Uiso   1.00
H1016  H     0.73100   0.64988   0.71058   0.00000  Uiso   1.00
H1017  H     0.69574   0.60735   0.74217   0.00000  Uiso   1.00
C1018  C     0.71564   0.34706   0.91899   0.00000  Uiso   1.00
C1019  C     0.66936   0.36878   0.91078   0.00000  Uiso   1.00
H1020  H     0.67029   0.40119   0.88594   0.00000  Uiso   1.00
H1021  H     0.64575   0.33649   0.88416   0.00000  Uiso   1.00
H1022  H     0.65665   0.38467   0.95611   0.00000  Uiso   1.00
H1023  H     0.71133   0.65074   0.94698   0.00000  Uiso   1.00
H1024  H     0.74032   0.37779   0.94624   0.00000  Uiso   1.00
C1025  C     0.24314   0.73331   0.81799   0.00000  Uiso   1.00
C1026  C     0.24478   0.93260   0.84879   0.00000  Uiso   1.00
C1027  C     0.01840   0.74069   0.78107   0.00000  Uiso   1.00
C1028  C     0.48128   0.92561   0.88838   0.00000  Uiso   1.00
C1029  C     0.22944   0.67726   0.80888   0.00000  Uiso   1.00
C1030  C     0.23212   0.98732   0.85726   0.00000  Uiso   1.00
C1031  C     0.16453   0.83413   0.83428   0.00000  Uiso   1.00
C1032  C     0.33539   0.83308   0.83249   0.00000  Uiso   1.00
C1033  C     0.40920   0.87858   0.86070   0.00000  Uiso   1.00
C1034  C     0.09046   0.78843   0.80746   0.00000  Uiso   1.00
C1035  C     0.38340   0.83309   0.83115   0.00000  Uiso   1.00
C1036  C     0.11636   0.83423   0.83596   0.00000  Uiso   1.00
C1037  C     0.40327   0.78710   0.80318   0.00000  Uiso   1.00
C1038  C     0.09633   0.88013   0.86424   0.00000  Uiso   1.00
C1039  C     0.45014   0.78533   0.80624   0.00000  Uiso   1.00
C1040  C     0.04946   0.88083   0.86324   0.00000  Uiso   1.00
C1041  C     0.47636   0.83258   0.83432   0.00000  Uiso   1.00
C1042  C     0.02328   0.83360   0.83525   0.00000  Uiso   1.00
C1043  C     0.45560   0.87905   0.86139   0.00000  Uiso   1.00
C1044  C     0.04405   0.78745   0.80762   0.00000  Uiso   1.00
C1045  C     0.47169   0.73847   0.78120   0.00000  Uiso   1.00
C1046  C     0.02787   0.92713   0.88914   0.00000  Uiso   1.00
Cu1047 Cu    0.25501   0.83913   0.89479   0.00000  Uiso   1.00
Cu1048 Cu    0.24500   0.82754   0.77187   0.00000  Uiso   1.00
H1049  H     0.39294   0.91383   0.88223   0.00000  Uiso   1.00
H1050  H     0.10662   0.75338   0.78582   0.00000  Uiso   1.00
H1051  H     0.38162   0.75321   0.77973   0.00000  Uiso   1.00
H1052  H     0.11746   0.91508   0.88593   0.00000  Uiso   1.00
H1053  H     0.03511   0.70515   0.76183   0.00000  Uiso   1.00
H1054  H     0.46490   0.96131   0.90808   0.00000  Uiso   1.00
H1055  H     0.21265   0.79584   0.98365   0.00000  Uiso   1.00
H1056  H     0.28647   0.87224   0.68339   0.00000  Uiso   1.00
N1057  N     0.23745   0.81881   0.67951   0.00000  Uiso   1.00
N1058  N     0.26256   0.84786   0.98716   0.00000  Uiso   1.00
O1059  O     0.25326   0.76204   0.87326   0.00000  Uiso   1.00
O1060  O     0.24675   0.90462   0.79341   0.00000  Uiso   1.00
O1061  O     0.24480   0.75226   0.76945   0.00000  Uiso   1.00
O1062  O     0.25520   0.91441   0.89721   0.00000  Uiso   1.00
O1063  O     0.18936   0.83821   0.88524   0.00000  Uiso   1.00
O1064  O     0.31065   0.82845   0.78143   0.00000  Uiso   1.00
O1065  O     0.18090   0.82843   0.78143   0.00000  Uiso   1.00
O1066  O     0.31910   0.83824   0.88523   0.00000  Uiso   1.00
C1067  C     0.44750   0.68599   0.75686   0.00000  Uiso   1.00
O1068  O     0.41615   0.67205   0.78271   0.00000  Uiso   1.00
O1069  O     0.46241   0.98448   0.70605   0.00000  Uiso   1.00
H1070  H     0.44396   0.94956   0.69433   0.00000  Uiso   1.00
C1071  C     0.05228   0.97848   0.91520   0.00000  Uiso   1.00
O1072  O     0.06175   0.67413   0.88126   0.00000  Uiso   1.00
O1073  O     0.06217   0.99490   0.97877   0.00000  Uiso   1.00
H1074  H     0.07740   0.69841   0.99134   0.00000  Uiso   1.00
C1075  C     0.20700   0.98234   0.74572   0.00000  Uiso   1.00
C1076  C     0.16350   0.67378   0.73033   0.00000  Uiso   1.00
H1077  H     0.13968   0.67119   0.76544   0.00000  Uiso   1.00
H1078  H     0.16922   0.71567   0.72805   0.00000  Uiso   1.00
H1079  H     0.14797   0.98459   0.68498   0.00000  Uiso   1.00
H1080  H     0.23100   0.98321   0.71058   0.00000  Uiso   1.00
H1081  H     0.19574   0.94069   0.74217   0.00000  Uiso   1.00
C1082  C     0.21564   0.68039   0.91899   0.00000  Uiso   1.00
C1083  C     0.16936   0.70212   0.91078   0.00000  Uiso   1.00
H1084  H     0.17029   0.73452   0.88594   0.00000  Uiso   1.00
H1085  H     0.14575   0.66983   0.88416   0.00000  Uiso   1.00
H1086  H     0.15665   0.71801   0.95611   0.00000  Uiso   1.00
H1087  H     0.21133   0.98407   0.94698   0.00000  Uiso   1.00
H1088  H     0.24032   0.71113   0.94624   0.00000  Uiso   1.00
C1089  C     0.74314   0.73331   0.81799   0.00000  Uiso   1.00
C1090  C     0.74478   0.93260   0.84879   0.00000  Uiso   1.00
C1091  C     0.51840   0.74069   0.78107   0.00000  Uiso   1.00
C1092  C     0.98128   0.92561   0.88838   0.00000  Uiso   1.00
C1093  C     0.72944   0.67726   0.80888   0.00000  Uiso   1.00
C1094  C     0.73212   0.98732   0.85726   0.00000  Uiso   1.00
C1095  C     0.66453   0.83413   0.83428   0.00000  Uiso   1.00
C1096  C     0.83539   0.83308   0.83249   0.00000  Uiso   1.00
C1097  C     0.90920   0.87858   0.86070   0.00000  Uiso   1.00
C1098  C     0.59046   0.78843   0.80746   0.00000  Uiso   1.00
C1099  C     0.88340   0.83309   0.83115   0.00000  Uiso   1.00
C1100  C     0.61636   0.83423   0.83596   0.00000  Uiso   1.00
C1101  C     0.90327   0.78710   0.80318   0.00000  Uiso   1.00
C1102  C     0.59633   0.88013   0.86424   0.00000  Uiso   1.00
C1103  C     0.95014   0.78533   0.80624   0.00000  Uiso   1.00
C1104  C     0.54946   0.88083   0.86324   0.00000  Uiso   1.00
C1105  C     0.97636   0.83258   0.83432   0.00000  Uiso   1.00
C1106  C     0.52328   0.83360   0.83525   0.00000  Uiso   1.00
C1107  C     0.95560   0.87905   0.86139   0.00000  Uiso   1.00
C1108  C     0.54405   0.78745   0.80762   0.00000  Uiso   1.00
C1109  C     0.97169   0.73847   0.78120   0.00000  Uiso   1.00
C1110  C     0.52787   0.92713   0.88914   0.00000  Uiso   1.00
Cu1111 Cu    0.75501   0.83913   0.89479   0.00000  Uiso   1.00
Cu1112 Cu    0.74500   0.82754   0.77187   0.00000  Uiso   1.00
H1113  H     0.89294   0.91383   0.88223   0.00000  Uiso   1.00
H1114  H     0.60662   0.75338   0.78582   0.00000  Uiso   1.00
H1115  H     0.88162   0.75321   0.77973   0.00000  Uiso   1.00
H1116  H     0.61746   0.91508   0.88593   0.00000  Uiso   1.00
H1117  H     0.53511   0.70515   0.76183   0.00000  Uiso   1.00
H1118  H     0.96490   0.96131   0.90808   0.00000  Uiso   1.00
H1119  H     0.71265   0.79584   0.98365   0.00000  Uiso   1.00
H1120  H     0.78647   0.87224   0.68339   0.00000  Uiso   1.00
N1121  N     0.73745   0.81881   0.67951   0.00000  Uiso   1.00
N1122  N     0.76256   0.84786   0.98716   0.00000  Uiso   1.00
O1123  O     0.75326   0.76204   0.87326   0.00000  Uiso   1.00
O1124  O     0.74675   0.90462   0.79341   0.00000  Uiso   1.00
O1125  O     0.74480   0.75226   0.76945   0.00000  Uiso   1.00
O1126  O     0.75520   0.91441   0.89721   0.00000  Uiso   1.00
O1127  O     0.68936   0.83821   0.88524   0.00000  Uiso   1.00
O1128  O     0.81065   0.82845   0.78143   0.00000  Uiso   1.00
O1129  O     0.68090   0.82843   0.78143   0.00000  Uiso   1.00
O1130  O     0.81910   0.83824   0.88523   0.00000  Uiso   1.00
C1131  C     0.94750   0.68599   0.75686   0.00000  Uiso   1.00
O1132  O     0.91615   0.67205   0.78271   0.00000  Uiso   1.00
O1133  O     0.96241   0.98448   0.70605   0.00000  Uiso   1.00
H1134  H     0.94396   0.94956   0.69433   0.00000  Uiso   1.00
C1135  C     0.55228   0.97848   0.91520   0.00000  Uiso   1.00
O1136  O     0.56175   0.67413   0.88126   0.00000  Uiso   1.00
O1137  O     0.56217   0.99490   0.97877   0.00000  Uiso   1.00
H1138  H     0.57740   0.69841   0.99134   0.00000  Uiso   1.00
C1139  C     0.70700   0.98234   0.74572   0.00000  Uiso   1.00
C1140  C     0.66350   0.67378   0.73033   0.00000  Uiso   1.00
H1141  H     0.63968   0.67119   0.76544   0.00000  Uiso   1.00
H1142  H     0.66922   0.71567   0.72805   0.00000  Uiso   1.00
H1143  H     0.64797   0.98459   0.68498   0.00000  Uiso   1.00
H1144  H     0.73100   0.98321   0.71058   0.00000  Uiso   1.00
H1145  H     0.69574   0.94069   0.74217   0.00000  Uiso   1.00
C1146  C     0.71564   0.68039   0.91899   0.00000  Uiso   1.00
C1147  C     0.66936   0.70212   0.91078   0.00000  Uiso   1.00
H1148  H     0.67029   0.73452   0.88594   0.00000  Uiso   1.00
H1149  H     0.64575   0.66983   0.88416   0.00000  Uiso   1.00
H1150  H     0.65665   0.71801   0.95611   0.00000  Uiso   1.00
H1151  H     0.71133   0.98407   0.94698   0.00000  Uiso   1.00
H1152  H     0.74032   0.71113   0.94624   0.00000  Uiso   1.00
loop_
_geom_bond_atom_site_label_1
_geom_bond_atom_site_label_2
_geom_bond_distance
_geom_bond_site_symmetry_2
_ccdc_geom_bond_type
C1     C5      1.461   .     S
C1     O37     1.291   .     A
C1     O35     1.301   .     A
C2     O38     1.298   .     A
C2     C6      1.459   .     S
C2     O36     1.295   .     A
C3     C20     1.398   .     A
C3     H29     1.085   .     S
C3     C85     1.399   1_455 S
C4     H30     1.085   .     S
C4     C19     1.396   .     A
C4     C86     1.394   .     S
C5     C262    1.351   1_545 S
C5     C307    1.531   1_545 S
C6     C133    1.351   .     S
C6     C186    1.524   .     S
C7     C12     1.447   .     S
C7     O39     1.296   .     A
C7     O41     1.293   .     A
C8     C11     1.441   .     S
C8     O40     1.295   .     A
C8     O42     1.291   .     A
C9     H25     1.086   .     S
C9     C11     1.390   .     A
C9     C19     1.389   .     A
C10    C20     1.391   .     A
C10    H26     1.081   .     S
C10    C12     1.392   .     A
C11    C13     1.395   .     A
C12    C14     1.398   .     A
C13    C15     1.404   .     A
C13    H27     1.081   .     S
C14    C16     1.404   .     A
C14    H28     1.083   .     S
C15    C21     1.421   .     A
C15    C17     1.422   .     A
C16    C22     1.415   .     A
C16    C18     1.421   .     A
C17    C19     1.413   .     A
C17    C82     1.404   .     S
C18    C20     1.409   .     A
C18    C81     1.404   1_455 S
C21    C43     1.486   .     S
C21    C67     1.399   .     S
C22    C47     1.471   .     S
C22    C68     1.394   1_455 S
Cu23   O38     1.942   .     S
Cu23   Cu24    2.691   .     S
Cu23   N34     2.022   .     S
Cu23   O42     1.949   .     S
Cu23   O39     1.962   .     S
Cu23   O35     1.947   .     S
Cu24   N33     2.022   .     S
Cu24   O41     1.949   .     S
Cu24   O36     1.947   .     S
Cu24   O40     1.962   .     S
Cu24   O37     1.942   .     S
H31    N417    1.027   .     S
H32    N802    1.029   1_554 S
N33    H799    1.027   1_554 S
N33    N802    1.295   1_554 S
N34    N417    1.295   .     S
N34    H416    1.029   .     S
C43    O44     1.223   .     D
C43    O301    1.399   1_545 S
O45    H46     1.014   .     S
O45    C171    1.399   .     S
C47    O49     1.396   .     S
C47    O176    1.222   .     S
O48    C303    1.222   1_545 S
O49    H178    1.014   .     S
H50    O305    1.014   1_545 S
C51    H57     1.103   .     S
C51    H56     1.107   .     S
C51    C133    1.531   .     S
C51    C180    1.526   .     S
C52    H54     1.107   .     S
C52    H53     1.111   .     S
C52    C307    1.526   1_545 S
C52    H311    1.110   1_545 S
H55    C180    1.110   .     S
C58    H64     1.107   .     S
C58    C59     1.531   .     S
C58    C262    1.524   1_545 S
C58    H319    1.105   1_545 S
C59    H60     1.107   .     S
C59    H61     1.107   .     S
C59    H62     1.107   .     S
H63    C186    1.105   .     S
C65    C69     1.461   .     S
C65    O101    1.291   .     A
C65    O99     1.301   .     A
C66    O102    1.298   .     A
C66    C70     1.459   .     S
C66    O100    1.295   .     A
C67    C84     1.398   .     A
C67    H93     1.085   .     S
C68    H94     1.085   .     S
C68    C83     1.396   .     A
C68    C22     1.394   1_655 S
C69    C326    1.351   1_545 S
C69    C371    1.531   1_545 S
C70    C197    1.351   .     S
C70    C250    1.524   .     S
C71    C76     1.447   .     S
C71    O103    1.296   .     A
C71    O105    1.293   .     A
C72    C75     1.441   .     S
C72    O104    1.295   .     A
C72    O106    1.291   .     A
C73    H89     1.086   .     S
C73    C75     1.390   .     A
C73    C83     1.389   .     A
C74    C84     1.391   .     A
C74    H90     1.081   .     S
C74    C76     1.392   .     A
C75    C77     1.395   .     A
C76    C78     1.398   .     A
C77    C79     1.404   .     A
C77    H91     1.081   .     S
C78    C80     1.404   .     A
C78    H92     1.083   .     S
C79    C85     1.421   .     A
C79    C81     1.422   .     A
C80    C86     1.415   .     A
C80    C82     1.421   .     A
C81    C83     1.413   .     A
C81    C18     1.404   1_655 S
C82    C84     1.409   .     A
C85    C107    1.486   .     S
C85    C3      1.399   1_655 S
C86    C111    1.471   .     S
Cu87   O102    1.942   .     S
Cu87   Cu88    2.691   .     S
Cu87   N98     2.022   .     S
Cu87   O106    1.949   .     S
Cu87   O103    1.962   .     S
Cu87   O99     1.947   .     S
Cu88   N97     2.022   .     S
Cu88   O105    1.949   .     S
Cu88   O100    1.947   .     S
Cu88   O104    1.962   .     S
Cu88   O101    1.942   .     S
H95    N481    1.027   .     S
H96    N866    1.029   1_554 S
N97    H863    1.027   1_554 S
N97    N866    1.295   1_554 S
N98    N481    1.295   .     S
N98    H480    1.029   .     S
C107   O108    1.223   .     D
C107   O365    1.399   1_545 S
O109   H110    1.014   .     S
O109   C235    1.399   .     S
C111   O113    1.396   .     S
C111   O240    1.222   .     S
O112   C367    1.222   1_545 S
O113   H242    1.014   .     S
H114   O369    1.014   1_545 S
C115   H121    1.103   .     S
C115   H120    1.107   .     S
C115   C197    1.531   .     S
C115   C244    1.526   .     S
C116   H118    1.107   .     S
C116   H117    1.111   .     S
C116   C371    1.526   1_545 S
C116   H375    1.110   1_545 S
H119   C244    1.110   .     S
C122   H128    1.107   .     S
C122   C123    1.531   .     S
C122   C326    1.524   1_545 S
C122   H383    1.105   1_545 S
C123   H124    1.107   .     S
C123   H125    1.107   .     S
C123   H126    1.107   .     S
H127   C250    1.105   .     S
C129   C133    1.461   .     S
C129   O165    1.291   .     A
C129   O163    1.301   .     A
C130   O166    1.298   .     A
C130   C134    1.459   .     S
C130   O164    1.295   .     A
C131   C148    1.398   .     A
C131   H157    1.085   .     S
C131   C213    1.399   1_455 S
C132   H158    1.085   .     S
C132   C147    1.396   .     A
C132   C214    1.394   .     S
C134   C261    1.351   .     S
C134   C314    1.524   .     S
C135   C140    1.447   .     S
C135   O167    1.296   .     A
C135   O169    1.293   .     A
C136   C139    1.441   .     S
C136   O168    1.295   .     A
C136   O170    1.291   .     A
C137   H153    1.086   .     S
C137   C139    1.390   .     A
C137   C147    1.389   .     A
C138   C148    1.391   .     A
C138   H154    1.081   .     S
C138   C140    1.392   .     A
C139   C141    1.395   .     A
C140   C142    1.398   .     A
C141   C143    1.404   .     A
C141   H155    1.081   .     S
C142   C144    1.404   .     A
C142   H156    1.083   .     S
C143   C149    1.421   .     A
C143   C145    1.422   .     A
C144   C150    1.415   .     A
C144   C146    1.421   .     A
C145   C147    1.413   .     A
C145   C210    1.404   .     S
C146   C148    1.409   .     A
C146   C209    1.404   1_455 S
C149   C171    1.486   .     S
C149   C195    1.399   .     S
C150   C175    1.471   .     S
C150   C196    1.394   1_455 S
Cu151  O166    1.942   .     S
Cu151  Cu152   2.691   .     S
Cu151  N162    2.022   .     S
Cu151  O170    1.949   .     S
Cu151  O167    1.962   .     S
Cu151  O163    1.947   .     S
Cu152  N161    2.022   .     S
Cu152  O169    1.949   .     S
Cu152  O164    1.947   .     S
Cu152  O168    1.962   .     S
Cu152  O165    1.942   .     S
H159   N545    1.027   .     S
H160   N930    1.029   1_554 S
N161   H927    1.027   1_554 S
N161   N930    1.295   1_554 S
N162   N545    1.295   .     S
N162   H544    1.029   .     S
C171   O172    1.223   .     D
O173   H174    1.014   .     S
O173   C299    1.399   .     S
C175   O177    1.396   .     S
C175   O304    1.222   .     S
O177   H306    1.014   .     S
C179   H185    1.103   .     S
C179   H184    1.107   .     S
C179   C261    1.531   .     S
C179   C308    1.526   .     S
C180   H182    1.107   .     S
C180   H181    1.111   .     S
H183   C308    1.110   .     S
C186   H192    1.107   .     S
C186   C187    1.531   .     S
C187   H188    1.107   .     S
C187   H189    1.107   .     S
C187   H190    1.107   .     S
H191   C314    1.105   .     S
C193   C197    1.461   .     S
C193   O229    1.291   .     A
C193   O227    1.301   .     A
C194   O230    1.298   .     A
C194   C198    1.459   .     S
C194   O228    1.295   .     A
C195   C212    1.398   .     A
C195   H221    1.085   .     S
C196   H222    1.085   .     S
C196   C211    1.396   .     A
C196   C150    1.394   1_655 S
C198   C325    1.351   .     S
C198   C378    1.524   .     S
C199   C204    1.447   .     S
C199   O231    1.296   .     A
C199   O233    1.293   .     A
C200   C203    1.441   .     S
C200   O232    1.295   .     A
C200   O234    1.291   .     A
C201   H217    1.086   .     S
C201   C203    1.390   .     A
C201   C211    1.389   .     A
C202   C212    1.391   .     A
C202   H218    1.081   .     S
C202   C204    1.392   .     A
C203   C205    1.395   .     A
C204   C206    1.398   .     A
C205   C207    1.404   .     A
C205   H219    1.081   .     S
C206   C208    1.404   .     A
C206   H220    1.083   .     S
C207   C213    1.421   .     A
C207   C209    1.422   .     A
C208   C214    1.415   .     A
C208   C210    1.421   .     A
C209   C211    1.413   .     A
C209   C146    1.404   1_655 S
C210   C212    1.409   .     A
C213   C235    1.486   .     S
C213   C131    1.399   1_655 S
C214   C239    1.471   .     S
Cu215  O230    1.942   .     S
Cu215  Cu216   2.691   .     S
Cu215  N226    2.022   .     S
Cu215  O234    1.949   .     S
Cu215  O231    1.962   .     S
Cu215  O227    1.947   .     S
Cu216  N225    2.022   .     S
Cu216  O233    1.949   .     S
Cu216  O228    1.947   .     S
Cu216  O232    1.962   .     S
Cu216  O229    1.942   .     S
H223   N609    1.027   .     S
H224   N994    1.029   1_554 S
N225   H991    1.027   1_554 S
N225   N994    1.295   1_554 S
N226   N609    1.295   .     S
N226   H608    1.029   .     S
C235   O236    1.223   .     D
O237   H238    1.014   .     S
O237   C363    1.399   .     S
C239   O241    1.396   .     S
C239   O368    1.222   .     S
O241   H370    1.014   .     S
C243   H249    1.103   .     S
C243   H248    1.107   .     S
C243   C325    1.531   .     S
C243   C372    1.526   .     S
C244   H246    1.107   .     S
C244   H245    1.111   .     S
H247   C372    1.110   .     S
C250   H256    1.107   .     S
C250   C251    1.531   .     S
C251   H252    1.107   .     S
C251   H253    1.107   .     S
C251   H254    1.107   .     S
H255   C378    1.105   .     S
C257   C261    1.461   .     S
C257   O293    1.291   .     A
C257   O291    1.301   .     A
C258   O294    1.298   .     A
C258   C262    1.459   .     S
C258   O292    1.295   .     A
C259   C276    1.398   .     A
C259   H285    1.085   .     S
C259   C341    1.399   1_455 S
C260   H286    1.085   .     S
C260   C275    1.396   .     A
C260   C342    1.394   .     S
C262   C5      1.351   1_565 S
C262   C58     1.524   1_565 S
C263   C268    1.447   .     S
C263   O295    1.296   .     A
C263   O297    1.293   .     A
C264   C267    1.441   .     S
C264   O296    1.295   .     A
C264   O298    1.291   .     A
C265   H281    1.086   .     S
C265   C267    1.390   .     A
C265   C275    1.389   .     A
C266   C276    1.391   .     A
C266   H282    1.081   .     S
C266   C268    1.392   .     A
C267   C269    1.395   .     A
C268   C270    1.398   .     A
C269   C271    1.404   .     A
C269   H283    1.081   .     S
C270   C272    1.404   .     A
C270   H284    1.083   .     S
C271   C277    1.421   .     A
C271   C273    1.422   .     A
C272   C278    1.415   .     A
C272   C274    1.421   .     A
C273   C275    1.413   .     A
C273   C338    1.404   .     S
C274   C276    1.409   .     A
C274   C337    1.404   1_455 S
C277   C299    1.486   .     S
C277   C323    1.399   .     S
C278   C303    1.471   .     S
C278   C324    1.394   1_455 S
Cu279  O294    1.942   .     S
Cu279  Cu280   2.691   .     S
Cu279  N290    2.022   .     S
Cu279  O298    1.949   .     S
Cu279  O295    1.962   .     S
Cu279  O291    1.947   .     S
Cu280  N289    2.022   .     S
Cu280  O297    1.949   .     S
Cu280  O292    1.947   .     S
Cu280  O296    1.962   .     S
Cu280  O293    1.942   .     S
H287   N673    1.027   .     S
H288   N1058   1.029   1_554 S
N289   H1055   1.027   1_554 S
N289   N1058   1.295   1_554 S
N290   N673    1.295   .     S
N290   H672    1.029   .     S
C299   O300    1.223   .     D
O301   H302    1.014   .     S
O301   C43     1.399   1_565 S
C303   O305    1.396   .     S
C303   O48     1.222   1_565 S
O305   H50     1.014   1_565 S
C307   H313    1.103   .     S
C307   H312    1.107   .     S
C307   C5      1.531   1_565 S
C307   C52     1.526   1_565 S
C308   H310    1.107   .     S
C308   H309    1.111   .     S
H311   C52     1.110   1_565 S
C314   H320    1.107   .     S
C314   C315    1.531   .     S
C315   H316    1.107   .     S
C315   H317    1.107   .     S
C315   H318    1.107   .     S
H319   C58     1.105   1_565 S
C321   C325    1.461   .     S
C321   O357    1.291   .     A
C321   O355    1.301   .     A
C322   O358    1.298   .     A
C322   C326    1.459   .     S
C322   O356    1.295   .     A
C323   C340    1.398   .     A
C323   H349    1.085   .     S
C324   H350    1.085   .     S
C324   C339    1.396   .     A
C324   C278    1.394   1_655 S
C326   C69     1.351   1_565 S
C326   C122    1.524   1_565 S
C327   C332    1.447   .     S
C327   O359    1.296   .     A
C327   O361    1.293   .     A
C328   C331    1.441   .     S
C328   O360    1.295   .     A
C328   O362    1.291   .     A
C329   H345    1.086   .     S
C329   C331    1.390   .     A
C329   C339    1.389   .     A
C330   C340    1.391   .     A
C330   H346    1.081   .     S
C330   C332    1.392   .     A
C331   C333    1.395   .     A
C332   C334    1.398   .     A
C333   C335    1.404   .     A
C333   H347    1.081   .     S
C334   C336    1.404   .     A
C334   H348    1.083   .     S
C335   C341    1.421   .     A
C335   C337    1.422   .     A
C336   C342    1.415   .     A
C336   C338    1.421   .     A
C337   C339    1.413   .     A
C337   C274    1.404   1_655 S
C338   C340    1.409   .     A
C341   C363    1.486   .     S
C341   C259    1.399   1_655 S
C342   C367    1.471   .     S
Cu343  O358    1.942   .     S
Cu343  Cu344   2.691   .     S
Cu343  N354    2.022   .     S
Cu343  O362    1.949   .     S
Cu343  O359    1.962   .     S
Cu343  O355    1.947   .     S
Cu344  N353    2.022   .     S
Cu344  O361    1.949   .     S
Cu344  O356    1.947   .     S
Cu344  O360    1.962   .     S
Cu344  O357    1.942   .     S
H351   N737    1.027   .     S
H352   N1122   1.029   1_554 S
N353   H1119   1.027   1_554 S
N353   N1122   1.295   1_554 S
N354   N737    1.295   .     S
N354   H736    1.029   .     S
C363   O364    1.223   .     D
O365   H366    1.014   .     S
O365   C107    1.399   1_565 S
C367   O369    1.396   .     S
C367   O112    1.222   1_565 S
O369   H114    1.014   1_565 S
C371   H377    1.103   .     S
C371   H376    1.107   .     S
C371   C69     1.531   1_565 S
C371   C116    1.526   1_565 S
C372   H374    1.107   .     S
C372   H373    1.111   .     S
H375   C116    1.110   1_565 S
C378   H384    1.107   .     S
C378   C379    1.531   .     S
C379   H380    1.107   .     S
C379   H381    1.107   .     S
C379   H382    1.107   .     S
H383   C122    1.105   1_565 S
C385   C389    1.461   .     S
C385   O421    1.291   .     A
C385   O419    1.301   .     A
C386   O422    1.298   .     A
C386   C390    1.459   .     S
C386   O420    1.295   .     A
C387   C404    1.398   .     A
C387   H413    1.085   .     S
C387   C469    1.399   1_455 S
C388   H414    1.085   .     S
C388   C403    1.396   .     A
C388   C470    1.394   .     S
C389   C646    1.351   1_545 S
C389   C691    1.531   1_545 S
C390   C517    1.351   .     S
C390   C570    1.524   .     S
C391   C396    1.447   .     S
C391   O423    1.296   .     A
C391   O425    1.293   .     A
C392   C395    1.441   .     S
C392   O424    1.295   .     A
C392   O426    1.291   .     A
C393   H409    1.086   .     S
C393   C395    1.390   .     A
C393   C403    1.389   .     A
C394   C404    1.391   .     A
C394   H410    1.081   .     S
C394   C396    1.392   .     A
C395   C397    1.395   .     A
C396   C398    1.398   .     A
C397   C399    1.404   .     A
C397   H411    1.081   .     S
C398   C400    1.404   .     A
C398   H412    1.083   .     S
C399   C405    1.421   .     A
C399   C401    1.422   .     A
C400   C406    1.415   .     A
C400   C402    1.421   .     A
C401   C403    1.413   .     A
C401   C466    1.404   .     S
C402   C404    1.409   .     A
C402   C465    1.404   1_455 S
C405   C427    1.486   .     S
C405   C451    1.399   .     S
C406   C431    1.471   .     S
C406   C452    1.394   1_455 S
Cu407  O422    1.942   .     S
Cu407  Cu408   2.691   .     S
Cu407  N418    2.022   .     S
Cu407  O426    1.949   .     S
Cu407  O423    1.962   .     S
Cu407  O419    1.947   .     S
Cu408  N417    2.022   .     S
Cu408  O425    1.949   .     S
Cu408  O420    1.947   .     S
Cu408  O424    1.962   .     S
Cu408  O421    1.942   .     S
H415   N801    1.027   .     S
N418   N801    1.295   .     S
N418   H800    1.029   .     S
C427   O428    1.223   .     D
C427   O685    1.399   1_545 S
O429   H430    1.014   .     S
O429   C555    1.399   .     S
C431   O433    1.396   .     S
C431   O560    1.222   .     S
O432   C687    1.222   1_545 S
O433   H562    1.014   .     S
H434   O689    1.014   1_545 S
C435   H441    1.103   .     S
C435   H440    1.107   .     S
C435   C517    1.531   .     S
C435   C564    1.526   .     S
C436   H438    1.107   .     S
C436   H437    1.111   .     S
C436   C691    1.526   1_545 S
C436   H695    1.110   1_545 S
H439   C564    1.110   .     S
C442   H448    1.107   .     S
C442   C443    1.531   .     S
C442   C646    1.524   1_545 S
C442   H703    1.105   1_545 S
C443   H444    1.107   .     S
C443   H445    1.107   .     S
C443   H446    1.107   .     S
H447   C570    1.105   .     S
C449   C453    1.461   .     S
C449   O485    1.291   .     A
C449   O483    1.301   .     A
C450   O486    1.298   .     A
C450   C454    1.459   .     S
C450   O484    1.295   .     A
C451   C468    1.398   .     A
C451   H477    1.085   .     S
C452   H478    1.085   .     S
C452   C467    1.396   .     A
C452   C406    1.394   1_655 S
C453   C710    1.351   1_545 S
C453   C755    1.531   1_545 S
C454   C581    1.351   .     S
C454   C634    1.524   .     S
C455   C460    1.447   .     S
C455   O487    1.296   .     A
C455   O489    1.293   .     A
C456   C459    1.441   .     S
C456   O488    1.295   .     A
C456   O490    1.291   .     A
C457   H473    1.086   .     S
C457   C459    1.390   .     A
C457   C467    1.389   .     A
C458   C468    1.391   .     A
C458   H474    1.081   .     S
C458   C460    1.392   .     A
C459   C461    1.395   .     A
C460   C462    1.398   .     A
C461   C463    1.404   .     A
C461   H475    1.081   .     S
C462   C464    1.404   .     A
C462   H476    1.083   .     S
C463   C469    1.421   .     A
C463   C465    1.422   .     A
C464   C470    1.415   .     A
C464   C466    1.421   .     A
C465   C467    1.413   .     A
C465   C402    1.404   1_655 S
C466   C468    1.409   .     A
C469   C491    1.486   .     S
C469   C387    1.399   1_655 S
C470   C495    1.471   .     S
Cu471  O486    1.942   .     S
Cu471  Cu472   2.691   .     S
Cu471  N482    2.022   .     S
Cu471  O490    1.949   .     S
Cu471  O487    1.962   .     S
Cu471  O483    1.947   .     S
Cu472  N481    2.022   .     S
Cu472  O489    1.949   .     S
Cu472  O484    1.947   .     S
Cu472  O488    1.962   .     S
Cu472  O485    1.942   .     S
H479   N865    1.027   .     S
N482   N865    1.295   .     S
N482   H864    1.029   .     S
C491   O492    1.223   .     D
C491   O749    1.399   1_545 S
O493   H494    1.014   .     S
O493   C619    1.399   .     S
C495   O497    1.396   .     S
C495   O624    1.222   .     S
O496   C751    1.222   1_545 S
O497   H626    1.014   .     S
H498   O753    1.014   1_545 S
C499   H505    1.103   .     S
C499   H504    1.107   .     S
C499   C581    1.531   .     S
C499   C628    1.526   .     S
C500   H502    1.107   .     S
C500   H501    1.111   .     S
C500   C755    1.526   1_545 S
C500   H759    1.110   1_545 S
H503   C628    1.110   .     S
C506   H512    1.107   .     S
C506   C507    1.531   .     S
C506   C710    1.524   1_545 S
C506   H767    1.105   1_545 S
C507   H508    1.107   .     S
C507   H509    1.107   .     S
C507   H510    1.107   .     S
H511   C634    1.105   .     S
C513   C517    1.461   .     S
C513   O549    1.291   .     A
C513   O547    1.301   .     A
C514   O550    1.298   .     A
C514   C518    1.459   .     S
C514   O548    1.295   .     A
C515   C532    1.398   .     A
C515   H541    1.085   .     S
C515   C597    1.399   1_455 S
C516   H542    1.085   .     S
C516   C531    1.396   .     A
C516   C598    1.394   .     S
C518   C645    1.351   .     S
C518   C698    1.524   .     S
C519   C524    1.447   .     S
C519   O551    1.296   .     A
C519   O553    1.293   .     A
C520   C523    1.441   .     S
C520   O552    1.295   .     A
C520   O554    1.291   .     A
C521   H537    1.086   .     S
C521   C523    1.390   .     A
C521   C531    1.389   .     A
C522   C532    1.391   .     A
C522   H538    1.081   .     S
C522   C524    1.392   .     A
C523   C525    1.395   .     A
C524   C526    1.398   .     A
C525   C527    1.404   .     A
C525   H539    1.081   .     S
C526   C528    1.404   .     A
C526   H540    1.083   .     S
C527   C533    1.421   .     A
C527   C529    1.422   .     A
C528   C534    1.415   .     A
C528   C530    1.421   .     A
C529   C531    1.413   .     A
C529   C594    1.404   .     S
C530   C532    1.409   .     A
C530   C593    1.404   1_455 S
C533   C555    1.486   .     S
C533   C579    1.399   .     S
C534   C559    1.471   .     S
C534   C580    1.394   1_455 S
Cu535  O550    1.942   .     S
Cu535  Cu536   2.691   .     S
Cu535  N546    2.022   .     S
Cu535  O554    1.949   .     S
Cu535  O551    1.962   .     S
Cu535  O547    1.947   .     S
Cu536  N545    2.022   .     S
Cu536  O553    1.949   .     S
Cu536  O548    1.947   .     S
Cu536  O552    1.962   .     S
Cu536  O549    1.942   .     S
H543   N929    1.027   .     S
N546   N929    1.295   .     S
N546   H928    1.029   .     S
C555   O556    1.223   .     D
O557   H558    1.014   .     S
O557   C683    1.399   .     S
C559   O561    1.396   .     S
C559   O688    1.222   .     S
O561   H690    1.014   .     S
C563   H569    1.103   .     S
C563   H568    1.107   .     S
C563   C645    1.531   .     S
C563   C692    1.526   .     S
C564   H566    1.107   .     S
C564   H565    1.111   .     S
H567   C692    1.110   .     S
C570   H576    1.107   .     S
C570   C571    1.531   .     S
C571   H572    1.107   .     S
C571   H573    1.107   .     S
C571   H574    1.107   .     S
H575   C698    1.105   .     S
C577   C581    1.461   .     S
C577   O613    1.291   .     A
C577   O611    1.301   .     A
C578   O614    1.298   .     A
C578   C582    1.459   .     S
C578   O612    1.295   .     A
C579   C596    1.398   .     A
C579   H605    1.085   .     S
C580   H606    1.085   .     S
C580   C595    1.396   .     A
C580   C534    1.394   1_655 S
C582   C709    1.351   .     S
C582   C762    1.524   .     S
C583   C588    1.447   .     S
C583   O615    1.296   .     A
C583   O617    1.293   .     A
C584   C587    1.441   .     S
C584   O616    1.295   .     A
C584   O618    1.291   .     A
C585   H601    1.086   .     S
C585   C587    1.390   .     A
C585   C595    1.389   .     A
C586   C596    1.391   .     A
C586   H602    1.081   .     S
C586   C588    1.392   .     A
C587   C589    1.395   .     A
C588   C590    1.398   .     A
C589   C591    1.404   .     A
C589   H603    1.081   .     S
C590   C592    1.404   .     A
C590   H604    1.083   .     S
C591   C597    1.421   .     A
C591   C593    1.422   .     A
C592   C598    1.415   .     A
C592   C594    1.421   .     A
C593   C595    1.413   .     A
C593   C530    1.404   1_655 S
C594   C596    1.409   .     A
C597   C619    1.486   .     S
C597   C515    1.399   1_655 S
C598   C623    1.471   .     S
Cu599  O614    1.942   .     S
Cu599  Cu600   2.691   .     S
Cu599  N610    2.022   .     S
Cu599  O618    1.949   .     S
Cu599  O615    1.962   .     S
Cu599  O611    1.947   .     S
Cu600  N609    2.022   .     S
Cu600  O617    1.949   .     S
Cu600  O612    1.947   .     S
Cu600  O616    1.962   .     S
Cu600  O613    1.942   .     S
H607   N993    1.027   .     S
N610   N993    1.295   .     S
N610   H992    1.029   .     S
C619   O620    1.223   .     D
O621   H622    1.014   .     S
O621   C747    1.399   .     S
C623   O625    1.396   .     S
C623   O752    1.222   .     S
O625   H754    1.014   .     S
C627   H633    1.103   .     S
C627   H632    1.107   .     S
C627   C709    1.531   .     S
C627   C756    1.526   .     S
C628   H630    1.107   .     S
C628   H629    1.111   .     S
H631   C756    1.110   .     S
C634   H640    1.107   .     S
C634   C635    1.531   .     S
C635   H636    1.107   .     S
C635   H637    1.107   .     S
C635   H638    1.107   .     S
H639   C762    1.105   .     S
C641   C645    1.461   .     S
C641   O677    1.291   .     A
C641   O675    1.301   .     A
C642   O678    1.298   .     A
C642   C646    1.459   .     S
C642   O676    1.295   .     A
C643   C660    1.398   .     A
C643   H669    1.085   .     S
C643   C725    1.399   1_455 S
C644   H670    1.085   .     S
C644   C659    1.396   .     A
C644   C726    1.394   .     S
C646   C389    1.351   1_565 S
C646   C442    1.524   1_565 S
C647   C652    1.447   .     S
C647   O679    1.296   .     A
C647   O681    1.293   .     A
C648   C651    1.441   .     S
C648   O680    1.295   .     A
C648   O682    1.291   .     A
C649   H665    1.086   .     S
C649   C651    1.390   .     A
C649   C659    1.389   .     A
C650   C660    1.391   .     A
C650   H666    1.081   .     S
C650   C652    1.392   .     A
C651   C653    1.395   .     A
C652   C654    1.398   .     A
C653   C655    1.404   .     A
C653   H667    1.081   .     S
C654   C656    1.404   .     A
C654   H668    1.083   .     S
C655   C661    1.421   .     A
C655   C657    1.422   .     A
C656   C662    1.415   .     A
C656   C658    1.421   .     A
C657   C659    1.413   .     A
C657   C722    1.404   .     S
C658   C660    1.409   .     A
C658   C721    1.404   1_455 S
C661   C683    1.486   .     S
C661   C707    1.399   .     S
C662   C687    1.471   .     S
C662   C708    1.394   1_455 S
Cu663  O678    1.942   .     S
Cu663  Cu664   2.691   .     S
Cu663  N674    2.022   .     S
Cu663  O682    1.949   .     S
Cu663  O679    1.962   .     S
Cu663  O675    1.947   .     S
Cu664  N673    2.022   .     S
Cu664  O681    1.949   .     S
Cu664  O676    1.947   .     S
Cu664  O680    1.962   .     S
Cu664  O677    1.942   .     S
H671   N1057   1.027   .     S
N674   N1057   1.295   .     S
N674   H1056   1.029   .     S
C683   O684    1.223   .     D
O685   H686    1.014   .     S
O685   C427    1.399   1_565 S
C687   O689    1.396   .     S
C687   O432    1.222   1_565 S
O689   H434    1.014   1_565 S
C691   H697    1.103   .     S
C691   H696    1.107   .     S
C691   C389    1.531   1_565 S
C691   C436    1.526   1_565 S
C692   H694    1.107   .     S
C692   H693    1.111   .     S
H695   C436    1.110   1_565 S
C698   H704    1.107   .     S
C698   C699    1.531   .     S
C699   H700    1.107   .     S
C699   H701    1.107   .     S
C699   H702    1.107   .     S
H703   C442    1.105   1_565 S
C705   C709    1.461   .     S
C705   O741    1.291   .     A
C705   O739    1.301   .     A
C706   O742    1.298   .     A
C706   C710    1.459   .     S
C706   O740    1.295   .     A
C707   C724    1.398   .     A
C707   H733    1.085   .     S
C708   H734    1.085   .     S
C708   C723    1.396   .     A
C708   C662    1.394   1_655 S
C710   C453    1.351   1_565 S
C710   C506    1.524   1_565 S
C711   C716    1.447   .     S
C711   O743    1.296   .     A
C711   O745    1.293   .     A
C712   C715    1.441   .     S
C712   O744    1.295   .     A
C712   O746    1.291   .     A
C713   H729    1.086   .     S
C713   C715    1.390   .     A
C713   C723    1.389   .     A
C714   C724    1.391   .     A
C714   H730    1.081   .     S
C714   C716    1.392   .     A
C715   C717    1.395   .     A
C716   C718    1.398   .     A
C717   C719    1.404   .     A
C717   H731    1.081   .     S
C718   C720    1.404   .     A
C718   H732    1.083   .     S
C719   C725    1.421   .     A
C719   C721    1.422   .     A
C720   C726    1.415   .     A
C720   C722    1.421   .     A
C721   C723    1.413   .     A
C721   C658    1.404   1_655 S
C722   C724    1.409   .     A
C725   C747    1.486   .     S
C725   C643    1.399   1_655 S
C726   C751    1.471   .     S
Cu727  O742    1.942   .     S
Cu727  Cu728   2.691   .     S
Cu727  N738    2.022   .     S
Cu727  O746    1.949   .     S
Cu727  O743    1.962   .     S
Cu727  O739    1.947   .     S
Cu728  N737    2.022   .     S
Cu728  O745    1.949   .     S
Cu728  O740    1.947   .     S
Cu728  O744    1.962   .     S
Cu728  O741    1.942   .     S
H735   N1121   1.027   .     S
N738   N1121   1.295   .     S
N738   H1120   1.029   .     S
C747   O748    1.223   .     D
O749   H750    1.014   .     S
O749   C491    1.399   1_565 S
C751   O753    1.396   .     S
C751   O496    1.222   1_565 S
O753   H498    1.014   1_565 S
C755   H761    1.103   .     S
C755   H760    1.107   .     S
C755   C453    1.531   1_565 S
C755   C500    1.526   1_565 S
C756   H758    1.107   .     S
C756   H757    1.111   .     S
H759   C500    1.110   1_565 S
C762   H768    1.107   .     S
C762   C763    1.531   .     S
C763   H764    1.107   .     S
C763   H765    1.107   .     S
C763   H766    1.107   .     S
H767   C506    1.105   1_565 S
C769   C773    1.461   .     S
C769   O805    1.291   .     A
C769   O803    1.301   .     A
C770   O806    1.298   .     A
C770   C774    1.459   .     S
C770   O804    1.295   .     A
C771   C788    1.398   .     A
C771   H797    1.085   .     S
C771   C853    1.399   1_455 S
C772   H798    1.085   .     S
C772   C787    1.396   .     A
C772   C854    1.394   .     S
C773   C1030   1.351   1_545 S
C773   C1075   1.531   1_545 S
C774   C901    1.351   .     S
C774   C954    1.524   .     S
C775   C780    1.447   .     S
C775   O807    1.296   .     A
C775   O809    1.293   .     A
C776   C779    1.441   .     S
C776   O808    1.295   .     A
C776   O810    1.291   .     A
C777   H793    1.086   .     S
C777   C779    1.390   .     A
C777   C787    1.389   .     A
C778   C788    1.391   .     A
C778   H794    1.081   .     S
C778   C780    1.392   .     A
C779   C781    1.395   .     A
C780   C782    1.398   .     A
C781   C783    1.404   .     A
C781   H795    1.081   .     S
C782   C784    1.404   .     A
C782   H796    1.083   .     S
C783   C789    1.421   .     A
C783   C785    1.422   .     A
C784   C790    1.415   .     A
C784   C786    1.421   .     A
C785   C787    1.413   .     A
C785   C850    1.404   .     S
C786   C788    1.409   .     A
C786   C849    1.404   1_455 S
C789   C811    1.486   .     S
C789   C835    1.399   .     S
C790   C815    1.471   .     S
C790   C836    1.394   1_455 S
Cu791  O806    1.942   .     S
Cu791  Cu792   2.691   .     S
Cu791  N802    2.022   .     S
Cu791  O810    1.949   .     S
Cu791  O807    1.962   .     S
Cu791  O803    1.947   .     S
Cu792  N801    2.022   .     S
Cu792  O809    1.949   .     S
Cu792  O804    1.947   .     S
Cu792  O808    1.962   .     S
Cu792  O805    1.942   .     S
H799   N33     1.027   1_556 S
N802   N33     1.295   1_556 S
N802   H32     1.029   1_556 S
C811   O812    1.223   .     D
C811   O1069   1.399   1_545 S
O813   H814    1.014   .     S
O813   C939    1.399   .     S
C815   O817    1.396   .     S
C815   O944    1.222   .     S
O816   C1071   1.222   1_545 S
O817   H946    1.014   .     S
H818   O1073   1.014   1_545 S
C819   H825    1.103   .     S
C819   H824    1.107   .     S
C819   C901    1.531   .     S
C819   C948    1.526   .     S
C820   H822    1.107   .     S
C820   H821    1.111   .     S
C820   C1075   1.526   1_545 S
C820   H1079   1.110   1_545 S
H823   C948    1.110   .     S
C826   H832    1.107   .     S
C826   C827    1.531   .     S
C826   C1030   1.524   1_545 S
C826   H1087   1.105   1_545 S
C827   H828    1.107   .     S
C827   H829    1.107   .     S
C827   H830    1.107   .     S
H831   C954    1.105   .     S
C833   C837    1.461   .     S
C833   O869    1.291   .     A
C833   O867    1.301   .     A
C834   O870    1.298   .     A
C834   C838    1.459   .     S
C834   O868    1.295   .     A
C835   C852    1.398   .     A
C835   H861    1.085   .     S
C836   H862    1.085   .     S
C836   C851    1.396   .     A
C836   C790    1.394   1_655 S
C837   C1094   1.351   1_545 S
C837   C1139   1.531   1_545 S
C838   C965    1.351   .     S
C838   C1018   1.524   .     S
C839   C844    1.447   .     S
C839   O871    1.296   .     A
C839   O873    1.293   .     A
C840   C843    1.441   .     S
C840   O872    1.295   .     A
C840   O874    1.291   .     A
C841   H857    1.086   .     S
C841   C843    1.390   .     A
C841   C851    1.389   .     A
C842   C852    1.391   .     A
C842   H858    1.081   .     S
C842   C844    1.392   .     A
C843   C845    1.395   .     A
C844   C846    1.398   .     A
C845   C847    1.404   .     A
C845   H859    1.081   .     S
C846   C848    1.404   .     A
C846   H860    1.083   .     S
C847   C853    1.421   .     A
C847   C849    1.422   .     A
C848   C854    1.415   .     A
C848   C850    1.421   .     A
C849   C851    1.413   .     A
C849   C786    1.404   1_655 S
C850   C852    1.409   .     A
C853   C875    1.486   .     S
C853   C771    1.399   1_655 S
C854   C879    1.471   .     S
Cu855  O870    1.942   .     S
Cu855  Cu856   2.691   .     S
Cu855  N866    2.022   .     S
Cu855  O874    1.949   .     S
Cu855  O871    1.962   .     S
Cu855  O867    1.947   .     S
Cu856  N865    2.022   .     S
Cu856  O873    1.949   .     S
Cu856  O868    1.947   .     S
Cu856  O872    1.962   .     S
Cu856  O869    1.942   .     S
H863   N97     1.027   1_556 S
N866   N97     1.295   1_556 S
N866   H96     1.029   1_556 S
C875   O876    1.223   .     D
C875   O1133   1.399   1_545 S
O877   H878    1.014   .     S
O877   C1003   1.399   .     S
C879   O881    1.396   .     S
C879   O1008   1.222   .     S
O880   C1135   1.222   1_545 S
O881   H1010   1.014   .     S
H882   O1137   1.014   1_545 S
C883   H889    1.103   .     S
C883   H888    1.107   .     S
C883   C965    1.531   .     S
C883   C1012   1.526   .     S
C884   H886    1.107   .     S
C884   H885    1.111   .     S
C884   C1139   1.526   1_545 S
C884   H1143   1.110   1_545 S
H887   C1012   1.110   .     S
C890   H896    1.107   .     S
C890   C891    1.531   .     S
C890   C1094   1.524   1_545 S
C890   H1151   1.105   1_545 S
C891   H892    1.107   .     S
C891   H893    1.107   .     S
C891   H894    1.107   .     S
H895   C1018   1.105   .     S
C897   C901    1.461   .     S
C897   O933    1.291   .     A
C897   O931    1.301   .     A
C898   O934    1.298   .     A
C898   C902    1.459   .     S
C898   O932    1.295   .     A
C899   C916    1.398   .     A
C899   H925    1.085   .     S
C899   C981    1.399   1_455 S
C900   H926    1.085   .     S
C900   C915    1.396   .     A
C900   C982    1.394   .     S
C902   C1029   1.351   .     S
C902   C1082   1.524   .     S
C903   C908    1.447   .     S
C903   O935    1.296   .     A
C903   O937    1.293   .     A
C904   C907    1.441   .     S
C904   O936    1.295   .     A
C904   O938    1.291   .     A
C905   H921    1.086   .     S
C905   C907    1.390   .     A
C905   C915    1.389   .     A
C906   C916    1.391   .     A
C906   H922    1.081   .     S
C906   C908    1.392   .     A
C907   C909    1.395   .     A
C908   C910    1.398   .     A
C909   C911    1.404   .     A
C909   H923    1.081   .     S
C910   C912    1.404   .     A
C910   H924    1.083   .     S
C911   C917    1.421   .     A
C911   C913    1.422   .     A
C912   C918    1.415   .     A
C912   C914    1.421   .     A
C913   C915    1.413   .     A
C913   C978    1.404   .     S
C914   C916    1.409   .     A
C914   C977    1.404   1_455 S
C917   C939    1.486   .     S
C917   C963    1.399   .     S
C918   C943    1.471   .     S
C918   C964    1.394   1_455 S
Cu919  O934    1.942   .     S
Cu919  Cu920   2.691   .     S
Cu919  N930    2.022   .     S
Cu919  O938    1.949   .     S
Cu919  O935    1.962   .     S
Cu919  O931    1.947   .     S
Cu920  N929    2.022   .     S
Cu920  O937    1.949   .     S
Cu920  O932    1.947   .     S
Cu920  O936    1.962   .     S
Cu920  O933    1.942   .     S
H927   N161    1.027   1_556 S
N930   N161    1.295   1_556 S
N930   H160    1.029   1_556 S
C939   O940    1.223   .     D
O941   H942    1.014   .     S
O941   C1067   1.399   .     S
C943   O945    1.396   .     S
C943   O1072   1.222   .     S
O945   H1074   1.014   .     S
C947   H953    1.103   .     S
C947   H952    1.107   .     S
C947   C1029   1.531   .     S
C947   C1076   1.526   .     S
C948   H950    1.107   .     S
C948   H949    1.111   .     S
H951   C1076   1.110   .     S
C954   H960    1.107   .     S
C954   C955    1.531   .     S
C955   H956    1.107   .     S
C955   H957    1.107   .     S
C955   H958    1.107   .     S
H959   C1082   1.105   .     S
C961   C965    1.461   .     S
C961   O997    1.291   .     A
C961   O995    1.301   .     A
C962   O998    1.298   .     A
C962   C966    1.459   .     S
C962   O996    1.295   .     A
C963   C980    1.398   .     A
C963   H989    1.085   .     S
C964   H990    1.085   .     S
C964   C979    1.396   .     A
C964   C918    1.394   1_655 S
C966   C1093   1.351   .     S
C966   C1146   1.524   .     S
C967   C972    1.447   .     S
C967   O999    1.296   .     A
C967   O1001   1.293   .     A
C968   C971    1.441   .     S
C968   O1000   1.295   .     A
C968   O1002   1.291   .     A
C969   H985    1.086   .     S
C969   C971    1.390   .     A
C969   C979    1.389   .     A
C970   C980    1.391   .     A
C970   H986    1.081   .     S
C970   C972    1.392   .     A
C971   C973    1.395   .     A
C972   C974    1.398   .     A
C973   C975    1.404   .     A
C973   H987    1.081   .     S
C974   C976    1.404   .     A
C974   H988    1.083   .     S
C975   C981    1.421   .     A
C975   C977    1.422   .     A
C976   C982    1.415   .     A
C976   C978    1.421   .     A
C977   C979    1.413   .     A
C977   C914    1.404   1_655 S
C978   C980    1.409   .     A
C981   C1003   1.486   .     S
C981   C899    1.399   1_655 S
C982   C1007   1.471   .     S
Cu983  O998    1.942   .     S
Cu983  Cu984   2.691   .     S
Cu983  N994    2.022   .     S
Cu983  O1002   1.949   .     S
Cu983  O999    1.962   .     S
Cu983  O995    1.947   .     S
Cu984  N993    2.022   .     S
Cu984  O1001   1.949   .     S
Cu984  O996    1.947   .     S
Cu984  O1000   1.962   .     S
Cu984  O997    1.942   .     S
H991   N225    1.027   1_556 S
N994   N225    1.295   1_556 S
N994   H224    1.029   1_556 S
C1003  O1004   1.223   .     D
O1005  H1006   1.014   .     S
O1005  C1131   1.399   .     S
C1007  O1009   1.396   .     S
C1007  O1136   1.222   .     S
O1009  H1138   1.014   .     S
C1011  H1017   1.103   .     S
C1011  H1016   1.107   .     S
C1011  C1093   1.531   .     S
C1011  C1140   1.526   .     S
C1012  H1014   1.107   .     S
C1012  H1013   1.111   .     S
H1015  C1140   1.110   .     S
C1018  H1024   1.107   .     S
C1018  C1019   1.531   .     S
C1019  H1020   1.107   .     S
C1019  H1021   1.107   .     S
C1019  H1022   1.107   .     S
H1023  C1146   1.105   .     S
C1025  C1029   1.461   .     S
C1025  O1061   1.291   .     A
C1025  O1059   1.301   .     A
C1026  O1062   1.298   .     A
C1026  C1030   1.459   .     S
C1026  O1060   1.295   .     A
C1027  C1044   1.398   .     A
C1027  H1053   1.085   .     S
C1027  C1109   1.399   1_455 S
C1028  H1054   1.085   .     S
C1028  C1043   1.396   .     A
C1028  C1110   1.394   .     S
C1030  C773    1.351   1_565 S
C1030  C826    1.524   1_565 S
C1031  C1036   1.447   .     S
C1031  O1063   1.296   .     A
C1031  O1065   1.293   .     A
C1032  C1035   1.441   .     S
C1032  O1064   1.295   .     A
C1032  O1066   1.291   .     A
C1033  H1049   1.086   .     S
C1033  C1035   1.390   .     A
C1033  C1043   1.389   .     A
C1034  C1044   1.391   .     A
C1034  H1050   1.081   .     S
C1034  C1036   1.392   .     A
C1035  C1037   1.395   .     A
C1036  C1038   1.398   .     A
C1037  C1039   1.404   .     A
C1037  H1051   1.081   .     S
C1038  C1040   1.404   .     A
C1038  H1052   1.083   .     S
C1039  C1045   1.421   .     A
C1039  C1041   1.422   .     A
C1040  C1046   1.415   .     A
C1040  C1042   1.421   .     A
C1041  C1043   1.413   .     A
C1041  C1106   1.404   .     S
C1042  C1044   1.409   .     A
C1042  C1105   1.404   1_455 S
C1045  C1067   1.486   .     S
C1045  C1091   1.399   .     S
C1046  C1071   1.471   .     S
C1046  C1092   1.394   1_455 S
Cu1047 O1062   1.942   .     S
Cu1047 Cu1048  2.691   .     S
Cu1047 N1058   2.022   .     S
Cu1047 O1066   1.949   .     S
Cu1047 O1063   1.962   .     S
Cu1047 O1059   1.947   .     S
Cu1048 N1057   2.022   .     S
Cu1048 O1065   1.949   .     S
Cu1048 O1060   1.947   .     S
Cu1048 O1064   1.962   .     S
Cu1048 O1061   1.942   .     S
H1055  N289    1.027   1_556 S
N1058  N289    1.295   1_556 S
N1058  H288    1.029   1_556 S
C1067  O1068   1.223   .     D
O1069  H1070   1.014   .     S
O1069  C811    1.399   1_565 S
C1071  O1073   1.396   .     S
C1071  O816    1.222   1_565 S
O1073  H818    1.014   1_565 S
C1075  H1081   1.103   .     S
C1075  H1080   1.107   .     S
C1075  C773    1.531   1_565 S
C1075  C820    1.526   1_565 S
C1076  H1078   1.107   .     S
C1076  H1077   1.111   .     S
H1079  C820    1.110   1_565 S
C1082  H1088   1.107   .     S
C1082  C1083   1.531   .     S
C1083  H1084   1.107   .     S
C1083  H1085   1.107   .     S
C1083  H1086   1.107   .     S
H1087  C826    1.105   1_565 S
C1089  C1093   1.461   .     S
C1089  O1125   1.291   .     A
C1089  O1123   1.301   .     A
C1090  O1126   1.298   .     A
C1090  C1094   1.459   .     S
C1090  O1124   1.295   .     A
C1091  C1108   1.398   .     A
C1091  H1117   1.085   .     S
C1092  H1118   1.085   .     S
C1092  C1107   1.396   .     A
C1092  C1046   1.394   1_655 S
C1094  C837    1.351   1_565 S
C1094  C890    1.524   1_565 S
C1095  C1100   1.447   .     S
C1095  O1127   1.296   .     A
C1095  O1129   1.293   .     A
C1096  C1099   1.441   .     S
C1096  O1128   1.295   .     A
C1096  O1130   1.291   .     A
C1097  H1113   1.086   .     S
C1097  C1099   1.390   .     A
C1097  C1107   1.389   .     A
C1098  C1108   1.391   .     A
C1098  H1114   1.081   .     S
C1098  C1100   1.392   .     A
C1099  C1101   1.395   .     A
C1100  C1102   1.398   .     A
C1101  C1103   1.404   .     A
C1101  H1115   1.081   .     S
C1102  C1104   1.404   .     A
C1102  H1116   1.083   .     S
C1103  C1109   1.421   .     A
C1103  C1105   1.422   .     A
C1104  C1110   1.415   .     A
C1104  C1106   1.421   .     A
C1105  C1107   1.413   .     A
C1105  C1042   1.404   1_655 S
C1106  C1108   1.409   .     A
C1109  C1131   1.486   .     S
C1109  C1027   1.399   1_655 S
C1110  C1135   1.471   .     S
Cu1111 O1126   1.942   .     S
Cu1111 Cu1112  2.691   .     S
Cu1111 N1122   2.022   .     S
Cu1111 O1130   1.949   .     S
Cu1111 O1127   1.962   .     S
Cu1111 O1123   1.947   .     S
Cu1112 N1121   2.022   .     S
Cu1112 O1129   1.949   .     S
Cu1112 O1124   1.947   .     S
Cu1112 O1128   1.962   .     S
Cu1112 O1125   1.942   .     S
H1119  N353    1.027   1_556 S
N1122  N353    1.295   1_556 S
N1122  H352    1.029   1_556 S
C1131  O1132   1.223   .     D
O1133  H1134   1.014   .     S
O1133  C875    1.399   1_565 S
C1135  O1137   1.396   .     S
C1135  O880    1.222   1_565 S
O1137  H882    1.014   1_565 S
C1139  H1145   1.103   .     S
C1139  H1144   1.107   .     S
C1139  C837    1.531   1_565 S
C1139  C884    1.526   1_565 S
C1140  H1142   1.107   .     S
C1140  H1141   1.111   .     S
H1143  C884    1.110   1_565 S
C1146  H1152   1.107   .     S
C1146  C1147   1.531   .     S
C1147  H1148   1.107   .     S
C1147  H1149   1.107   .     S
C1147  H1150   1.107   .     S
H1151  C890    1.105   1_565 S
