data_str_m1_o10_o16_pcu_sym.150
_audit_creation_date              2020-01-03
_audit_creation_method            'Materials Studio'
_symmetry_space_group_name_H-M    'P1'
_symmetry_Int_Tables_number       1
_symmetry_cell_setting            triclinic
loop_
_symmetry_equiv_pos_as_xyz
  x,y,z
_cell_length_a                    32.5303
_cell_length_b                    32.5082
_cell_length_c                    31.0584
_cell_angle_alpha                 96.7752
_cell_angle_beta                  75.0338
_cell_angle_gamma                 98.6049
loop_
_atom_site_label
_atom_site_type_symbol
_atom_site_fract_x
_atom_site_fract_y
_atom_site_fract_z
_atom_site_U_iso_or_equiv
_atom_site_adp_type
_atom_site_occupancy
C1     C     0.05271   0.15954   0.25999   0.00000  Uiso   1.00
C2     C     0.14660   0.25232   0.47940   0.00000  Uiso   1.00
C3     C     0.15754   0.22541   0.00492   0.00000  Uiso   1.00
C4     C     0.16189   0.18328   0.48922   0.00000  Uiso   1.00
C5     C     0.15364   0.16865   0.44683   0.00000  Uiso   1.00
C6     C     0.17414   0.15515   0.01423   0.00000  Uiso   1.00
C7     C     0.17711   0.11298   0.49670   0.00000  Uiso   1.00
C8     C     0.16576   0.09867   0.45684   0.00000  Uiso   1.00
C9     C     0.15299   0.12568   0.43302   0.00000  Uiso   1.00
C10    C     0.18225   0.16700   0.05674   0.00000  Uiso   1.00
C11    C     0.19627   0.09680   0.06255   0.00000  Uiso   1.00
C12    C     0.28073   0.17378   0.24005   0.00000  Uiso   1.00
C13    C     0.14604   0.19719   0.41921   0.00000  Uiso   1.00
C14    C     0.32656   0.17651   0.23611   0.00000  Uiso   1.00
C15    C     0.00745   0.15692   0.26377   0.00000  Uiso   1.00
C16    C     0.18032   0.32243   0.23657   0.00000  Uiso   1.00
C17    C     0.15169   0.01170   0.26373   0.00000  Uiso   1.00
C18    C     0.15605   0.05583   0.26017   0.00000  Uiso   1.00
C19    C     0.17653   0.27787   0.24020   0.00000  Uiso   1.00
C20    C     0.18523   0.14766   0.12941   0.00000  Uiso   1.00
C21    C     0.14885   0.18504   0.37099   0.00000  Uiso   1.00
C22    C     0.18955   0.08474   0.02017   0.00000  Uiso   1.00
C23    C     0.19139   0.13786   0.08134   0.00000  Uiso   1.00
C24    C     0.14157   0.23910   0.43663   0.00000  Uiso   1.00
H25    H     0.31920   0.13879   0.28957   0.00000  Uiso   1.00
H26    H     0.20671   0.00365   0.21159   0.00000  Uiso   1.00
H27    H     0.12492   0.33127   0.28881   0.00000  Uiso   1.00
H28    H     0.16594   0.06608   0.44435   0.00000  Uiso   1.00
H29    H     0.19219   0.05272   0.00628   0.00000  Uiso   1.00
H30    H     0.17854   0.19773   0.07331   0.00000  Uiso   1.00
H31    H     0.16234   0.23888   0.03686   0.00000  Uiso   1.00
H32    H     0.14359   0.28442   0.49268   0.00000  Uiso   1.00
H33    H     0.14203   0.11207   0.40388   0.00000  Uiso   1.00
H34    H     0.01551   0.19453   0.21059   0.00000  Uiso   1.00
O35    O     0.16667   0.16667   0.25000   0.00000  Uiso   1.00
O36    O     0.17930   0.08019   0.28214   0.00000  Uiso   1.00
O37    O     0.14632   0.26085   0.27014   0.00000  Uiso   1.00
O38    O     0.07412   0.13291   0.23413   0.00000  Uiso   1.00
O39    O     0.26693   0.19272   0.21361   0.00000  Uiso   1.00
O40    O     0.07071   0.18878   0.28213   0.00000  Uiso   1.00
O41    O     0.25491   0.15226   0.27014   0.00000  Uiso   1.00
O42    O     0.13760   0.06944   0.23413   0.00000  Uiso   1.00
O43    O     0.20345   0.25620   0.21361   0.00000  Uiso   1.00
O44    O     0.15451   0.12637   0.15459   0.00000  Uiso   1.00
O45    O     0.12940   0.20391   0.34968   0.00000  Uiso   1.00
O46    O     0.20824   0.17759   0.14606   0.00000  Uiso   1.00
O47    O     0.17451   0.15880   0.34968   0.00000  Uiso   1.00
Zn48   Zn    0.19338   0.13994   0.28734   0.00000  Uiso   1.00
Zn49   Zn    0.13379   0.12458   0.21876   0.00000  Uiso   1.00
Zn50   Zn    0.21056   0.19775   0.20657   0.00000  Uiso   1.00
Zn51   Zn    0.12893   0.20439   0.28734   0.00000  Uiso   1.00
C52    C     0.20631   0.06609   0.08708   0.00000  Uiso   1.00
N53    N     0.21432   0.04152   0.10676   0.00000  Uiso   1.00
C54    C     0.13422   0.27032   0.41085   0.00000  Uiso   1.00
N55    N     0.12838   0.29541   0.39031   0.00000  Uiso   1.00
C56    C     0.38604   0.15954   0.25999   0.00000  Uiso   1.00
C57    C     0.47993   0.25232   0.47940   0.00000  Uiso   1.00
C58    C     0.49087   0.22541   0.00492   0.00000  Uiso   1.00
C59    C     0.49523   0.18328   0.48922   0.00000  Uiso   1.00
C60    C     0.48697   0.16865   0.44683   0.00000  Uiso   1.00
C61    C     0.50748   0.15515   0.01423   0.00000  Uiso   1.00
C62    C     0.51045   0.11298   0.49670   0.00000  Uiso   1.00
C63    C     0.49909   0.09867   0.45684   0.00000  Uiso   1.00
C64    C     0.48632   0.12568   0.43302   0.00000  Uiso   1.00
C65    C     0.51558   0.16700   0.05674   0.00000  Uiso   1.00
C66    C     0.52961   0.09680   0.06255   0.00000  Uiso   1.00
C67    C     0.61406   0.17378   0.24005   0.00000  Uiso   1.00
C68    C     0.47937   0.19719   0.41921   0.00000  Uiso   1.00
C69    C     0.65989   0.17651   0.23611   0.00000  Uiso   1.00
C70    C     0.34078   0.15692   0.26377   0.00000  Uiso   1.00
C71    C     0.51365   0.32243   0.23657   0.00000  Uiso   1.00
C72    C     0.48502   0.01170   0.26373   0.00000  Uiso   1.00
C73    C     0.48938   0.05583   0.26017   0.00000  Uiso   1.00
C74    C     0.50986   0.27787   0.24020   0.00000  Uiso   1.00
C75    C     0.51856   0.14766   0.12941   0.00000  Uiso   1.00
C76    C     0.48219   0.18504   0.37099   0.00000  Uiso   1.00
C77    C     0.52288   0.08474   0.02017   0.00000  Uiso   1.00
C78    C     0.52472   0.13786   0.08134   0.00000  Uiso   1.00
C79    C     0.47490   0.23910   0.43663   0.00000  Uiso   1.00
H80    H     0.65253   0.13879   0.28957   0.00000  Uiso   1.00
H81    H     0.54004   0.00365   0.21159   0.00000  Uiso   1.00
H82    H     0.45826   0.33127   0.28881   0.00000  Uiso   1.00
H83    H     0.49927   0.06608   0.44435   0.00000  Uiso   1.00
H84    H     0.52552   0.05272   0.00628   0.00000  Uiso   1.00
H85    H     0.51188   0.19773   0.07331   0.00000  Uiso   1.00
H86    H     0.49567   0.23888   0.03686   0.00000  Uiso   1.00
H87    H     0.47693   0.28442   0.49268   0.00000  Uiso   1.00
H88    H     0.47536   0.11207   0.40388   0.00000  Uiso   1.00
H89    H     0.34885   0.19453   0.21059   0.00000  Uiso   1.00
O90    O     0.50000   0.16667   0.25000   0.00000  Uiso   1.00
O91    O     0.51264   0.08019   0.28214   0.00000  Uiso   1.00
O92    O     0.47965   0.26085   0.27014   0.00000  Uiso   1.00
O93    O     0.40745   0.13291   0.23413   0.00000  Uiso   1.00
O94    O     0.60026   0.19272   0.21361   0.00000  Uiso   1.00
O95    O     0.40405   0.18878   0.28213   0.00000  Uiso   1.00
O96    O     0.58824   0.15226   0.27014   0.00000  Uiso   1.00
O97    O     0.47093   0.06944   0.23413   0.00000  Uiso   1.00
O98    O     0.53678   0.25620   0.21361   0.00000  Uiso   1.00
O99    O     0.48784   0.12637   0.15459   0.00000  Uiso   1.00
O100   O     0.46274   0.20391   0.34968   0.00000  Uiso   1.00
O101   O     0.54157   0.17759   0.14606   0.00000  Uiso   1.00
O102   O     0.50785   0.15880   0.34968   0.00000  Uiso   1.00
Zn103  Zn    0.52672   0.13994   0.28734   0.00000  Uiso   1.00
Zn104  Zn    0.46713   0.12458   0.21876   0.00000  Uiso   1.00
Zn105  Zn    0.54389   0.19775   0.20657   0.00000  Uiso   1.00
Zn106  Zn    0.46226   0.20439   0.28734   0.00000  Uiso   1.00
C107   C     0.53965   0.06609   0.08708   0.00000  Uiso   1.00
N108   N     0.54766   0.04152   0.10676   0.00000  Uiso   1.00
C109   C     0.46755   0.27032   0.41085   0.00000  Uiso   1.00
N110   N     0.46172   0.29541   0.39031   0.00000  Uiso   1.00
C111   C     0.71937   0.15954   0.25999   0.00000  Uiso   1.00
C112   C     0.81327   0.25232   0.47940   0.00000  Uiso   1.00
C113   C     0.82421   0.22541   0.00492   0.00000  Uiso   1.00
C114   C     0.82856   0.18328   0.48922   0.00000  Uiso   1.00
C115   C     0.82030   0.16865   0.44683   0.00000  Uiso   1.00
C116   C     0.84081   0.15515   0.01423   0.00000  Uiso   1.00
C117   C     0.84378   0.11298   0.49670   0.00000  Uiso   1.00
C118   C     0.83242   0.09867   0.45684   0.00000  Uiso   1.00
C119   C     0.81965   0.12568   0.43302   0.00000  Uiso   1.00
C120   C     0.84891   0.16700   0.05674   0.00000  Uiso   1.00
C121   C     0.86294   0.09680   0.06255   0.00000  Uiso   1.00
C122   C     0.94739   0.17378   0.24005   0.00000  Uiso   1.00
C123   C     0.81270   0.19719   0.41921   0.00000  Uiso   1.00
C124   C     0.99322   0.17651   0.23611   0.00000  Uiso   1.00
C125   C     0.67412   0.15692   0.26377   0.00000  Uiso   1.00
C126   C     0.84699   0.32243   0.23657   0.00000  Uiso   1.00
C127   C     0.81835   0.01170   0.26373   0.00000  Uiso   1.00
C128   C     0.82271   0.05583   0.26017   0.00000  Uiso   1.00
C129   C     0.84319   0.27787   0.24020   0.00000  Uiso   1.00
C130   C     0.85190   0.14766   0.12941   0.00000  Uiso   1.00
C131   C     0.81552   0.18504   0.37099   0.00000  Uiso   1.00
C132   C     0.85621   0.08474   0.02017   0.00000  Uiso   1.00
C133   C     0.85805   0.13786   0.08134   0.00000  Uiso   1.00
C134   C     0.80824   0.23910   0.43663   0.00000  Uiso   1.00
H135   H     0.98586   0.13879   0.28957   0.00000  Uiso   1.00
H136   H     0.87337   0.00365   0.21159   0.00000  Uiso   1.00
H137   H     0.79159   0.33127   0.28881   0.00000  Uiso   1.00
H138   H     0.83260   0.06608   0.44435   0.00000  Uiso   1.00
H139   H     0.85885   0.05272   0.00628   0.00000  Uiso   1.00
H140   H     0.84521   0.19773   0.07331   0.00000  Uiso   1.00
H141   H     0.82901   0.23888   0.03686   0.00000  Uiso   1.00
H142   H     0.81026   0.28442   0.49268   0.00000  Uiso   1.00
H143   H     0.80869   0.11207   0.40388   0.00000  Uiso   1.00
H144   H     0.68218   0.19453   0.21059   0.00000  Uiso   1.00
O145   O     0.83333   0.16667   0.25000   0.00000  Uiso   1.00
O146   O     0.84597   0.08019   0.28214   0.00000  Uiso   1.00
O147   O     0.81298   0.26085   0.27014   0.00000  Uiso   1.00
O148   O     0.74078   0.13291   0.23413   0.00000  Uiso   1.00
O149   O     0.93360   0.19272   0.21361   0.00000  Uiso   1.00
O150   O     0.73738   0.18878   0.28213   0.00000  Uiso   1.00
O151   O     0.92158   0.15226   0.27014   0.00000  Uiso   1.00
O152   O     0.80426   0.06944   0.23413   0.00000  Uiso   1.00
O153   O     0.87012   0.25620   0.21361   0.00000  Uiso   1.00
O154   O     0.82118   0.12637   0.15459   0.00000  Uiso   1.00
O155   O     0.79607   0.20391   0.34968   0.00000  Uiso   1.00
O156   O     0.87491   0.17759   0.14606   0.00000  Uiso   1.00
O157   O     0.84118   0.15880   0.34968   0.00000  Uiso   1.00
Zn158  Zn    0.86005   0.13994   0.28734   0.00000  Uiso   1.00
Zn159  Zn    0.80046   0.12458   0.21876   0.00000  Uiso   1.00
Zn160  Zn    0.87723   0.19775   0.20657   0.00000  Uiso   1.00
Zn161  Zn    0.79560   0.20439   0.28734   0.00000  Uiso   1.00
C162   C     0.87298   0.06609   0.08708   0.00000  Uiso   1.00
N163   N     0.88099   0.04152   0.10676   0.00000  Uiso   1.00
C164   C     0.80089   0.27032   0.41085   0.00000  Uiso   1.00
N165   N     0.79505   0.29541   0.39031   0.00000  Uiso   1.00
C166   C     0.05271   0.49288   0.25999   0.00000  Uiso   1.00
C167   C     0.14660   0.58565   0.47940   0.00000  Uiso   1.00
C168   C     0.15754   0.55874   0.00492   0.00000  Uiso   1.00
C169   C     0.16189   0.51662   0.48922   0.00000  Uiso   1.00
C170   C     0.15364   0.50198   0.44683   0.00000  Uiso   1.00
C171   C     0.17414   0.48848   0.01423   0.00000  Uiso   1.00
C172   C     0.17711   0.44632   0.49670   0.00000  Uiso   1.00
C173   C     0.16576   0.43200   0.45684   0.00000  Uiso   1.00
C174   C     0.15299   0.45901   0.43302   0.00000  Uiso   1.00
C175   C     0.18225   0.50034   0.05674   0.00000  Uiso   1.00
C176   C     0.19627   0.43014   0.06255   0.00000  Uiso   1.00
C177   C     0.28073   0.50711   0.24005   0.00000  Uiso   1.00
C178   C     0.14604   0.53052   0.41921   0.00000  Uiso   1.00
C179   C     0.32656   0.50984   0.23611   0.00000  Uiso   1.00
C180   C     0.00745   0.49025   0.26377   0.00000  Uiso   1.00
C181   C     0.18032   0.65576   0.23657   0.00000  Uiso   1.00
C182   C     0.15169   0.34503   0.26373   0.00000  Uiso   1.00
C183   C     0.15605   0.38916   0.26017   0.00000  Uiso   1.00
C184   C     0.17653   0.61120   0.24020   0.00000  Uiso   1.00
C185   C     0.18523   0.48099   0.12941   0.00000  Uiso   1.00
C186   C     0.14885   0.51837   0.37099   0.00000  Uiso   1.00
C187   C     0.18955   0.41807   0.02017   0.00000  Uiso   1.00
C188   C     0.19139   0.47120   0.08134   0.00000  Uiso   1.00
C189   C     0.14157   0.57244   0.43663   0.00000  Uiso   1.00
H190   H     0.31920   0.47212   0.28957   0.00000  Uiso   1.00
H191   H     0.20671   0.33698   0.21159   0.00000  Uiso   1.00
H192   H     0.12492   0.66461   0.28881   0.00000  Uiso   1.00
H193   H     0.16594   0.39942   0.44435   0.00000  Uiso   1.00
H194   H     0.19219   0.38606   0.00628   0.00000  Uiso   1.00
H195   H     0.17854   0.53106   0.07331   0.00000  Uiso   1.00
H196   H     0.16234   0.57221   0.03686   0.00000  Uiso   1.00
H197   H     0.14359   0.61775   0.49268   0.00000  Uiso   1.00
H198   H     0.14203   0.44540   0.40388   0.00000  Uiso   1.00
H199   H     0.01551   0.52786   0.21059   0.00000  Uiso   1.00
O200   O     0.16667   0.50000   0.25000   0.00000  Uiso   1.00
O201   O     0.17930   0.41352   0.28214   0.00000  Uiso   1.00
O202   O     0.14632   0.59418   0.27014   0.00000  Uiso   1.00
O203   O     0.07412   0.46625   0.23413   0.00000  Uiso   1.00
O204   O     0.26693   0.52605   0.21361   0.00000  Uiso   1.00
O205   O     0.07071   0.52211   0.28213   0.00000  Uiso   1.00
O206   O     0.25491   0.48559   0.27014   0.00000  Uiso   1.00
O207   O     0.13760   0.40277   0.23413   0.00000  Uiso   1.00
O208   O     0.20345   0.58953   0.21361   0.00000  Uiso   1.00
O209   O     0.15451   0.45970   0.15459   0.00000  Uiso   1.00
O210   O     0.12940   0.53724   0.34968   0.00000  Uiso   1.00
O211   O     0.20824   0.51092   0.14606   0.00000  Uiso   1.00
O212   O     0.17451   0.49213   0.34968   0.00000  Uiso   1.00
Zn213  Zn    0.19338   0.47327   0.28734   0.00000  Uiso   1.00
Zn214  Zn    0.13379   0.45791   0.21876   0.00000  Uiso   1.00
Zn215  Zn    0.21056   0.53109   0.20657   0.00000  Uiso   1.00
Zn216  Zn    0.12893   0.53773   0.28734   0.00000  Uiso   1.00
C217   C     0.20631   0.39943   0.08708   0.00000  Uiso   1.00
N218   N     0.21432   0.37485   0.10676   0.00000  Uiso   1.00
C219   C     0.13422   0.60366   0.41085   0.00000  Uiso   1.00
N220   N     0.12838   0.62875   0.39031   0.00000  Uiso   1.00
C221   C     0.38604   0.49288   0.25999   0.00000  Uiso   1.00
C222   C     0.47993   0.58565   0.47940   0.00000  Uiso   1.00
C223   C     0.49087   0.55874   0.00492   0.00000  Uiso   1.00
C224   C     0.49523   0.51662   0.48922   0.00000  Uiso   1.00
C225   C     0.48697   0.50198   0.44683   0.00000  Uiso   1.00
C226   C     0.50748   0.48848   0.01423   0.00000  Uiso   1.00
C227   C     0.51045   0.44632   0.49670   0.00000  Uiso   1.00
C228   C     0.49909   0.43200   0.45684   0.00000  Uiso   1.00
C229   C     0.48632   0.45901   0.43302   0.00000  Uiso   1.00
C230   C     0.51558   0.50034   0.05674   0.00000  Uiso   1.00
C231   C     0.52961   0.43014   0.06255   0.00000  Uiso   1.00
C232   C     0.61406   0.50711   0.24005   0.00000  Uiso   1.00
C233   C     0.47937   0.53052   0.41921   0.00000  Uiso   1.00
C234   C     0.65989   0.50984   0.23611   0.00000  Uiso   1.00
C235   C     0.34078   0.49025   0.26377   0.00000  Uiso   1.00
C236   C     0.51365   0.65576   0.23657   0.00000  Uiso   1.00
C237   C     0.48502   0.34503   0.26373   0.00000  Uiso   1.00
C238   C     0.48938   0.38916   0.26017   0.00000  Uiso   1.00
C239   C     0.50986   0.61120   0.24020   0.00000  Uiso   1.00
C240   C     0.51856   0.48099   0.12941   0.00000  Uiso   1.00
C241   C     0.48219   0.51837   0.37099   0.00000  Uiso   1.00
C242   C     0.52288   0.41807   0.02017   0.00000  Uiso   1.00
C243   C     0.52472   0.47120   0.08134   0.00000  Uiso   1.00
C244   C     0.47490   0.57244   0.43663   0.00000  Uiso   1.00
H245   H     0.65253   0.47212   0.28957   0.00000  Uiso   1.00
H246   H     0.54004   0.33698   0.21159   0.00000  Uiso   1.00
H247   H     0.45826   0.66461   0.28881   0.00000  Uiso   1.00
H248   H     0.49927   0.39942   0.44435   0.00000  Uiso   1.00
H249   H     0.52552   0.38606   0.00628   0.00000  Uiso   1.00
H250   H     0.51188   0.53106   0.07331   0.00000  Uiso   1.00
H251   H     0.49567   0.57221   0.03686   0.00000  Uiso   1.00
H252   H     0.47693   0.61775   0.49268   0.00000  Uiso   1.00
H253   H     0.47536   0.44540   0.40388   0.00000  Uiso   1.00
H254   H     0.34885   0.52786   0.21059   0.00000  Uiso   1.00
O255   O     0.50000   0.50000   0.25000   0.00000  Uiso   1.00
O256   O     0.51264   0.41352   0.28214   0.00000  Uiso   1.00
O257   O     0.47965   0.59418   0.27014   0.00000  Uiso   1.00
O258   O     0.40745   0.46625   0.23413   0.00000  Uiso   1.00
O259   O     0.60026   0.52605   0.21361   0.00000  Uiso   1.00
O260   O     0.40405   0.52211   0.28213   0.00000  Uiso   1.00
O261   O     0.58824   0.48559   0.27014   0.00000  Uiso   1.00
O262   O     0.47093   0.40277   0.23413   0.00000  Uiso   1.00
O263   O     0.53678   0.58953   0.21361   0.00000  Uiso   1.00
O264   O     0.48784   0.45970   0.15459   0.00000  Uiso   1.00
O265   O     0.46274   0.53724   0.34968   0.00000  Uiso   1.00
O266   O     0.54157   0.51092   0.14606   0.00000  Uiso   1.00
O267   O     0.50785   0.49213   0.34968   0.00000  Uiso   1.00
Zn268  Zn    0.52672   0.47327   0.28734   0.00000  Uiso   1.00
Zn269  Zn    0.46713   0.45791   0.21876   0.00000  Uiso   1.00
Zn270  Zn    0.54389   0.53109   0.20657   0.00000  Uiso   1.00
Zn271  Zn    0.46226   0.53773   0.28734   0.00000  Uiso   1.00
C272   C     0.53965   0.39943   0.08708   0.00000  Uiso   1.00
N273   N     0.54766   0.37485   0.10676   0.00000  Uiso   1.00
C274   C     0.46755   0.60366   0.41085   0.00000  Uiso   1.00
N275   N     0.46172   0.62875   0.39031   0.00000  Uiso   1.00
C276   C     0.71937   0.49288   0.25999   0.00000  Uiso   1.00
C277   C     0.81327   0.58565   0.47940   0.00000  Uiso   1.00
C278   C     0.82421   0.55874   0.00492   0.00000  Uiso   1.00
C279   C     0.82856   0.51662   0.48922   0.00000  Uiso   1.00
C280   C     0.82030   0.50198   0.44683   0.00000  Uiso   1.00
C281   C     0.84081   0.48848   0.01423   0.00000  Uiso   1.00
C282   C     0.84378   0.44632   0.49670   0.00000  Uiso   1.00
C283   C     0.83242   0.43200   0.45684   0.00000  Uiso   1.00
C284   C     0.81965   0.45901   0.43302   0.00000  Uiso   1.00
C285   C     0.84891   0.50034   0.05674   0.00000  Uiso   1.00
C286   C     0.86294   0.43014   0.06255   0.00000  Uiso   1.00
C287   C     0.94739   0.50711   0.24005   0.00000  Uiso   1.00
C288   C     0.81270   0.53052   0.41921   0.00000  Uiso   1.00
C289   C     0.99322   0.50984   0.23611   0.00000  Uiso   1.00
C290   C     0.67412   0.49025   0.26377   0.00000  Uiso   1.00
C291   C     0.84699   0.65576   0.23657   0.00000  Uiso   1.00
C292   C     0.81835   0.34503   0.26373   0.00000  Uiso   1.00
C293   C     0.82271   0.38916   0.26017   0.00000  Uiso   1.00
C294   C     0.84319   0.61120   0.24020   0.00000  Uiso   1.00
C295   C     0.85190   0.48099   0.12941   0.00000  Uiso   1.00
C296   C     0.81552   0.51837   0.37099   0.00000  Uiso   1.00
C297   C     0.85621   0.41807   0.02017   0.00000  Uiso   1.00
C298   C     0.85805   0.47120   0.08134   0.00000  Uiso   1.00
C299   C     0.80824   0.57244   0.43663   0.00000  Uiso   1.00
H300   H     0.98586   0.47212   0.28957   0.00000  Uiso   1.00
H301   H     0.87337   0.33698   0.21159   0.00000  Uiso   1.00
H302   H     0.79159   0.66461   0.28881   0.00000  Uiso   1.00
H303   H     0.83260   0.39942   0.44435   0.00000  Uiso   1.00
H304   H     0.85885   0.38606   0.00628   0.00000  Uiso   1.00
H305   H     0.84521   0.53106   0.07331   0.00000  Uiso   1.00
H306   H     0.82901   0.57221   0.03686   0.00000  Uiso   1.00
H307   H     0.81026   0.61775   0.49268   0.00000  Uiso   1.00
H308   H     0.80869   0.44540   0.40388   0.00000  Uiso   1.00
H309   H     0.68218   0.52786   0.21059   0.00000  Uiso   1.00
O310   O     0.83333   0.50000   0.25000   0.00000  Uiso   1.00
O311   O     0.84597   0.41352   0.28214   0.00000  Uiso   1.00
O312   O     0.81298   0.59418   0.27014   0.00000  Uiso   1.00
O313   O     0.74078   0.46625   0.23413   0.00000  Uiso   1.00
O314   O     0.93360   0.52605   0.21361   0.00000  Uiso   1.00
O315   O     0.73738   0.52211   0.28213   0.00000  Uiso   1.00
O316   O     0.92158   0.48559   0.27014   0.00000  Uiso   1.00
O317   O     0.80426   0.40277   0.23413   0.00000  Uiso   1.00
O318   O     0.87012   0.58953   0.21361   0.00000  Uiso   1.00
O319   O     0.82118   0.45970   0.15459   0.00000  Uiso   1.00
O320   O     0.79607   0.53724   0.34968   0.00000  Uiso   1.00
O321   O     0.87491   0.51092   0.14606   0.00000  Uiso   1.00
O322   O     0.84118   0.49213   0.34968   0.00000  Uiso   1.00
Zn323  Zn    0.86005   0.47327   0.28734   0.00000  Uiso   1.00
Zn324  Zn    0.80046   0.45791   0.21876   0.00000  Uiso   1.00
Zn325  Zn    0.87723   0.53109   0.20657   0.00000  Uiso   1.00
Zn326  Zn    0.79560   0.53773   0.28734   0.00000  Uiso   1.00
C327   C     0.87298   0.39943   0.08708   0.00000  Uiso   1.00
N328   N     0.88099   0.37485   0.10676   0.00000  Uiso   1.00
C329   C     0.80089   0.60366   0.41085   0.00000  Uiso   1.00
N330   N     0.79505   0.62875   0.39031   0.00000  Uiso   1.00
C331   C     0.05271   0.82621   0.25999   0.00000  Uiso   1.00
C332   C     0.14660   0.91898   0.47940   0.00000  Uiso   1.00
C333   C     0.15754   0.89207   0.00492   0.00000  Uiso   1.00
C334   C     0.16189   0.84995   0.48922   0.00000  Uiso   1.00
C335   C     0.15364   0.83531   0.44683   0.00000  Uiso   1.00
C336   C     0.17414   0.82181   0.01423   0.00000  Uiso   1.00
C337   C     0.17711   0.77965   0.49670   0.00000  Uiso   1.00
C338   C     0.16576   0.76533   0.45684   0.00000  Uiso   1.00
C339   C     0.15299   0.79235   0.43302   0.00000  Uiso   1.00
C340   C     0.18225   0.83367   0.05674   0.00000  Uiso   1.00
C341   C     0.19627   0.76347   0.06255   0.00000  Uiso   1.00
C342   C     0.28073   0.84044   0.24005   0.00000  Uiso   1.00
C343   C     0.14604   0.86385   0.41921   0.00000  Uiso   1.00
C344   C     0.32656   0.84317   0.23611   0.00000  Uiso   1.00
C345   C     0.00745   0.82359   0.26377   0.00000  Uiso   1.00
C346   C     0.18032   0.98910   0.23657   0.00000  Uiso   1.00
C347   C     0.15169   0.67836   0.26373   0.00000  Uiso   1.00
C348   C     0.15605   0.72250   0.26017   0.00000  Uiso   1.00
C349   C     0.17653   0.94454   0.24020   0.00000  Uiso   1.00
C350   C     0.18523   0.81433   0.12941   0.00000  Uiso   1.00
C351   C     0.14885   0.85170   0.37099   0.00000  Uiso   1.00
C352   C     0.18955   0.75141   0.02017   0.00000  Uiso   1.00
C353   C     0.19139   0.80453   0.08134   0.00000  Uiso   1.00
C354   C     0.14157   0.90577   0.43663   0.00000  Uiso   1.00
H355   H     0.31920   0.80545   0.28957   0.00000  Uiso   1.00
H356   H     0.20671   0.67032   0.21159   0.00000  Uiso   1.00
H357   H     0.12492   0.99794   0.28881   0.00000  Uiso   1.00
H358   H     0.16594   0.73275   0.44435   0.00000  Uiso   1.00
H359   H     0.19219   0.71939   0.00628   0.00000  Uiso   1.00
H360   H     0.17854   0.86439   0.07331   0.00000  Uiso   1.00
H361   H     0.16234   0.90555   0.03686   0.00000  Uiso   1.00
H362   H     0.14359   0.95108   0.49268   0.00000  Uiso   1.00
H363   H     0.14203   0.77874   0.40388   0.00000  Uiso   1.00
H364   H     0.01551   0.86120   0.21059   0.00000  Uiso   1.00
O365   O     0.16667   0.83333   0.25000   0.00000  Uiso   1.00
O366   O     0.17930   0.74686   0.28214   0.00000  Uiso   1.00
O367   O     0.14632   0.92751   0.27014   0.00000  Uiso   1.00
O368   O     0.07412   0.79958   0.23413   0.00000  Uiso   1.00
O369   O     0.26693   0.85939   0.21361   0.00000  Uiso   1.00
O370   O     0.07071   0.85544   0.28213   0.00000  Uiso   1.00
O371   O     0.25491   0.81892   0.27014   0.00000  Uiso   1.00
O372   O     0.13760   0.73610   0.23413   0.00000  Uiso   1.00
O373   O     0.20345   0.92286   0.21361   0.00000  Uiso   1.00
O374   O     0.15451   0.79304   0.15459   0.00000  Uiso   1.00
O375   O     0.12940   0.87058   0.34968   0.00000  Uiso   1.00
O376   O     0.20824   0.84425   0.14606   0.00000  Uiso   1.00
O377   O     0.17451   0.82546   0.34968   0.00000  Uiso   1.00
Zn378  Zn    0.19338   0.80661   0.28734   0.00000  Uiso   1.00
Zn379  Zn    0.13379   0.79124   0.21876   0.00000  Uiso   1.00
Zn380  Zn    0.21056   0.86442   0.20657   0.00000  Uiso   1.00
Zn381  Zn    0.12893   0.87106   0.28734   0.00000  Uiso   1.00
C382   C     0.20631   0.73276   0.08708   0.00000  Uiso   1.00
N383   N     0.21432   0.70818   0.10676   0.00000  Uiso   1.00
C384   C     0.13422   0.93699   0.41085   0.00000  Uiso   1.00
N385   N     0.12838   0.96208   0.39031   0.00000  Uiso   1.00
C386   C     0.38604   0.82621   0.25999   0.00000  Uiso   1.00
C387   C     0.47993   0.91898   0.47940   0.00000  Uiso   1.00
C388   C     0.49087   0.89207   0.00492   0.00000  Uiso   1.00
C389   C     0.49523   0.84995   0.48922   0.00000  Uiso   1.00
C390   C     0.48697   0.83531   0.44683   0.00000  Uiso   1.00
C391   C     0.50748   0.82181   0.01423   0.00000  Uiso   1.00
C392   C     0.51045   0.77965   0.49670   0.00000  Uiso   1.00
C393   C     0.49909   0.76533   0.45684   0.00000  Uiso   1.00
C394   C     0.48632   0.79235   0.43302   0.00000  Uiso   1.00
C395   C     0.51558   0.83367   0.05674   0.00000  Uiso   1.00
C396   C     0.52961   0.76347   0.06255   0.00000  Uiso   1.00
C397   C     0.61406   0.84044   0.24005   0.00000  Uiso   1.00
C398   C     0.47937   0.86385   0.41921   0.00000  Uiso   1.00
C399   C     0.65989   0.84317   0.23611   0.00000  Uiso   1.00
C400   C     0.34078   0.82359   0.26377   0.00000  Uiso   1.00
C401   C     0.51365   0.98910   0.23657   0.00000  Uiso   1.00
C402   C     0.48502   0.67836   0.26373   0.00000  Uiso   1.00
C403   C     0.48938   0.72250   0.26017   0.00000  Uiso   1.00
C404   C     0.50986   0.94454   0.24020   0.00000  Uiso   1.00
C405   C     0.51856   0.81433   0.12941   0.00000  Uiso   1.00
C406   C     0.48219   0.85170   0.37099   0.00000  Uiso   1.00
C407   C     0.52288   0.75141   0.02017   0.00000  Uiso   1.00
C408   C     0.52472   0.80453   0.08134   0.00000  Uiso   1.00
C409   C     0.47490   0.90577   0.43663   0.00000  Uiso   1.00
H410   H     0.65253   0.80545   0.28957   0.00000  Uiso   1.00
H411   H     0.54004   0.67032   0.21159   0.00000  Uiso   1.00
H412   H     0.45826   0.99794   0.28881   0.00000  Uiso   1.00
H413   H     0.49927   0.73275   0.44435   0.00000  Uiso   1.00
H414   H     0.52552   0.71939   0.00628   0.00000  Uiso   1.00
H415   H     0.51188   0.86439   0.07331   0.00000  Uiso   1.00
H416   H     0.49567   0.90555   0.03686   0.00000  Uiso   1.00
H417   H     0.47693   0.95108   0.49268   0.00000  Uiso   1.00
H418   H     0.47536   0.77874   0.40388   0.00000  Uiso   1.00
H419   H     0.34885   0.86120   0.21059   0.00000  Uiso   1.00
O420   O     0.50000   0.83333   0.25000   0.00000  Uiso   1.00
O421   O     0.51264   0.74686   0.28214   0.00000  Uiso   1.00
O422   O     0.47965   0.92751   0.27014   0.00000  Uiso   1.00
O423   O     0.40745   0.79958   0.23413   0.00000  Uiso   1.00
O424   O     0.60026   0.85939   0.21361   0.00000  Uiso   1.00
O425   O     0.40405   0.85544   0.28213   0.00000  Uiso   1.00
O426   O     0.58824   0.81892   0.27014   0.00000  Uiso   1.00
O427   O     0.47093   0.73610   0.23413   0.00000  Uiso   1.00
O428   O     0.53678   0.92286   0.21361   0.00000  Uiso   1.00
O429   O     0.48784   0.79304   0.15459   0.00000  Uiso   1.00
O430   O     0.46274   0.87058   0.34968   0.00000  Uiso   1.00
O431   O     0.54157   0.84425   0.14606   0.00000  Uiso   1.00
O432   O     0.50785   0.82546   0.34968   0.00000  Uiso   1.00
Zn433  Zn    0.52672   0.80661   0.28734   0.00000  Uiso   1.00
Zn434  Zn    0.46713   0.79124   0.21876   0.00000  Uiso   1.00
Zn435  Zn    0.54389   0.86442   0.20657   0.00000  Uiso   1.00
Zn436  Zn    0.46226   0.87106   0.28734   0.00000  Uiso   1.00
C437   C     0.53965   0.73276   0.08708   0.00000  Uiso   1.00
N438   N     0.54766   0.70818   0.10676   0.00000  Uiso   1.00
C439   C     0.46755   0.93699   0.41085   0.00000  Uiso   1.00
N440   N     0.46172   0.96208   0.39031   0.00000  Uiso   1.00
C441   C     0.71937   0.82621   0.25999   0.00000  Uiso   1.00
C442   C     0.81327   0.91898   0.47940   0.00000  Uiso   1.00
C443   C     0.82421   0.89207   0.00492   0.00000  Uiso   1.00
C444   C     0.82856   0.84995   0.48922   0.00000  Uiso   1.00
C445   C     0.82030   0.83531   0.44683   0.00000  Uiso   1.00
C446   C     0.84081   0.82181   0.01423   0.00000  Uiso   1.00
C447   C     0.84378   0.77965   0.49670   0.00000  Uiso   1.00
C448   C     0.83242   0.76533   0.45684   0.00000  Uiso   1.00
C449   C     0.81965   0.79235   0.43302   0.00000  Uiso   1.00
C450   C     0.84891   0.83367   0.05674   0.00000  Uiso   1.00
C451   C     0.86294   0.76347   0.06255   0.00000  Uiso   1.00
C452   C     0.94739   0.84044   0.24005   0.00000  Uiso   1.00
C453   C     0.81270   0.86385   0.41921   0.00000  Uiso   1.00
C454   C     0.99322   0.84317   0.23611   0.00000  Uiso   1.00
C455   C     0.67412   0.82359   0.26377   0.00000  Uiso   1.00
C456   C     0.84699   0.98910   0.23657   0.00000  Uiso   1.00
C457   C     0.81835   0.67836   0.26373   0.00000  Uiso   1.00
C458   C     0.82271   0.72250   0.26017   0.00000  Uiso   1.00
C459   C     0.84319   0.94454   0.24020   0.00000  Uiso   1.00
C460   C     0.85190   0.81433   0.12941   0.00000  Uiso   1.00
C461   C     0.81552   0.85170   0.37099   0.00000  Uiso   1.00
C462   C     0.85621   0.75141   0.02017   0.00000  Uiso   1.00
C463   C     0.85805   0.80453   0.08134   0.00000  Uiso   1.00
C464   C     0.80824   0.90577   0.43663   0.00000  Uiso   1.00
H465   H     0.98586   0.80545   0.28957   0.00000  Uiso   1.00
H466   H     0.87337   0.67032   0.21159   0.00000  Uiso   1.00
H467   H     0.79159   0.99794   0.28881   0.00000  Uiso   1.00
H468   H     0.83260   0.73275   0.44435   0.00000  Uiso   1.00
H469   H     0.85885   0.71939   0.00628   0.00000  Uiso   1.00
H470   H     0.84521   0.86439   0.07331   0.00000  Uiso   1.00
H471   H     0.82901   0.90555   0.03686   0.00000  Uiso   1.00
H472   H     0.81026   0.95108   0.49268   0.00000  Uiso   1.00
H473   H     0.80869   0.77874   0.40388   0.00000  Uiso   1.00
H474   H     0.68218   0.86120   0.21059   0.00000  Uiso   1.00
O475   O     0.83333   0.83333   0.25000   0.00000  Uiso   1.00
O476   O     0.84597   0.74686   0.28214   0.00000  Uiso   1.00
O477   O     0.81298   0.92751   0.27014   0.00000  Uiso   1.00
O478   O     0.74078   0.79958   0.23413   0.00000  Uiso   1.00
O479   O     0.93360   0.85939   0.21361   0.00000  Uiso   1.00
O480   O     0.73738   0.85544   0.28213   0.00000  Uiso   1.00
O481   O     0.92158   0.81892   0.27014   0.00000  Uiso   1.00
O482   O     0.80426   0.73610   0.23413   0.00000  Uiso   1.00
O483   O     0.87012   0.92286   0.21361   0.00000  Uiso   1.00
O484   O     0.82118   0.79304   0.15459   0.00000  Uiso   1.00
O485   O     0.79607   0.87058   0.34968   0.00000  Uiso   1.00
O486   O     0.87491   0.84425   0.14606   0.00000  Uiso   1.00
O487   O     0.84118   0.82546   0.34968   0.00000  Uiso   1.00
Zn488  Zn    0.86005   0.80661   0.28734   0.00000  Uiso   1.00
Zn489  Zn    0.80046   0.79124   0.21876   0.00000  Uiso   1.00
Zn490  Zn    0.87723   0.86442   0.20657   0.00000  Uiso   1.00
Zn491  Zn    0.79560   0.87106   0.28734   0.00000  Uiso   1.00
C492   C     0.87298   0.73276   0.08708   0.00000  Uiso   1.00
N493   N     0.88099   0.70818   0.10676   0.00000  Uiso   1.00
C494   C     0.80089   0.93699   0.41085   0.00000  Uiso   1.00
N495   N     0.79505   0.96208   0.39031   0.00000  Uiso   1.00
C496   C     0.05271   0.15954   0.75999   0.00000  Uiso   1.00
C497   C     0.14660   0.25232   0.97940   0.00000  Uiso   1.00
C498   C     0.15754   0.22541   0.50492   0.00000  Uiso   1.00
C499   C     0.16189   0.18328   0.98922   0.00000  Uiso   1.00
C500   C     0.15364   0.16865   0.94683   0.00000  Uiso   1.00
C501   C     0.17414   0.15515   0.51423   0.00000  Uiso   1.00
C502   C     0.17711   0.11298   0.99670   0.00000  Uiso   1.00
C503   C     0.16576   0.09867   0.95684   0.00000  Uiso   1.00
C504   C     0.15299   0.12568   0.93302   0.00000  Uiso   1.00
C505   C     0.18225   0.16700   0.55674   0.00000  Uiso   1.00
C506   C     0.19627   0.09680   0.56255   0.00000  Uiso   1.00
C507   C     0.28073   0.17378   0.74005   0.00000  Uiso   1.00
C508   C     0.14604   0.19719   0.91921   0.00000  Uiso   1.00
C509   C     0.32656   0.17651   0.73611   0.00000  Uiso   1.00
C510   C     0.00745   0.15692   0.76377   0.00000  Uiso   1.00
C511   C     0.18032   0.32243   0.73657   0.00000  Uiso   1.00
C512   C     0.15169   0.01170   0.76373   0.00000  Uiso   1.00
C513   C     0.15605   0.05583   0.76017   0.00000  Uiso   1.00
C514   C     0.17653   0.27787   0.74020   0.00000  Uiso   1.00
C515   C     0.18523   0.14766   0.62941   0.00000  Uiso   1.00
C516   C     0.14885   0.18504   0.87099   0.00000  Uiso   1.00
C517   C     0.18955   0.08474   0.52017   0.00000  Uiso   1.00
C518   C     0.19139   0.13786   0.58134   0.00000  Uiso   1.00
C519   C     0.14157   0.23910   0.93663   0.00000  Uiso   1.00
H520   H     0.31920   0.13879   0.78957   0.00000  Uiso   1.00
H521   H     0.20671   0.00365   0.71159   0.00000  Uiso   1.00
H522   H     0.12492   0.33127   0.78881   0.00000  Uiso   1.00
H523   H     0.16594   0.06608   0.94435   0.00000  Uiso   1.00
H524   H     0.19219   0.05272   0.50628   0.00000  Uiso   1.00
H525   H     0.17854   0.19773   0.57331   0.00000  Uiso   1.00
H526   H     0.16234   0.23888   0.53686   0.00000  Uiso   1.00
H527   H     0.14359   0.28442   0.99268   0.00000  Uiso   1.00
H528   H     0.14203   0.11207   0.90388   0.00000  Uiso   1.00
H529   H     0.01551   0.19453   0.71059   0.00000  Uiso   1.00
O530   O     0.16667   0.16667   0.75000   0.00000  Uiso   1.00
O531   O     0.17930   0.08019   0.78214   0.00000  Uiso   1.00
O532   O     0.14632   0.26085   0.77014   0.00000  Uiso   1.00
O533   O     0.07412   0.13291   0.73413   0.00000  Uiso   1.00
O534   O     0.26693   0.19272   0.71361   0.00000  Uiso   1.00
O535   O     0.07071   0.18878   0.78213   0.00000  Uiso   1.00
O536   O     0.25491   0.15226   0.77014   0.00000  Uiso   1.00
O537   O     0.13760   0.06944   0.73413   0.00000  Uiso   1.00
O538   O     0.20345   0.25620   0.71361   0.00000  Uiso   1.00
O539   O     0.15451   0.12637   0.65459   0.00000  Uiso   1.00
O540   O     0.12940   0.20391   0.84968   0.00000  Uiso   1.00
O541   O     0.20824   0.17759   0.64606   0.00000  Uiso   1.00
O542   O     0.17451   0.15880   0.84968   0.00000  Uiso   1.00
Zn543  Zn    0.19338   0.13994   0.78734   0.00000  Uiso   1.00
Zn544  Zn    0.13379   0.12458   0.71876   0.00000  Uiso   1.00
Zn545  Zn    0.21056   0.19775   0.70657   0.00000  Uiso   1.00
Zn546  Zn    0.12893   0.20439   0.78734   0.00000  Uiso   1.00
C547   C     0.20631   0.06609   0.58708   0.00000  Uiso   1.00
N548   N     0.21432   0.04152   0.60676   0.00000  Uiso   1.00
C549   C     0.13422   0.27032   0.91085   0.00000  Uiso   1.00
N550   N     0.12838   0.29541   0.89031   0.00000  Uiso   1.00
C551   C     0.38604   0.15954   0.75999   0.00000  Uiso   1.00
C552   C     0.47993   0.25232   0.97940   0.00000  Uiso   1.00
C553   C     0.49087   0.22541   0.50492   0.00000  Uiso   1.00
C554   C     0.49523   0.18328   0.98922   0.00000  Uiso   1.00
C555   C     0.48697   0.16865   0.94683   0.00000  Uiso   1.00
C556   C     0.50748   0.15515   0.51423   0.00000  Uiso   1.00
C557   C     0.51045   0.11298   0.99670   0.00000  Uiso   1.00
C558   C     0.49909   0.09867   0.95684   0.00000  Uiso   1.00
C559   C     0.48632   0.12568   0.93302   0.00000  Uiso   1.00
C560   C     0.51558   0.16700   0.55674   0.00000  Uiso   1.00
C561   C     0.52961   0.09680   0.56255   0.00000  Uiso   1.00
C562   C     0.61406   0.17378   0.74005   0.00000  Uiso   1.00
C563   C     0.47937   0.19719   0.91921   0.00000  Uiso   1.00
C564   C     0.65989   0.17651   0.73611   0.00000  Uiso   1.00
C565   C     0.34078   0.15692   0.76377   0.00000  Uiso   1.00
C566   C     0.51365   0.32243   0.73657   0.00000  Uiso   1.00
C567   C     0.48502   0.01170   0.76373   0.00000  Uiso   1.00
C568   C     0.48938   0.05583   0.76017   0.00000  Uiso   1.00
C569   C     0.50986   0.27787   0.74020   0.00000  Uiso   1.00
C570   C     0.51856   0.14766   0.62941   0.00000  Uiso   1.00
C571   C     0.48219   0.18504   0.87099   0.00000  Uiso   1.00
C572   C     0.52288   0.08474   0.52017   0.00000  Uiso   1.00
C573   C     0.52472   0.13786   0.58134   0.00000  Uiso   1.00
C574   C     0.47490   0.23910   0.93663   0.00000  Uiso   1.00
H575   H     0.65253   0.13879   0.78957   0.00000  Uiso   1.00
H576   H     0.54004   0.00365   0.71159   0.00000  Uiso   1.00
H577   H     0.45826   0.33127   0.78881   0.00000  Uiso   1.00
H578   H     0.49927   0.06608   0.94435   0.00000  Uiso   1.00
H579   H     0.52552   0.05272   0.50628   0.00000  Uiso   1.00
H580   H     0.51188   0.19773   0.57331   0.00000  Uiso   1.00
H581   H     0.49567   0.23888   0.53686   0.00000  Uiso   1.00
H582   H     0.47693   0.28442   0.99268   0.00000  Uiso   1.00
H583   H     0.47536   0.11207   0.90388   0.00000  Uiso   1.00
H584   H     0.34885   0.19453   0.71059   0.00000  Uiso   1.00
O585   O     0.50000   0.16667   0.75000   0.00000  Uiso   1.00
O586   O     0.51264   0.08019   0.78214   0.00000  Uiso   1.00
O587   O     0.47965   0.26085   0.77014   0.00000  Uiso   1.00
O588   O     0.40745   0.13291   0.73413   0.00000  Uiso   1.00
O589   O     0.60026   0.19272   0.71361   0.00000  Uiso   1.00
O590   O     0.40405   0.18878   0.78213   0.00000  Uiso   1.00
O591   O     0.58824   0.15226   0.77014   0.00000  Uiso   1.00
O592   O     0.47093   0.06944   0.73413   0.00000  Uiso   1.00
O593   O     0.53678   0.25620   0.71361   0.00000  Uiso   1.00
O594   O     0.48784   0.12637   0.65459   0.00000  Uiso   1.00
O595   O     0.46274   0.20391   0.84968   0.00000  Uiso   1.00
O596   O     0.54157   0.17759   0.64606   0.00000  Uiso   1.00
O597   O     0.50785   0.15880   0.84968   0.00000  Uiso   1.00
Zn598  Zn    0.52672   0.13994   0.78734   0.00000  Uiso   1.00
Zn599  Zn    0.46713   0.12458   0.71876   0.00000  Uiso   1.00
Zn600  Zn    0.54389   0.19775   0.70657   0.00000  Uiso   1.00
Zn601  Zn    0.46226   0.20439   0.78734   0.00000  Uiso   1.00
C602   C     0.53965   0.06609   0.58708   0.00000  Uiso   1.00
N603   N     0.54766   0.04152   0.60676   0.00000  Uiso   1.00
C604   C     0.46755   0.27032   0.91085   0.00000  Uiso   1.00
N605   N     0.46172   0.29541   0.89031   0.00000  Uiso   1.00
C606   C     0.71937   0.15954   0.75999   0.00000  Uiso   1.00
C607   C     0.81327   0.25232   0.97940   0.00000  Uiso   1.00
C608   C     0.82421   0.22541   0.50492   0.00000  Uiso   1.00
C609   C     0.82856   0.18328   0.98922   0.00000  Uiso   1.00
C610   C     0.82030   0.16865   0.94683   0.00000  Uiso   1.00
C611   C     0.84081   0.15515   0.51423   0.00000  Uiso   1.00
C612   C     0.84378   0.11298   0.99670   0.00000  Uiso   1.00
C613   C     0.83242   0.09867   0.95684   0.00000  Uiso   1.00
C614   C     0.81965   0.12568   0.93302   0.00000  Uiso   1.00
C615   C     0.84891   0.16700   0.55674   0.00000  Uiso   1.00
C616   C     0.86294   0.09680   0.56255   0.00000  Uiso   1.00
C617   C     0.94739   0.17378   0.74005   0.00000  Uiso   1.00
C618   C     0.81270   0.19719   0.91921   0.00000  Uiso   1.00
C619   C     0.99322   0.17651   0.73611   0.00000  Uiso   1.00
C620   C     0.67412   0.15692   0.76377   0.00000  Uiso   1.00
C621   C     0.84699   0.32243   0.73657   0.00000  Uiso   1.00
C622   C     0.81835   0.01170   0.76373   0.00000  Uiso   1.00
C623   C     0.82271   0.05583   0.76017   0.00000  Uiso   1.00
C624   C     0.84319   0.27787   0.74020   0.00000  Uiso   1.00
C625   C     0.85190   0.14766   0.62941   0.00000  Uiso   1.00
C626   C     0.81552   0.18504   0.87099   0.00000  Uiso   1.00
C627   C     0.85621   0.08474   0.52017   0.00000  Uiso   1.00
C628   C     0.85805   0.13786   0.58134   0.00000  Uiso   1.00
C629   C     0.80824   0.23910   0.93663   0.00000  Uiso   1.00
H630   H     0.98586   0.13879   0.78957   0.00000  Uiso   1.00
H631   H     0.87337   0.00365   0.71159   0.00000  Uiso   1.00
H632   H     0.79159   0.33127   0.78881   0.00000  Uiso   1.00
H633   H     0.83260   0.06608   0.94435   0.00000  Uiso   1.00
H634   H     0.85885   0.05272   0.50628   0.00000  Uiso   1.00
H635   H     0.84521   0.19773   0.57331   0.00000  Uiso   1.00
H636   H     0.82901   0.23888   0.53686   0.00000  Uiso   1.00
H637   H     0.81026   0.28442   0.99268   0.00000  Uiso   1.00
H638   H     0.80869   0.11207   0.90388   0.00000  Uiso   1.00
H639   H     0.68218   0.19453   0.71059   0.00000  Uiso   1.00
O640   O     0.83333   0.16667   0.75000   0.00000  Uiso   1.00
O641   O     0.84597   0.08019   0.78214   0.00000  Uiso   1.00
O642   O     0.81298   0.26085   0.77014   0.00000  Uiso   1.00
O643   O     0.74078   0.13291   0.73413   0.00000  Uiso   1.00
O644   O     0.93360   0.19272   0.71361   0.00000  Uiso   1.00
O645   O     0.73738   0.18878   0.78213   0.00000  Uiso   1.00
O646   O     0.92158   0.15226   0.77014   0.00000  Uiso   1.00
O647   O     0.80426   0.06944   0.73413   0.00000  Uiso   1.00
O648   O     0.87012   0.25620   0.71361   0.00000  Uiso   1.00
O649   O     0.82118   0.12637   0.65459   0.00000  Uiso   1.00
O650   O     0.79607   0.20391   0.84968   0.00000  Uiso   1.00
O651   O     0.87491   0.17759   0.64606   0.00000  Uiso   1.00
O652   O     0.84118   0.15880   0.84968   0.00000  Uiso   1.00
Zn653  Zn    0.86005   0.13994   0.78734   0.00000  Uiso   1.00
Zn654  Zn    0.80046   0.12458   0.71876   0.00000  Uiso   1.00
Zn655  Zn    0.87723   0.19775   0.70657   0.00000  Uiso   1.00
Zn656  Zn    0.79560   0.20439   0.78734   0.00000  Uiso   1.00
C657   C     0.87298   0.06609   0.58708   0.00000  Uiso   1.00
N658   N     0.88099   0.04152   0.60676   0.00000  Uiso   1.00
C659   C     0.80089   0.27032   0.91085   0.00000  Uiso   1.00
N660   N     0.79505   0.29541   0.89031   0.00000  Uiso   1.00
C661   C     0.05271   0.49288   0.75999   0.00000  Uiso   1.00
C662   C     0.14660   0.58565   0.97940   0.00000  Uiso   1.00
C663   C     0.15754   0.55874   0.50492   0.00000  Uiso   1.00
C664   C     0.16189   0.51662   0.98922   0.00000  Uiso   1.00
C665   C     0.15364   0.50198   0.94683   0.00000  Uiso   1.00
C666   C     0.17414   0.48848   0.51423   0.00000  Uiso   1.00
C667   C     0.17711   0.44632   0.99670   0.00000  Uiso   1.00
C668   C     0.16576   0.43200   0.95684   0.00000  Uiso   1.00
C669   C     0.15299   0.45901   0.93302   0.00000  Uiso   1.00
C670   C     0.18225   0.50034   0.55674   0.00000  Uiso   1.00
C671   C     0.19627   0.43014   0.56255   0.00000  Uiso   1.00
C672   C     0.28073   0.50711   0.74005   0.00000  Uiso   1.00
C673   C     0.14604   0.53052   0.91921   0.00000  Uiso   1.00
C674   C     0.32656   0.50984   0.73611   0.00000  Uiso   1.00
C675   C     0.00745   0.49025   0.76377   0.00000  Uiso   1.00
C676   C     0.18032   0.65576   0.73657   0.00000  Uiso   1.00
C677   C     0.15169   0.34503   0.76373   0.00000  Uiso   1.00
C678   C     0.15605   0.38916   0.76017   0.00000  Uiso   1.00
C679   C     0.17653   0.61120   0.74020   0.00000  Uiso   1.00
C680   C     0.18523   0.48099   0.62941   0.00000  Uiso   1.00
C681   C     0.14885   0.51837   0.87099   0.00000  Uiso   1.00
C682   C     0.18955   0.41807   0.52017   0.00000  Uiso   1.00
C683   C     0.19139   0.47120   0.58134   0.00000  Uiso   1.00
C684   C     0.14157   0.57244   0.93663   0.00000  Uiso   1.00
H685   H     0.31920   0.47212   0.78957   0.00000  Uiso   1.00
H686   H     0.20671   0.33698   0.71159   0.00000  Uiso   1.00
H687   H     0.12492   0.66461   0.78881   0.00000  Uiso   1.00
H688   H     0.16594   0.39942   0.94435   0.00000  Uiso   1.00
H689   H     0.19219   0.38606   0.50628   0.00000  Uiso   1.00
H690   H     0.17854   0.53106   0.57331   0.00000  Uiso   1.00
H691   H     0.16234   0.57221   0.53686   0.00000  Uiso   1.00
H692   H     0.14359   0.61775   0.99268   0.00000  Uiso   1.00
H693   H     0.14203   0.44540   0.90388   0.00000  Uiso   1.00
H694   H     0.01551   0.52786   0.71059   0.00000  Uiso   1.00
O695   O     0.16667   0.50000   0.75000   0.00000  Uiso   1.00
O696   O     0.17930   0.41352   0.78214   0.00000  Uiso   1.00
O697   O     0.14632   0.59418   0.77014   0.00000  Uiso   1.00
O698   O     0.07412   0.46625   0.73413   0.00000  Uiso   1.00
O699   O     0.26693   0.52605   0.71361   0.00000  Uiso   1.00
O700   O     0.07071   0.52211   0.78213   0.00000  Uiso   1.00
O701   O     0.25491   0.48559   0.77014   0.00000  Uiso   1.00
O702   O     0.13760   0.40277   0.73413   0.00000  Uiso   1.00
O703   O     0.20345   0.58953   0.71361   0.00000  Uiso   1.00
O704   O     0.15451   0.45970   0.65459   0.00000  Uiso   1.00
O705   O     0.12940   0.53724   0.84968   0.00000  Uiso   1.00
O706   O     0.20824   0.51092   0.64606   0.00000  Uiso   1.00
O707   O     0.17451   0.49213   0.84968   0.00000  Uiso   1.00
Zn708  Zn    0.19338   0.47327   0.78734   0.00000  Uiso   1.00
Zn709  Zn    0.13379   0.45791   0.71876   0.00000  Uiso   1.00
Zn710  Zn    0.21056   0.53109   0.70657   0.00000  Uiso   1.00
Zn711  Zn    0.12893   0.53773   0.78734   0.00000  Uiso   1.00
C712   C     0.20631   0.39943   0.58708   0.00000  Uiso   1.00
N713   N     0.21432   0.37485   0.60676   0.00000  Uiso   1.00
C714   C     0.13422   0.60366   0.91085   0.00000  Uiso   1.00
N715   N     0.12838   0.62875   0.89031   0.00000  Uiso   1.00
C716   C     0.38604   0.49288   0.75999   0.00000  Uiso   1.00
C717   C     0.47993   0.58565   0.97940   0.00000  Uiso   1.00
C718   C     0.49087   0.55874   0.50492   0.00000  Uiso   1.00
C719   C     0.49523   0.51662   0.98922   0.00000  Uiso   1.00
C720   C     0.48697   0.50198   0.94683   0.00000  Uiso   1.00
C721   C     0.50748   0.48848   0.51423   0.00000  Uiso   1.00
C722   C     0.51045   0.44632   0.99670   0.00000  Uiso   1.00
C723   C     0.49909   0.43200   0.95684   0.00000  Uiso   1.00
C724   C     0.48632   0.45901   0.93302   0.00000  Uiso   1.00
C725   C     0.51558   0.50034   0.55674   0.00000  Uiso   1.00
C726   C     0.52961   0.43014   0.56255   0.00000  Uiso   1.00
C727   C     0.61406   0.50711   0.74005   0.00000  Uiso   1.00
C728   C     0.47937   0.53052   0.91921   0.00000  Uiso   1.00
C729   C     0.65989   0.50984   0.73611   0.00000  Uiso   1.00
C730   C     0.34078   0.49025   0.76377   0.00000  Uiso   1.00
C731   C     0.51365   0.65576   0.73657   0.00000  Uiso   1.00
C732   C     0.48502   0.34503   0.76373   0.00000  Uiso   1.00
C733   C     0.48938   0.38916   0.76017   0.00000  Uiso   1.00
C734   C     0.50986   0.61120   0.74020   0.00000  Uiso   1.00
C735   C     0.51856   0.48099   0.62941   0.00000  Uiso   1.00
C736   C     0.48219   0.51837   0.87099   0.00000  Uiso   1.00
C737   C     0.52288   0.41807   0.52017   0.00000  Uiso   1.00
C738   C     0.52472   0.47120   0.58134   0.00000  Uiso   1.00
C739   C     0.47490   0.57244   0.93663   0.00000  Uiso   1.00
H740   H     0.65253   0.47212   0.78957   0.00000  Uiso   1.00
H741   H     0.54004   0.33698   0.71159   0.00000  Uiso   1.00
H742   H     0.45826   0.66461   0.78881   0.00000  Uiso   1.00
H743   H     0.49927   0.39942   0.94435   0.00000  Uiso   1.00
H744   H     0.52552   0.38606   0.50628   0.00000  Uiso   1.00
H745   H     0.51188   0.53106   0.57331   0.00000  Uiso   1.00
H746   H     0.49567   0.57221   0.53686   0.00000  Uiso   1.00
H747   H     0.47693   0.61775   0.99268   0.00000  Uiso   1.00
H748   H     0.47536   0.44540   0.90388   0.00000  Uiso   1.00
H749   H     0.34885   0.52786   0.71059   0.00000  Uiso   1.00
O750   O     0.50000   0.50000   0.75000   0.00000  Uiso   1.00
O751   O     0.51264   0.41352   0.78214   0.00000  Uiso   1.00
O752   O     0.47965   0.59418   0.77014   0.00000  Uiso   1.00
O753   O     0.40745   0.46625   0.73413   0.00000  Uiso   1.00
O754   O     0.60026   0.52605   0.71361   0.00000  Uiso   1.00
O755   O     0.40405   0.52211   0.78213   0.00000  Uiso   1.00
O756   O     0.58824   0.48559   0.77014   0.00000  Uiso   1.00
O757   O     0.47093   0.40277   0.73413   0.00000  Uiso   1.00
O758   O     0.53678   0.58953   0.71361   0.00000  Uiso   1.00
O759   O     0.48784   0.45970   0.65459   0.00000  Uiso   1.00
O760   O     0.46274   0.53724   0.84968   0.00000  Uiso   1.00
O761   O     0.54157   0.51092   0.64606   0.00000  Uiso   1.00
O762   O     0.50785   0.49213   0.84968   0.00000  Uiso   1.00
Zn763  Zn    0.52672   0.47327   0.78734   0.00000  Uiso   1.00
Zn764  Zn    0.46713   0.45791   0.71876   0.00000  Uiso   1.00
Zn765  Zn    0.54389   0.53109   0.70657   0.00000  Uiso   1.00
Zn766  Zn    0.46226   0.53773   0.78734   0.00000  Uiso   1.00
C767   C     0.53965   0.39943   0.58708   0.00000  Uiso   1.00
N768   N     0.54766   0.37485   0.60676   0.00000  Uiso   1.00
C769   C     0.46755   0.60366   0.91085   0.00000  Uiso   1.00
N770   N     0.46172   0.62875   0.89031   0.00000  Uiso   1.00
C771   C     0.71937   0.49288   0.75999   0.00000  Uiso   1.00
C772   C     0.81327   0.58565   0.97940   0.00000  Uiso   1.00
C773   C     0.82421   0.55874   0.50492   0.00000  Uiso   1.00
C774   C     0.82856   0.51662   0.98922   0.00000  Uiso   1.00
C775   C     0.82030   0.50198   0.94683   0.00000  Uiso   1.00
C776   C     0.84081   0.48848   0.51423   0.00000  Uiso   1.00
C777   C     0.84378   0.44632   0.99670   0.00000  Uiso   1.00
C778   C     0.83242   0.43200   0.95684   0.00000  Uiso   1.00
C779   C     0.81965   0.45901   0.93302   0.00000  Uiso   1.00
C780   C     0.84891   0.50034   0.55674   0.00000  Uiso   1.00
C781   C     0.86294   0.43014   0.56255   0.00000  Uiso   1.00
C782   C     0.94739   0.50711   0.74005   0.00000  Uiso   1.00
C783   C     0.81270   0.53052   0.91921   0.00000  Uiso   1.00
C784   C     0.99322   0.50984   0.73611   0.00000  Uiso   1.00
C785   C     0.67412   0.49025   0.76377   0.00000  Uiso   1.00
C786   C     0.84699   0.65576   0.73657   0.00000  Uiso   1.00
C787   C     0.81835   0.34503   0.76373   0.00000  Uiso   1.00
C788   C     0.82271   0.38916   0.76017   0.00000  Uiso   1.00
C789   C     0.84319   0.61120   0.74020   0.00000  Uiso   1.00
C790   C     0.85190   0.48099   0.62941   0.00000  Uiso   1.00
C791   C     0.81552   0.51837   0.87099   0.00000  Uiso   1.00
C792   C     0.85621   0.41807   0.52017   0.00000  Uiso   1.00
C793   C     0.85805   0.47120   0.58134   0.00000  Uiso   1.00
C794   C     0.80824   0.57244   0.93663   0.00000  Uiso   1.00
H795   H     0.98586   0.47212   0.78957   0.00000  Uiso   1.00
H796   H     0.87337   0.33698   0.71159   0.00000  Uiso   1.00
H797   H     0.79159   0.66461   0.78881   0.00000  Uiso   1.00
H798   H     0.83260   0.39942   0.94435   0.00000  Uiso   1.00
H799   H     0.85885   0.38606   0.50628   0.00000  Uiso   1.00
H800   H     0.84521   0.53106   0.57331   0.00000  Uiso   1.00
H801   H     0.82901   0.57221   0.53686   0.00000  Uiso   1.00
H802   H     0.81026   0.61775   0.99268   0.00000  Uiso   1.00
H803   H     0.80869   0.44540   0.90388   0.00000  Uiso   1.00
H804   H     0.68218   0.52786   0.71059   0.00000  Uiso   1.00
O805   O     0.83333   0.50000   0.75000   0.00000  Uiso   1.00
O806   O     0.84597   0.41352   0.78214   0.00000  Uiso   1.00
O807   O     0.81298   0.59418   0.77014   0.00000  Uiso   1.00
O808   O     0.74078   0.46625   0.73413   0.00000  Uiso   1.00
O809   O     0.93360   0.52605   0.71361   0.00000  Uiso   1.00
O810   O     0.73738   0.52211   0.78213   0.00000  Uiso   1.00
O811   O     0.92158   0.48559   0.77014   0.00000  Uiso   1.00
O812   O     0.80426   0.40277   0.73413   0.00000  Uiso   1.00
O813   O     0.87012   0.58953   0.71361   0.00000  Uiso   1.00
O814   O     0.82118   0.45970   0.65459   0.00000  Uiso   1.00
O815   O     0.79607   0.53724   0.84968   0.00000  Uiso   1.00
O816   O     0.87491   0.51092   0.64606   0.00000  Uiso   1.00
O817   O     0.84118   0.49213   0.84968   0.00000  Uiso   1.00
Zn818  Zn    0.86005   0.47327   0.78734   0.00000  Uiso   1.00
Zn819  Zn    0.80046   0.45791   0.71876   0.00000  Uiso   1.00
Zn820  Zn    0.87723   0.53109   0.70657   0.00000  Uiso   1.00
Zn821  Zn    0.79560   0.53773   0.78734   0.00000  Uiso   1.00
C822   C     0.87298   0.39943   0.58708   0.00000  Uiso   1.00
N823   N     0.88099   0.37485   0.60676   0.00000  Uiso   1.00
C824   C     0.80089   0.60366   0.91085   0.00000  Uiso   1.00
N825   N     0.79505   0.62875   0.89031   0.00000  Uiso   1.00
C826   C     0.05271   0.82621   0.75999   0.00000  Uiso   1.00
C827   C     0.14660   0.91898   0.97940   0.00000  Uiso   1.00
C828   C     0.15754   0.89207   0.50492   0.00000  Uiso   1.00
C829   C     0.16189   0.84995   0.98922   0.00000  Uiso   1.00
C830   C     0.15364   0.83531   0.94683   0.00000  Uiso   1.00
C831   C     0.17414   0.82181   0.51423   0.00000  Uiso   1.00
C832   C     0.17711   0.77965   0.99670   0.00000  Uiso   1.00
C833   C     0.16576   0.76533   0.95684   0.00000  Uiso   1.00
C834   C     0.15299   0.79235   0.93302   0.00000  Uiso   1.00
C835   C     0.18225   0.83367   0.55674   0.00000  Uiso   1.00
C836   C     0.19627   0.76347   0.56255   0.00000  Uiso   1.00
C837   C     0.28073   0.84044   0.74005   0.00000  Uiso   1.00
C838   C     0.14604   0.86385   0.91921   0.00000  Uiso   1.00
C839   C     0.32656   0.84317   0.73611   0.00000  Uiso   1.00
C840   C     0.00745   0.82359   0.76377   0.00000  Uiso   1.00
C841   C     0.18032   0.98910   0.73657   0.00000  Uiso   1.00
C842   C     0.15169   0.67836   0.76373   0.00000  Uiso   1.00
C843   C     0.15605   0.72250   0.76017   0.00000  Uiso   1.00
C844   C     0.17653   0.94454   0.74020   0.00000  Uiso   1.00
C845   C     0.18523   0.81433   0.62941   0.00000  Uiso   1.00
C846   C     0.14885   0.85170   0.87099   0.00000  Uiso   1.00
C847   C     0.18955   0.75141   0.52017   0.00000  Uiso   1.00
C848   C     0.19139   0.80453   0.58134   0.00000  Uiso   1.00
C849   C     0.14157   0.90577   0.93663   0.00000  Uiso   1.00
H850   H     0.31920   0.80545   0.78957   0.00000  Uiso   1.00
H851   H     0.20671   0.67032   0.71159   0.00000  Uiso   1.00
H852   H     0.12492   0.99794   0.78881   0.00000  Uiso   1.00
H853   H     0.16594   0.73275   0.94435   0.00000  Uiso   1.00
H854   H     0.19219   0.71939   0.50628   0.00000  Uiso   1.00
H855   H     0.17854   0.86439   0.57331   0.00000  Uiso   1.00
H856   H     0.16234   0.90555   0.53686   0.00000  Uiso   1.00
H857   H     0.14359   0.95108   0.99268   0.00000  Uiso   1.00
H858   H     0.14203   0.77874   0.90388   0.00000  Uiso   1.00
H859   H     0.01551   0.86120   0.71059   0.00000  Uiso   1.00
O860   O     0.16667   0.83333   0.75000   0.00000  Uiso   1.00
O861   O     0.17930   0.74686   0.78214   0.00000  Uiso   1.00
O862   O     0.14632   0.92751   0.77014   0.00000  Uiso   1.00
O863   O     0.07412   0.79958   0.73413   0.00000  Uiso   1.00
O864   O     0.26693   0.85939   0.71361   0.00000  Uiso   1.00
O865   O     0.07071   0.85544   0.78213   0.00000  Uiso   1.00
O866   O     0.25491   0.81892   0.77014   0.00000  Uiso   1.00
O867   O     0.13760   0.73610   0.73413   0.00000  Uiso   1.00
O868   O     0.20345   0.92286   0.71361   0.00000  Uiso   1.00
O869   O     0.15451   0.79304   0.65459   0.00000  Uiso   1.00
O870   O     0.12940   0.87058   0.84968   0.00000  Uiso   1.00
O871   O     0.20824   0.84425   0.64606   0.00000  Uiso   1.00
O872   O     0.17451   0.82546   0.84968   0.00000  Uiso   1.00
Zn873  Zn    0.19338   0.80661   0.78734   0.00000  Uiso   1.00
Zn874  Zn    0.13379   0.79124   0.71876   0.00000  Uiso   1.00
Zn875  Zn    0.21056   0.86442   0.70657   0.00000  Uiso   1.00
Zn876  Zn    0.12893   0.87106   0.78734   0.00000  Uiso   1.00
C877   C     0.20631   0.73276   0.58708   0.00000  Uiso   1.00
N878   N     0.21432   0.70818   0.60676   0.00000  Uiso   1.00
C879   C     0.13422   0.93699   0.91085   0.00000  Uiso   1.00
N880   N     0.12838   0.96208   0.89031   0.00000  Uiso   1.00
C881   C     0.38604   0.82621   0.75999   0.00000  Uiso   1.00
C882   C     0.47993   0.91898   0.97940   0.00000  Uiso   1.00
C883   C     0.49087   0.89207   0.50492   0.00000  Uiso   1.00
C884   C     0.49523   0.84995   0.98922   0.00000  Uiso   1.00
C885   C     0.48697   0.83531   0.94683   0.00000  Uiso   1.00
C886   C     0.50748   0.82181   0.51423   0.00000  Uiso   1.00
C887   C     0.51045   0.77965   0.99670   0.00000  Uiso   1.00
C888   C     0.49909   0.76533   0.95684   0.00000  Uiso   1.00
C889   C     0.48632   0.79235   0.93302   0.00000  Uiso   1.00
C890   C     0.51558   0.83367   0.55674   0.00000  Uiso   1.00
C891   C     0.52961   0.76347   0.56255   0.00000  Uiso   1.00
C892   C     0.61406   0.84044   0.74005   0.00000  Uiso   1.00
C893   C     0.47937   0.86385   0.91921   0.00000  Uiso   1.00
C894   C     0.65989   0.84317   0.73611   0.00000  Uiso   1.00
C895   C     0.34078   0.82359   0.76377   0.00000  Uiso   1.00
C896   C     0.51365   0.98910   0.73657   0.00000  Uiso   1.00
C897   C     0.48502   0.67836   0.76373   0.00000  Uiso   1.00
C898   C     0.48938   0.72250   0.76017   0.00000  Uiso   1.00
C899   C     0.50986   0.94454   0.74020   0.00000  Uiso   1.00
C900   C     0.51856   0.81433   0.62941   0.00000  Uiso   1.00
C901   C     0.48219   0.85170   0.87099   0.00000  Uiso   1.00
C902   C     0.52288   0.75141   0.52017   0.00000  Uiso   1.00
C903   C     0.52472   0.80453   0.58134   0.00000  Uiso   1.00
C904   C     0.47490   0.90577   0.93663   0.00000  Uiso   1.00
H905   H     0.65253   0.80545   0.78957   0.00000  Uiso   1.00
H906   H     0.54004   0.67032   0.71159   0.00000  Uiso   1.00
H907   H     0.45826   0.99794   0.78881   0.00000  Uiso   1.00
H908   H     0.49927   0.73275   0.94435   0.00000  Uiso   1.00
H909   H     0.52552   0.71939   0.50628   0.00000  Uiso   1.00
H910   H     0.51188   0.86439   0.57331   0.00000  Uiso   1.00
H911   H     0.49567   0.90555   0.53686   0.00000  Uiso   1.00
H912   H     0.47693   0.95108   0.99268   0.00000  Uiso   1.00
H913   H     0.47536   0.77874   0.90388   0.00000  Uiso   1.00
H914   H     0.34885   0.86120   0.71059   0.00000  Uiso   1.00
O915   O     0.50000   0.83333   0.75000   0.00000  Uiso   1.00
O916   O     0.51264   0.74686   0.78214   0.00000  Uiso   1.00
O917   O     0.47965   0.92751   0.77014   0.00000  Uiso   1.00
O918   O     0.40745   0.79958   0.73413   0.00000  Uiso   1.00
O919   O     0.60026   0.85939   0.71361   0.00000  Uiso   1.00
O920   O     0.40405   0.85544   0.78213   0.00000  Uiso   1.00
O921   O     0.58824   0.81892   0.77014   0.00000  Uiso   1.00
O922   O     0.47093   0.73610   0.73413   0.00000  Uiso   1.00
O923   O     0.53678   0.92286   0.71361   0.00000  Uiso   1.00
O924   O     0.48784   0.79304   0.65459   0.00000  Uiso   1.00
O925   O     0.46274   0.87058   0.84968   0.00000  Uiso   1.00
O926   O     0.54157   0.84425   0.64606   0.00000  Uiso   1.00
O927   O     0.50785   0.82546   0.84968   0.00000  Uiso   1.00
Zn928  Zn    0.52672   0.80661   0.78734   0.00000  Uiso   1.00
Zn929  Zn    0.46713   0.79124   0.71876   0.00000  Uiso   1.00
Zn930  Zn    0.54389   0.86442   0.70657   0.00000  Uiso   1.00
Zn931  Zn    0.46226   0.87106   0.78734   0.00000  Uiso   1.00
C932   C     0.53965   0.73276   0.58708   0.00000  Uiso   1.00
N933   N     0.54766   0.70818   0.60676   0.00000  Uiso   1.00
C934   C     0.46755   0.93699   0.91085   0.00000  Uiso   1.00
N935   N     0.46172   0.96208   0.89031   0.00000  Uiso   1.00
C936   C     0.71937   0.82621   0.75999   0.00000  Uiso   1.00
C937   C     0.81327   0.91898   0.97940   0.00000  Uiso   1.00
C938   C     0.82421   0.89207   0.50492   0.00000  Uiso   1.00
C939   C     0.82856   0.84995   0.98922   0.00000  Uiso   1.00
C940   C     0.82030   0.83531   0.94683   0.00000  Uiso   1.00
C941   C     0.84081   0.82181   0.51423   0.00000  Uiso   1.00
C942   C     0.84378   0.77965   0.99670   0.00000  Uiso   1.00
C943   C     0.83242   0.76533   0.95684   0.00000  Uiso   1.00
C944   C     0.81965   0.79235   0.93302   0.00000  Uiso   1.00
C945   C     0.84891   0.83367   0.55674   0.00000  Uiso   1.00
C946   C     0.86294   0.76347   0.56255   0.00000  Uiso   1.00
C947   C     0.94739   0.84044   0.74005   0.00000  Uiso   1.00
C948   C     0.81270   0.86385   0.91921   0.00000  Uiso   1.00
C949   C     0.99322   0.84317   0.73611   0.00000  Uiso   1.00
C950   C     0.67412   0.82359   0.76377   0.00000  Uiso   1.00
C951   C     0.84699   0.98910   0.73657   0.00000  Uiso   1.00
C952   C     0.81835   0.67836   0.76373   0.00000  Uiso   1.00
C953   C     0.82271   0.72250   0.76017   0.00000  Uiso   1.00
C954   C     0.84319   0.94454   0.74020   0.00000  Uiso   1.00
C955   C     0.85190   0.81433   0.62941   0.00000  Uiso   1.00
C956   C     0.81552   0.85170   0.87099   0.00000  Uiso   1.00
C957   C     0.85621   0.75141   0.52017   0.00000  Uiso   1.00
C958   C     0.85805   0.80453   0.58134   0.00000  Uiso   1.00
C959   C     0.80824   0.90577   0.93663   0.00000  Uiso   1.00
H960   H     0.98586   0.80545   0.78957   0.00000  Uiso   1.00
H961   H     0.87337   0.67032   0.71159   0.00000  Uiso   1.00
H962   H     0.79159   0.99794   0.78881   0.00000  Uiso   1.00
H963   H     0.83260   0.73275   0.94435   0.00000  Uiso   1.00
H964   H     0.85885   0.71939   0.50628   0.00000  Uiso   1.00
H965   H     0.84521   0.86439   0.57331   0.00000  Uiso   1.00
H966   H     0.82901   0.90555   0.53686   0.00000  Uiso   1.00
H967   H     0.81026   0.95108   0.99268   0.00000  Uiso   1.00
H968   H     0.80869   0.77874   0.90388   0.00000  Uiso   1.00
H969   H     0.68218   0.86120   0.71059   0.00000  Uiso   1.00
O970   O     0.83333   0.83333   0.75000   0.00000  Uiso   1.00
O971   O     0.84597   0.74686   0.78214   0.00000  Uiso   1.00
O972   O     0.81298   0.92751   0.77014   0.00000  Uiso   1.00
O973   O     0.74078   0.79958   0.73413   0.00000  Uiso   1.00
O974   O     0.93360   0.85939   0.71361   0.00000  Uiso   1.00
O975   O     0.73738   0.85544   0.78213   0.00000  Uiso   1.00
O976   O     0.92158   0.81892   0.77014   0.00000  Uiso   1.00
O977   O     0.80426   0.73610   0.73413   0.00000  Uiso   1.00
O978   O     0.87012   0.92286   0.71361   0.00000  Uiso   1.00
O979   O     0.82118   0.79304   0.65459   0.00000  Uiso   1.00
O980   O     0.79607   0.87058   0.84968   0.00000  Uiso   1.00
O981   O     0.87491   0.84425   0.64606   0.00000  Uiso   1.00
O982   O     0.84118   0.82546   0.84968   0.00000  Uiso   1.00
Zn983  Zn    0.86005   0.80661   0.78734   0.00000  Uiso   1.00
Zn984  Zn    0.80046   0.79124   0.71876   0.00000  Uiso   1.00
Zn985  Zn    0.87723   0.86442   0.70657   0.00000  Uiso   1.00
Zn986  Zn    0.79560   0.87106   0.78734   0.00000  Uiso   1.00
C987   C     0.87298   0.73276   0.58708   0.00000  Uiso   1.00
N988   N     0.88099   0.70818   0.60676   0.00000  Uiso   1.00
C989   C     0.80089   0.93699   0.91085   0.00000  Uiso   1.00
N990   N     0.79505   0.96208   0.89031   0.00000  Uiso   1.00
loop_
_geom_bond_atom_site_label_1
_geom_bond_atom_site_label_2
_geom_bond_distance
_geom_bond_site_symmetry_2
_ccdc_geom_bond_type
C1     C15     1.437   .     S
C1     O38     1.268   .     A
C1     O40     1.267   .     A
C2     C24     1.390   .     A
C2     H32     1.085   .     S
C2     C498    1.387   .     S
C3     H31     1.076   .     S
C3     C497    1.387   1_554 S
C3     C499    1.413   1_554 S
C4     C5      1.424   .     A
C4     C498    1.413   .     S
C4     C501    1.427   .     S
C5     C9      1.411   .     A
C5     C13     1.423   .     A
C6     C10     1.411   .     A
C6     C499    1.427   1_554 S
C6     C502    1.422   1_554 S
C7     C8      1.391   .     A
C7     C501    1.422   .     S
C7     C517    1.400   .     S
C8     C9      1.383   .     A
C8     H28     1.084   .     S
C9     H33     1.080   .     S
C10    C23     1.393   .     A
C10    H30     1.077   .     S
C11    C22     1.391   .     A
C11    C23     1.407   .     A
C11    C52     1.445   .     S
C12    O41     1.281   .     A
C12    O39     1.284   .     A
C12    C14     1.454   .     S
C13    C21     1.486   .     S
C13    C24     1.420   .     A
C14    C70     1.334   .     S
C14    H89     1.088   .     S
C15    C124    1.334   1_455 S
C15    H135    1.086   1_455 S
C16    C19     1.451   .     S
C16    C182    1.331   .     S
C16    H191    1.088   .     S
C17    C18     1.435   .     S
C17    C346    1.331   1_545 S
C17    H357    1.086   1_545 S
C18    O42     1.275   .     A
C18    O36     1.275   .     A
C19    O43     1.273   .     A
C19    O37     1.274   .     A
C20    C23     1.457   .     S
C20    O44     1.267   .     A
C20    O46     1.280   .     A
C21    O45     1.282   .     A
C21    O47     1.287   .     A
C22    H29     1.086   .     S
C22    C502    1.400   1_554 S
C24    C54     1.446   .     S
H25    C70     1.086   .     S
H26    C346    1.088   1_545 S
H27    C182    1.086   .     S
H34    C124    1.088   1_455 S
O35    Zn50    1.943   .     S
O35    Zn49    1.935   .     S
O35    Zn51    1.933   .     S
O35    Zn48    1.959   .     S
O36    Zn48    1.925   .     S
O37    Zn51    1.933   .     S
O38    Zn49    1.928   .     S
O39    Zn50    1.934   .     S
O40    Zn51    1.929   .     S
O41    Zn48    1.926   .     S
O42    Zn49    1.938   .     S
O43    Zn50    1.928   .     S
O44    Zn49    1.937   .     S
O45    Zn51    1.942   .     S
O46    Zn50    1.933   .     S
O47    Zn48    1.929   .     S
C52    N53     1.157   .     T
C54    N55     1.158   .     T
C56    C70     1.437   .     S
C56    O93     1.268   .     A
C56    O95     1.267   .     A
C57    C79     1.390   .     A
C57    H87     1.085   .     S
C57    C553    1.387   .     S
C58    H86     1.076   .     S
C58    C552    1.387   1_554 S
C58    C554    1.413   1_554 S
C59    C60     1.424   .     A
C59    C553    1.413   .     S
C59    C556    1.427   .     S
C60    C64     1.411   .     A
C60    C68     1.423   .     A
C61    C65     1.411   .     A
C61    C554    1.427   1_554 S
C61    C557    1.422   1_554 S
C62    C63     1.391   .     A
C62    C556    1.422   .     S
C62    C572    1.400   .     S
C63    C64     1.383   .     A
C63    H83     1.084   .     S
C64    H88     1.080   .     S
C65    C78     1.393   .     A
C65    H85     1.077   .     S
C66    C77     1.391   .     A
C66    C78     1.407   .     A
C66    C107    1.445   .     S
C67    O96     1.281   .     A
C67    O94     1.284   .     A
C67    C69     1.454   .     S
C68    C76     1.486   .     S
C68    C79     1.420   .     A
C69    C125    1.334   .     S
C69    H144    1.088   .     S
C71    C74     1.451   .     S
C71    C237    1.331   .     S
C71    H246    1.088   .     S
C72    C73     1.435   .     S
C72    C401    1.331   1_545 S
C72    H412    1.086   1_545 S
C73    O97     1.275   .     A
C73    O91     1.275   .     A
C74    O98     1.273   .     A
C74    O92     1.274   .     A
C75    C78     1.457   .     S
C75    O99     1.267   .     A
C75    O101    1.280   .     A
C76    O100    1.282   .     A
C76    O102    1.287   .     A
C77    H84     1.086   .     S
C77    C557    1.400   1_554 S
C79    C109    1.446   .     S
H80    C125    1.086   .     S
H81    C401    1.088   1_545 S
H82    C237    1.086   .     S
O90    Zn105   1.943   .     S
O90    Zn104   1.935   .     S
O90    Zn106   1.933   .     S
O90    Zn103   1.959   .     S
O91    Zn103   1.925   .     S
O92    Zn106   1.933   .     S
O93    Zn104   1.928   .     S
O94    Zn105   1.934   .     S
O95    Zn106   1.929   .     S
O96    Zn103   1.926   .     S
O97    Zn104   1.938   .     S
O98    Zn105   1.928   .     S
O99    Zn104   1.937   .     S
O100   Zn106   1.942   .     S
O101   Zn105   1.933   .     S
O102   Zn103   1.929   .     S
C107   N108    1.157   .     T
C109   N110    1.158   .     T
C111   C125    1.437   .     S
C111   O148    1.268   .     A
C111   O150    1.267   .     A
C112   C134    1.390   .     A
C112   H142    1.085   .     S
C112   C608    1.387   .     S
C113   H141    1.076   .     S
C113   C607    1.387   1_554 S
C113   C609    1.413   1_554 S
C114   C115    1.424   .     A
C114   C608    1.413   .     S
C114   C611    1.427   .     S
C115   C119    1.411   .     A
C115   C123    1.423   .     A
C116   C120    1.411   .     A
C116   C609    1.427   1_554 S
C116   C612    1.422   1_554 S
C117   C118    1.391   .     A
C117   C611    1.422   .     S
C117   C627    1.400   .     S
C118   C119    1.383   .     A
C118   H138    1.084   .     S
C119   H143    1.080   .     S
C120   C133    1.393   .     A
C120   H140    1.077   .     S
C121   C132    1.391   .     A
C121   C133    1.407   .     A
C121   C162    1.445   .     S
C122   O151    1.281   .     A
C122   O149    1.284   .     A
C122   C124    1.454   .     S
C123   C131    1.486   .     S
C123   C134    1.420   .     A
C124   C15     1.334   1_655 S
C124   H34     1.088   1_655 S
C126   C129    1.451   .     S
C126   C292    1.331   .     S
C126   H301    1.088   .     S
C127   C128    1.435   .     S
C127   C456    1.331   1_545 S
C127   H467    1.086   1_545 S
C128   O152    1.275   .     A
C128   O146    1.275   .     A
C129   O153    1.273   .     A
C129   O147    1.274   .     A
C130   C133    1.457   .     S
C130   O154    1.267   .     A
C130   O156    1.280   .     A
C131   O155    1.282   .     A
C131   O157    1.287   .     A
C132   H139    1.086   .     S
C132   C612    1.400   1_554 S
C134   C164    1.446   .     S
H135   C15     1.086   1_655 S
H136   C456    1.088   1_545 S
H137   C292    1.086   .     S
O145   Zn160   1.943   .     S
O145   Zn159   1.935   .     S
O145   Zn161   1.933   .     S
O145   Zn158   1.959   .     S
O146   Zn158   1.925   .     S
O147   Zn161   1.933   .     S
O148   Zn159   1.928   .     S
O149   Zn160   1.934   .     S
O150   Zn161   1.929   .     S
O151   Zn158   1.926   .     S
O152   Zn159   1.938   .     S
O153   Zn160   1.928   .     S
O154   Zn159   1.937   .     S
O155   Zn161   1.942   .     S
O156   Zn160   1.933   .     S
O157   Zn158   1.929   .     S
C162   N163    1.157   .     T
C164   N165    1.158   .     T
C166   C180    1.437   .     S
C166   O203    1.268   .     A
C166   O205    1.267   .     A
C167   C189    1.390   .     A
C167   H197    1.085   .     S
C167   C663    1.387   .     S
C168   H196    1.076   .     S
C168   C662    1.387   1_554 S
C168   C664    1.413   1_554 S
C169   C170    1.424   .     A
C169   C663    1.413   .     S
C169   C666    1.427   .     S
C170   C174    1.411   .     A
C170   C178    1.423   .     A
C171   C175    1.411   .     A
C171   C664    1.427   1_554 S
C171   C667    1.422   1_554 S
C172   C173    1.391   .     A
C172   C666    1.422   .     S
C172   C682    1.400   .     S
C173   C174    1.383   .     A
C173   H193    1.084   .     S
C174   H198    1.080   .     S
C175   C188    1.393   .     A
C175   H195    1.077   .     S
C176   C187    1.391   .     A
C176   C188    1.407   .     A
C176   C217    1.445   .     S
C177   O206    1.281   .     A
C177   O204    1.284   .     A
C177   C179    1.454   .     S
C178   C186    1.486   .     S
C178   C189    1.420   .     A
C179   C235    1.334   .     S
C179   H254    1.088   .     S
C180   C289    1.334   1_455 S
C180   H300    1.086   1_455 S
C181   C184    1.451   .     S
C181   C347    1.331   .     S
C181   H356    1.088   .     S
C182   C183    1.435   .     S
C183   O207    1.275   .     A
C183   O201    1.275   .     A
C184   O208    1.273   .     A
C184   O202    1.274   .     A
C185   C188    1.457   .     S
C185   O209    1.267   .     A
C185   O211    1.280   .     A
C186   O210    1.282   .     A
C186   O212    1.287   .     A
C187   H194    1.086   .     S
C187   C667    1.400   1_554 S
C189   C219    1.446   .     S
H190   C235    1.086   .     S
H192   C347    1.086   .     S
H199   C289    1.088   1_455 S
O200   Zn215   1.943   .     S
O200   Zn214   1.935   .     S
O200   Zn216   1.933   .     S
O200   Zn213   1.959   .     S
O201   Zn213   1.925   .     S
O202   Zn216   1.933   .     S
O203   Zn214   1.928   .     S
O204   Zn215   1.934   .     S
O205   Zn216   1.929   .     S
O206   Zn213   1.926   .     S
O207   Zn214   1.938   .     S
O208   Zn215   1.928   .     S
O209   Zn214   1.937   .     S
O210   Zn216   1.942   .     S
O211   Zn215   1.933   .     S
O212   Zn213   1.929   .     S
C217   N218    1.157   .     T
C219   N220    1.158   .     T
C221   C235    1.437   .     S
C221   O258    1.268   .     A
C221   O260    1.267   .     A
C222   C244    1.390   .     A
C222   H252    1.085   .     S
C222   C718    1.387   .     S
C223   H251    1.076   .     S
C223   C717    1.387   1_554 S
C223   C719    1.413   1_554 S
C224   C225    1.424   .     A
C224   C718    1.413   .     S
C224   C721    1.427   .     S
C225   C229    1.411   .     A
C225   C233    1.423   .     A
C226   C230    1.411   .     A
C226   C719    1.427   1_554 S
C226   C722    1.422   1_554 S
C227   C228    1.391   .     A
C227   C721    1.422   .     S
C227   C737    1.400   .     S
C228   C229    1.383   .     A
C228   H248    1.084   .     S
C229   H253    1.080   .     S
C230   C243    1.393   .     A
C230   H250    1.077   .     S
C231   C242    1.391   .     A
C231   C243    1.407   .     A
C231   C272    1.445   .     S
C232   O261    1.281   .     A
C232   O259    1.284   .     A
C232   C234    1.454   .     S
C233   C241    1.486   .     S
C233   C244    1.420   .     A
C234   C290    1.334   .     S
C234   H309    1.088   .     S
C236   C239    1.451   .     S
C236   C402    1.331   .     S
C236   H411    1.088   .     S
C237   C238    1.435   .     S
C238   O262    1.275   .     A
C238   O256    1.275   .     A
C239   O263    1.273   .     A
C239   O257    1.274   .     A
C240   C243    1.457   .     S
C240   O264    1.267   .     A
C240   O266    1.280   .     A
C241   O265    1.282   .     A
C241   O267    1.287   .     A
C242   H249    1.086   .     S
C242   C722    1.400   1_554 S
C244   C274    1.446   .     S
H245   C290    1.086   .     S
H247   C402    1.086   .     S
O255   Zn270   1.943   .     S
O255   Zn269   1.935   .     S
O255   Zn271   1.933   .     S
O255   Zn268   1.959   .     S
O256   Zn268   1.925   .     S
O257   Zn271   1.933   .     S
O258   Zn269   1.928   .     S
O259   Zn270   1.934   .     S
O260   Zn271   1.929   .     S
O261   Zn268   1.926   .     S
O262   Zn269   1.938   .     S
O263   Zn270   1.928   .     S
O264   Zn269   1.937   .     S
O265   Zn271   1.942   .     S
O266   Zn270   1.933   .     S
O267   Zn268   1.929   .     S
C272   N273    1.157   .     T
C274   N275    1.158   .     T
C276   C290    1.437   .     S
C276   O313    1.268   .     A
C276   O315    1.267   .     A
C277   C299    1.390   .     A
C277   H307    1.085   .     S
C277   C773    1.387   .     S
C278   H306    1.076   .     S
C278   C772    1.387   1_554 S
C278   C774    1.413   1_554 S
C279   C280    1.424   .     A
C279   C773    1.413   .     S
C279   C776    1.427   .     S
C280   C284    1.411   .     A
C280   C288    1.423   .     A
C281   C285    1.411   .     A
C281   C774    1.427   1_554 S
C281   C777    1.422   1_554 S
C282   C283    1.391   .     A
C282   C776    1.422   .     S
C282   C792    1.400   .     S
C283   C284    1.383   .     A
C283   H303    1.084   .     S
C284   H308    1.080   .     S
C285   C298    1.393   .     A
C285   H305    1.077   .     S
C286   C297    1.391   .     A
C286   C298    1.407   .     A
C286   C327    1.445   .     S
C287   O316    1.281   .     A
C287   O314    1.284   .     A
C287   C289    1.454   .     S
C288   C296    1.486   .     S
C288   C299    1.420   .     A
C289   C180    1.334   1_655 S
C289   H199    1.088   1_655 S
C291   C294    1.451   .     S
C291   C457    1.331   .     S
C291   H466    1.088   .     S
C292   C293    1.435   .     S
C293   O317    1.275   .     A
C293   O311    1.275   .     A
C294   O318    1.273   .     A
C294   O312    1.274   .     A
C295   C298    1.457   .     S
C295   O319    1.267   .     A
C295   O321    1.280   .     A
C296   O320    1.282   .     A
C296   O322    1.287   .     A
C297   H304    1.086   .     S
C297   C777    1.400   1_554 S
C299   C329    1.446   .     S
H300   C180    1.086   1_655 S
H302   C457    1.086   .     S
O310   Zn325   1.943   .     S
O310   Zn324   1.935   .     S
O310   Zn326   1.933   .     S
O310   Zn323   1.959   .     S
O311   Zn323   1.925   .     S
O312   Zn326   1.933   .     S
O313   Zn324   1.928   .     S
O314   Zn325   1.934   .     S
O315   Zn326   1.929   .     S
O316   Zn323   1.926   .     S
O317   Zn324   1.938   .     S
O318   Zn325   1.928   .     S
O319   Zn324   1.937   .     S
O320   Zn326   1.942   .     S
O321   Zn325   1.933   .     S
O322   Zn323   1.929   .     S
C327   N328    1.157   .     T
C329   N330    1.158   .     T
C331   C345    1.437   .     S
C331   O368    1.268   .     A
C331   O370    1.267   .     A
C332   C354    1.390   .     A
C332   H362    1.085   .     S
C332   C828    1.387   .     S
C333   H361    1.076   .     S
C333   C827    1.387   1_554 S
C333   C829    1.413   1_554 S
C334   C335    1.424   .     A
C334   C828    1.413   .     S
C334   C831    1.427   .     S
C335   C339    1.411   .     A
C335   C343    1.423   .     A
C336   C340    1.411   .     A
C336   C829    1.427   1_554 S
C336   C832    1.422   1_554 S
C337   C338    1.391   .     A
C337   C831    1.422   .     S
C337   C847    1.400   .     S
C338   C339    1.383   .     A
C338   H358    1.084   .     S
C339   H363    1.080   .     S
C340   C353    1.393   .     A
C340   H360    1.077   .     S
C341   C352    1.391   .     A
C341   C353    1.407   .     A
C341   C382    1.445   .     S
C342   O371    1.281   .     A
C342   O369    1.284   .     A
C342   C344    1.454   .     S
C343   C351    1.486   .     S
C343   C354    1.420   .     A
C344   C400    1.334   .     S
C344   H419    1.088   .     S
C345   C454    1.334   1_455 S
C345   H465    1.086   1_455 S
C346   C349    1.451   .     S
C346   C17     1.331   1_565 S
C346   H26     1.088   1_565 S
C347   C348    1.435   .     S
C348   O372    1.275   .     A
C348   O366    1.275   .     A
C349   O373    1.273   .     A
C349   O367    1.274   .     A
C350   C353    1.457   .     S
C350   O374    1.267   .     A
C350   O376    1.280   .     A
C351   O375    1.282   .     A
C351   O377    1.287   .     A
C352   H359    1.086   .     S
C352   C832    1.400   1_554 S
C354   C384    1.446   .     S
H355   C400    1.086   .     S
H357   C17     1.086   1_565 S
H364   C454    1.088   1_455 S
O365   Zn380   1.943   .     S
O365   Zn379   1.935   .     S
O365   Zn381   1.933   .     S
O365   Zn378   1.959   .     S
O366   Zn378   1.925   .     S
O367   Zn381   1.933   .     S
O368   Zn379   1.928   .     S
O369   Zn380   1.934   .     S
O370   Zn381   1.929   .     S
O371   Zn378   1.926   .     S
O372   Zn379   1.938   .     S
O373   Zn380   1.928   .     S
O374   Zn379   1.937   .     S
O375   Zn381   1.942   .     S
O376   Zn380   1.933   .     S
O377   Zn378   1.929   .     S
C382   N383    1.157   .     T
C384   N385    1.158   .     T
C386   C400    1.437   .     S
C386   O423    1.268   .     A
C386   O425    1.267   .     A
C387   C409    1.390   .     A
C387   H417    1.085   .     S
C387   C883    1.387   .     S
C388   H416    1.076   .     S
C388   C882    1.387   1_554 S
C388   C884    1.413   1_554 S
C389   C390    1.424   .     A
C389   C883    1.413   .     S
C389   C886    1.427   .     S
C390   C394    1.411   .     A
C390   C398    1.423   .     A
C391   C395    1.411   .     A
C391   C884    1.427   1_554 S
C391   C887    1.422   1_554 S
C392   C393    1.391   .     A
C392   C886    1.422   .     S
C392   C902    1.400   .     S
C393   C394    1.383   .     A
C393   H413    1.084   .     S
C394   H418    1.080   .     S
C395   C408    1.393   .     A
C395   H415    1.077   .     S
C396   C407    1.391   .     A
C396   C408    1.407   .     A
C396   C437    1.445   .     S
C397   O426    1.281   .     A
C397   O424    1.284   .     A
C397   C399    1.454   .     S
C398   C406    1.486   .     S
C398   C409    1.420   .     A
C399   C455    1.334   .     S
C399   H474    1.088   .     S
C401   C404    1.451   .     S
C401   C72     1.331   1_565 S
C401   H81     1.088   1_565 S
C402   C403    1.435   .     S
C403   O427    1.275   .     A
C403   O421    1.275   .     A
C404   O428    1.273   .     A
C404   O422    1.274   .     A
C405   C408    1.457   .     S
C405   O429    1.267   .     A
C405   O431    1.280   .     A
C406   O430    1.282   .     A
C406   O432    1.287   .     A
C407   H414    1.086   .     S
C407   C887    1.400   1_554 S
C409   C439    1.446   .     S
H410   C455    1.086   .     S
H412   C72     1.086   1_565 S
O420   Zn435   1.943   .     S
O420   Zn434   1.935   .     S
O420   Zn436   1.933   .     S
O420   Zn433   1.959   .     S
O421   Zn433   1.925   .     S
O422   Zn436   1.933   .     S
O423   Zn434   1.928   .     S
O424   Zn435   1.934   .     S
O425   Zn436   1.929   .     S
O426   Zn433   1.926   .     S
O427   Zn434   1.938   .     S
O428   Zn435   1.928   .     S
O429   Zn434   1.937   .     S
O430   Zn436   1.942   .     S
O431   Zn435   1.933   .     S
O432   Zn433   1.929   .     S
C437   N438    1.157   .     T
C439   N440    1.158   .     T
C441   C455    1.437   .     S
C441   O478    1.268   .     A
C441   O480    1.267   .     A
C442   C464    1.390   .     A
C442   H472    1.085   .     S
C442   C938    1.387   .     S
C443   H471    1.076   .     S
C443   C937    1.387   1_554 S
C443   C939    1.413   1_554 S
C444   C445    1.424   .     A
C444   C938    1.413   .     S
C444   C941    1.427   .     S
C445   C449    1.411   .     A
C445   C453    1.423   .     A
C446   C450    1.411   .     A
C446   C939    1.427   1_554 S
C446   C942    1.422   1_554 S
C447   C448    1.391   .     A
C447   C941    1.422   .     S
C447   C957    1.400   .     S
C448   C449    1.383   .     A
C448   H468    1.084   .     S
C449   H473    1.080   .     S
C450   C463    1.393   .     A
C450   H470    1.077   .     S
C451   C462    1.391   .     A
C451   C463    1.407   .     A
C451   C492    1.445   .     S
C452   O481    1.281   .     A
C452   O479    1.284   .     A
C452   C454    1.454   .     S
C453   C461    1.486   .     S
C453   C464    1.420   .     A
C454   C345    1.334   1_655 S
C454   H364    1.088   1_655 S
C456   C459    1.451   .     S
C456   C127    1.331   1_565 S
C456   H136    1.088   1_565 S
C457   C458    1.435   .     S
C458   O482    1.275   .     A
C458   O476    1.275   .     A
C459   O483    1.273   .     A
C459   O477    1.274   .     A
C460   C463    1.457   .     S
C460   O484    1.267   .     A
C460   O486    1.280   .     A
C461   O485    1.282   .     A
C461   O487    1.287   .     A
C462   H469    1.086   .     S
C462   C942    1.400   1_554 S
C464   C494    1.446   .     S
H465   C345    1.086   1_655 S
H467   C127    1.086   1_565 S
O475   Zn490   1.943   .     S
O475   Zn489   1.935   .     S
O475   Zn491   1.933   .     S
O475   Zn488   1.959   .     S
O476   Zn488   1.925   .     S
O477   Zn491   1.933   .     S
O478   Zn489   1.928   .     S
O479   Zn490   1.934   .     S
O480   Zn491   1.929   .     S
O481   Zn488   1.926   .     S
O482   Zn489   1.938   .     S
O483   Zn490   1.928   .     S
O484   Zn489   1.937   .     S
O485   Zn491   1.942   .     S
O486   Zn490   1.933   .     S
O487   Zn488   1.929   .     S
C492   N493    1.157   .     T
C494   N495    1.158   .     T
C496   C510    1.437   .     S
C496   O533    1.268   .     A
C496   O535    1.267   .     A
C497   C519    1.390   .     A
C497   H527    1.085   .     S
C497   C3      1.387   1_556 S
C498   H526    1.076   .     S
C499   C500    1.424   .     A
C499   C3      1.413   1_556 S
C499   C6      1.427   1_556 S
C500   C504    1.411   .     A
C500   C508    1.423   .     A
C501   C505    1.411   .     A
C502   C503    1.391   .     A
C502   C6      1.422   1_556 S
C502   C22     1.400   1_556 S
C503   C504    1.383   .     A
C503   H523    1.084   .     S
C504   H528    1.080   .     S
C505   C518    1.393   .     A
C505   H525    1.077   .     S
C506   C517    1.391   .     A
C506   C518    1.407   .     A
C506   C547    1.445   .     S
C507   O536    1.281   .     A
C507   O534    1.284   .     A
C507   C509    1.454   .     S
C508   C516    1.486   .     S
C508   C519    1.420   .     A
C509   C565    1.334   .     S
C509   H584    1.088   .     S
C510   C619    1.334   1_455 S
C510   H630    1.086   1_455 S
C511   C514    1.451   .     S
C511   C677    1.331   .     S
C511   H686    1.088   .     S
C512   C513    1.435   .     S
C512   C841    1.331   1_545 S
C512   H852    1.086   1_545 S
C513   O537    1.275   .     A
C513   O531    1.275   .     A
C514   O538    1.273   .     A
C514   O532    1.274   .     A
C515   C518    1.457   .     S
C515   O539    1.267   .     A
C515   O541    1.280   .     A
C516   O540    1.282   .     A
C516   O542    1.287   .     A
C517   H524    1.086   .     S
C519   C549    1.446   .     S
H520   C565    1.086   .     S
H521   C841    1.088   1_545 S
H522   C677    1.086   .     S
H529   C619    1.088   1_455 S
O530   Zn545   1.943   .     S
O530   Zn544   1.935   .     S
O530   Zn546   1.933   .     S
O530   Zn543   1.959   .     S
O531   Zn543   1.925   .     S
O532   Zn546   1.933   .     S
O533   Zn544   1.928   .     S
O534   Zn545   1.934   .     S
O535   Zn546   1.929   .     S
O536   Zn543   1.926   .     S
O537   Zn544   1.938   .     S
O538   Zn545   1.928   .     S
O539   Zn544   1.937   .     S
O540   Zn546   1.942   .     S
O541   Zn545   1.933   .     S
O542   Zn543   1.929   .     S
C547   N548    1.157   .     T
C549   N550    1.158   .     T
C551   C565    1.437   .     S
C551   O588    1.268   .     A
C551   O590    1.267   .     A
C552   C574    1.390   .     A
C552   H582    1.085   .     S
C552   C58     1.387   1_556 S
C553   H581    1.076   .     S
C554   C555    1.424   .     A
C554   C58     1.413   1_556 S
C554   C61     1.427   1_556 S
C555   C559    1.411   .     A
C555   C563    1.423   .     A
C556   C560    1.411   .     A
C557   C558    1.391   .     A
C557   C61     1.422   1_556 S
C557   C77     1.400   1_556 S
C558   C559    1.383   .     A
C558   H578    1.084   .     S
C559   H583    1.080   .     S
C560   C573    1.393   .     A
C560   H580    1.077   .     S
C561   C572    1.391   .     A
C561   C573    1.407   .     A
C561   C602    1.445   .     S
C562   O591    1.281   .     A
C562   O589    1.284   .     A
C562   C564    1.454   .     S
C563   C571    1.486   .     S
C563   C574    1.420   .     A
C564   C620    1.334   .     S
C564   H639    1.088   .     S
C566   C569    1.451   .     S
C566   C732    1.331   .     S
C566   H741    1.088   .     S
C567   C568    1.435   .     S
C567   C896    1.331   1_545 S
C567   H907    1.086   1_545 S
C568   O592    1.275   .     A
C568   O586    1.275   .     A
C569   O593    1.273   .     A
C569   O587    1.274   .     A
C570   C573    1.457   .     S
C570   O594    1.267   .     A
C570   O596    1.280   .     A
C571   O595    1.282   .     A
C571   O597    1.287   .     A
C572   H579    1.086   .     S
C574   C604    1.446   .     S
H575   C620    1.086   .     S
H576   C896    1.088   1_545 S
H577   C732    1.086   .     S
O585   Zn600   1.943   .     S
O585   Zn599   1.935   .     S
O585   Zn601   1.933   .     S
O585   Zn598   1.959   .     S
O586   Zn598   1.925   .     S
O587   Zn601   1.933   .     S
O588   Zn599   1.928   .     S
O589   Zn600   1.934   .     S
O590   Zn601   1.929   .     S
O591   Zn598   1.926   .     S
O592   Zn599   1.938   .     S
O593   Zn600   1.928   .     S
O594   Zn599   1.937   .     S
O595   Zn601   1.942   .     S
O596   Zn600   1.933   .     S
O597   Zn598   1.929   .     S
C602   N603    1.157   .     T
C604   N605    1.158   .     T
C606   C620    1.437   .     S
C606   O643    1.268   .     A
C606   O645    1.267   .     A
C607   C629    1.390   .     A
C607   H637    1.085   .     S
C607   C113    1.387   1_556 S
C608   H636    1.076   .     S
C609   C610    1.424   .     A
C609   C113    1.413   1_556 S
C609   C116    1.427   1_556 S
C610   C614    1.411   .     A
C610   C618    1.423   .     A
C611   C615    1.411   .     A
C612   C613    1.391   .     A
C612   C116    1.422   1_556 S
C612   C132    1.400   1_556 S
C613   C614    1.383   .     A
C613   H633    1.084   .     S
C614   H638    1.080   .     S
C615   C628    1.393   .     A
C615   H635    1.077   .     S
C616   C627    1.391   .     A
C616   C628    1.407   .     A
C616   C657    1.445   .     S
C617   O646    1.281   .     A
C617   O644    1.284   .     A
C617   C619    1.454   .     S
C618   C626    1.486   .     S
C618   C629    1.420   .     A
C619   C510    1.334   1_655 S
C619   H529    1.088   1_655 S
C621   C624    1.451   .     S
C621   C787    1.331   .     S
C621   H796    1.088   .     S
C622   C623    1.435   .     S
C622   C951    1.331   1_545 S
C622   H962    1.086   1_545 S
C623   O647    1.275   .     A
C623   O641    1.275   .     A
C624   O648    1.273   .     A
C624   O642    1.274   .     A
C625   C628    1.457   .     S
C625   O649    1.267   .     A
C625   O651    1.280   .     A
C626   O650    1.282   .     A
C626   O652    1.287   .     A
C627   H634    1.086   .     S
C629   C659    1.446   .     S
H630   C510    1.086   1_655 S
H631   C951    1.088   1_545 S
H632   C787    1.086   .     S
O640   Zn655   1.943   .     S
O640   Zn654   1.935   .     S
O640   Zn656   1.933   .     S
O640   Zn653   1.959   .     S
O641   Zn653   1.925   .     S
O642   Zn656   1.933   .     S
O643   Zn654   1.928   .     S
O644   Zn655   1.934   .     S
O645   Zn656   1.929   .     S
O646   Zn653   1.926   .     S
O647   Zn654   1.938   .     S
O648   Zn655   1.928   .     S
O649   Zn654   1.937   .     S
O650   Zn656   1.942   .     S
O651   Zn655   1.933   .     S
O652   Zn653   1.929   .     S
C657   N658    1.157   .     T
C659   N660    1.158   .     T
C661   C675    1.437   .     S
C661   O698    1.268   .     A
C661   O700    1.267   .     A
C662   C684    1.390   .     A
C662   H692    1.085   .     S
C662   C168    1.387   1_556 S
C663   H691    1.076   .     S
C664   C665    1.424   .     A
C664   C168    1.413   1_556 S
C664   C171    1.427   1_556 S
C665   C669    1.411   .     A
C665   C673    1.423   .     A
C666   C670    1.411   .     A
C667   C668    1.391   .     A
C667   C171    1.422   1_556 S
C667   C187    1.400   1_556 S
C668   C669    1.383   .     A
C668   H688    1.084   .     S
C669   H693    1.080   .     S
C670   C683    1.393   .     A
C670   H690    1.077   .     S
C671   C682    1.391   .     A
C671   C683    1.407   .     A
C671   C712    1.445   .     S
C672   O701    1.281   .     A
C672   O699    1.284   .     A
C672   C674    1.454   .     S
C673   C681    1.486   .     S
C673   C684    1.420   .     A
C674   C730    1.334   .     S
C674   H749    1.088   .     S
C675   C784    1.334   1_455 S
C675   H795    1.086   1_455 S
C676   C679    1.451   .     S
C676   C842    1.331   .     S
C676   H851    1.088   .     S
C677   C678    1.435   .     S
C678   O702    1.275   .     A
C678   O696    1.275   .     A
C679   O703    1.273   .     A
C679   O697    1.274   .     A
C680   C683    1.457   .     S
C680   O704    1.267   .     A
C680   O706    1.280   .     A
C681   O705    1.282   .     A
C681   O707    1.287   .     A
C682   H689    1.086   .     S
C684   C714    1.446   .     S
H685   C730    1.086   .     S
H687   C842    1.086   .     S
H694   C784    1.088   1_455 S
O695   Zn710   1.943   .     S
O695   Zn709   1.935   .     S
O695   Zn711   1.933   .     S
O695   Zn708   1.959   .     S
O696   Zn708   1.925   .     S
O697   Zn711   1.933   .     S
O698   Zn709   1.928   .     S
O699   Zn710   1.934   .     S
O700   Zn711   1.929   .     S
O701   Zn708   1.926   .     S
O702   Zn709   1.938   .     S
O703   Zn710   1.928   .     S
O704   Zn709   1.937   .     S
O705   Zn711   1.942   .     S
O706   Zn710   1.933   .     S
O707   Zn708   1.929   .     S
C712   N713    1.157   .     T
C714   N715    1.158   .     T
C716   C730    1.437   .     S
C716   O753    1.268   .     A
C716   O755    1.267   .     A
C717   C739    1.390   .     A
C717   H747    1.085   .     S
C717   C223    1.387   1_556 S
C718   H746    1.076   .     S
C719   C720    1.424   .     A
C719   C223    1.413   1_556 S
C719   C226    1.427   1_556 S
C720   C724    1.411   .     A
C720   C728    1.423   .     A
C721   C725    1.411   .     A
C722   C723    1.391   .     A
C722   C226    1.422   1_556 S
C722   C242    1.400   1_556 S
C723   C724    1.383   .     A
C723   H743    1.084   .     S
C724   H748    1.080   .     S
C725   C738    1.393   .     A
C725   H745    1.077   .     S
C726   C737    1.391   .     A
C726   C738    1.407   .     A
C726   C767    1.445   .     S
C727   O756    1.281   .     A
C727   O754    1.284   .     A
C727   C729    1.454   .     S
C728   C736    1.486   .     S
C728   C739    1.420   .     A
C729   C785    1.334   .     S
C729   H804    1.088   .     S
C731   C734    1.451   .     S
C731   C897    1.331   .     S
C731   H906    1.088   .     S
C732   C733    1.435   .     S
C733   O757    1.275   .     A
C733   O751    1.275   .     A
C734   O758    1.273   .     A
C734   O752    1.274   .     A
C735   C738    1.457   .     S
C735   O759    1.267   .     A
C735   O761    1.280   .     A
C736   O760    1.282   .     A
C736   O762    1.287   .     A
C737   H744    1.086   .     S
C739   C769    1.446   .     S
H740   C785    1.086   .     S
H742   C897    1.086   .     S
O750   Zn765   1.943   .     S
O750   Zn764   1.935   .     S
O750   Zn766   1.933   .     S
O750   Zn763   1.959   .     S
O751   Zn763   1.925   .     S
O752   Zn766   1.933   .     S
O753   Zn764   1.928   .     S
O754   Zn765   1.934   .     S
O755   Zn766   1.929   .     S
O756   Zn763   1.926   .     S
O757   Zn764   1.938   .     S
O758   Zn765   1.928   .     S
O759   Zn764   1.937   .     S
O760   Zn766   1.942   .     S
O761   Zn765   1.933   .     S
O762   Zn763   1.929   .     S
C767   N768    1.157   .     T
C769   N770    1.158   .     T
C771   C785    1.437   .     S
C771   O808    1.268   .     A
C771   O810    1.267   .     A
C772   C794    1.390   .     A
C772   H802    1.085   .     S
C772   C278    1.387   1_556 S
C773   H801    1.076   .     S
C774   C775    1.424   .     A
C774   C278    1.413   1_556 S
C774   C281    1.427   1_556 S
C775   C779    1.411   .     A
C775   C783    1.423   .     A
C776   C780    1.411   .     A
C777   C778    1.391   .     A
C777   C281    1.422   1_556 S
C777   C297    1.400   1_556 S
C778   C779    1.383   .     A
C778   H798    1.084   .     S
C779   H803    1.080   .     S
C780   C793    1.393   .     A
C780   H800    1.077   .     S
C781   C792    1.391   .     A
C781   C793    1.407   .     A
C781   C822    1.445   .     S
C782   O811    1.281   .     A
C782   O809    1.284   .     A
C782   C784    1.454   .     S
C783   C791    1.486   .     S
C783   C794    1.420   .     A
C784   C675    1.334   1_655 S
C784   H694    1.088   1_655 S
C786   C789    1.451   .     S
C786   C952    1.331   .     S
C786   H961    1.088   .     S
C787   C788    1.435   .     S
C788   O812    1.275   .     A
C788   O806    1.275   .     A
C789   O813    1.273   .     A
C789   O807    1.274   .     A
C790   C793    1.457   .     S
C790   O814    1.267   .     A
C790   O816    1.280   .     A
C791   O815    1.282   .     A
C791   O817    1.287   .     A
C792   H799    1.086   .     S
C794   C824    1.446   .     S
H795   C675    1.086   1_655 S
H797   C952    1.086   .     S
O805   Zn820   1.943   .     S
O805   Zn819   1.935   .     S
O805   Zn821   1.933   .     S
O805   Zn818   1.959   .     S
O806   Zn818   1.925   .     S
O807   Zn821   1.933   .     S
O808   Zn819   1.928   .     S
O809   Zn820   1.934   .     S
O810   Zn821   1.929   .     S
O811   Zn818   1.926   .     S
O812   Zn819   1.938   .     S
O813   Zn820   1.928   .     S
O814   Zn819   1.937   .     S
O815   Zn821   1.942   .     S
O816   Zn820   1.933   .     S
O817   Zn818   1.929   .     S
C822   N823    1.157   .     T
C824   N825    1.158   .     T
C826   C840    1.437   .     S
C826   O863    1.268   .     A
C826   O865    1.267   .     A
C827   C849    1.390   .     A
C827   H857    1.085   .     S
C827   C333    1.387   1_556 S
C828   H856    1.076   .     S
C829   C830    1.424   .     A
C829   C333    1.413   1_556 S
C829   C336    1.427   1_556 S
C830   C834    1.411   .     A
C830   C838    1.423   .     A
C831   C835    1.411   .     A
C832   C833    1.391   .     A
C832   C336    1.422   1_556 S
C832   C352    1.400   1_556 S
C833   C834    1.383   .     A
C833   H853    1.084   .     S
C834   H858    1.080   .     S
C835   C848    1.393   .     A
C835   H855    1.077   .     S
C836   C847    1.391   .     A
C836   C848    1.407   .     A
C836   C877    1.445   .     S
C837   O866    1.281   .     A
C837   O864    1.284   .     A
C837   C839    1.454   .     S
C838   C846    1.486   .     S
C838   C849    1.420   .     A
C839   C895    1.334   .     S
C839   H914    1.088   .     S
C840   C949    1.334   1_455 S
C840   H960    1.086   1_455 S
C841   C844    1.451   .     S
C841   C512    1.331   1_565 S
C841   H521    1.088   1_565 S
C842   C843    1.435   .     S
C843   O867    1.275   .     A
C843   O861    1.275   .     A
C844   O868    1.273   .     A
C844   O862    1.274   .     A
C845   C848    1.457   .     S
C845   O869    1.267   .     A
C845   O871    1.280   .     A
C846   O870    1.282   .     A
C846   O872    1.287   .     A
C847   H854    1.086   .     S
C849   C879    1.446   .     S
H850   C895    1.086   .     S
H852   C512    1.086   1_565 S
H859   C949    1.088   1_455 S
O860   Zn875   1.943   .     S
O860   Zn874   1.935   .     S
O860   Zn876   1.933   .     S
O860   Zn873   1.959   .     S
O861   Zn873   1.925   .     S
O862   Zn876   1.933   .     S
O863   Zn874   1.928   .     S
O864   Zn875   1.934   .     S
O865   Zn876   1.929   .     S
O866   Zn873   1.926   .     S
O867   Zn874   1.938   .     S
O868   Zn875   1.928   .     S
O869   Zn874   1.937   .     S
O870   Zn876   1.942   .     S
O871   Zn875   1.933   .     S
O872   Zn873   1.929   .     S
C877   N878    1.157   .     T
C879   N880    1.158   .     T
C881   C895    1.437   .     S
C881   O918    1.268   .     A
C881   O920    1.267   .     A
C882   C904    1.390   .     A
C882   H912    1.085   .     S
C882   C388    1.387   1_556 S
C883   H911    1.076   .     S
C884   C885    1.424   .     A
C884   C388    1.413   1_556 S
C884   C391    1.427   1_556 S
C885   C889    1.411   .     A
C885   C893    1.423   .     A
C886   C890    1.411   .     A
C887   C888    1.391   .     A
C887   C391    1.422   1_556 S
C887   C407    1.400   1_556 S
C888   C889    1.383   .     A
C888   H908    1.084   .     S
C889   H913    1.080   .     S
C890   C903    1.393   .     A
C890   H910    1.077   .     S
C891   C902    1.391   .     A
C891   C903    1.407   .     A
C891   C932    1.445   .     S
C892   O921    1.281   .     A
C892   O919    1.284   .     A
C892   C894    1.454   .     S
C893   C901    1.486   .     S
C893   C904    1.420   .     A
C894   C950    1.334   .     S
C894   H969    1.088   .     S
C896   C899    1.451   .     S
C896   C567    1.331   1_565 S
C896   H576    1.088   1_565 S
C897   C898    1.435   .     S
C898   O922    1.275   .     A
C898   O916    1.275   .     A
C899   O923    1.273   .     A
C899   O917    1.274   .     A
C900   C903    1.457   .     S
C900   O924    1.267   .     A
C900   O926    1.280   .     A
C901   O925    1.282   .     A
C901   O927    1.287   .     A
C902   H909    1.086   .     S
C904   C934    1.446   .     S
H905   C950    1.086   .     S
H907   C567    1.086   1_565 S
O915   Zn930   1.943   .     S
O915   Zn929   1.935   .     S
O915   Zn931   1.933   .     S
O915   Zn928   1.959   .     S
O916   Zn928   1.925   .     S
O917   Zn931   1.933   .     S
O918   Zn929   1.928   .     S
O919   Zn930   1.934   .     S
O920   Zn931   1.929   .     S
O921   Zn928   1.926   .     S
O922   Zn929   1.938   .     S
O923   Zn930   1.928   .     S
O924   Zn929   1.937   .     S
O925   Zn931   1.942   .     S
O926   Zn930   1.933   .     S
O927   Zn928   1.929   .     S
C932   N933    1.157   .     T
C934   N935    1.158   .     T
C936   C950    1.437   .     S
C936   O973    1.268   .     A
C936   O975    1.267   .     A
C937   C959    1.390   .     A
C937   H967    1.085   .     S
C937   C443    1.387   1_556 S
C938   H966    1.076   .     S
C939   C940    1.424   .     A
C939   C443    1.413   1_556 S
C939   C446    1.427   1_556 S
C940   C944    1.411   .     A
C940   C948    1.423   .     A
C941   C945    1.411   .     A
C942   C943    1.391   .     A
C942   C446    1.422   1_556 S
C942   C462    1.400   1_556 S
C943   C944    1.383   .     A
C943   H963    1.084   .     S
C944   H968    1.080   .     S
C945   C958    1.393   .     A
C945   H965    1.077   .     S
C946   C957    1.391   .     A
C946   C958    1.407   .     A
C946   C987    1.445   .     S
C947   O976    1.281   .     A
C947   O974    1.284   .     A
C947   C949    1.454   .     S
C948   C956    1.486   .     S
C948   C959    1.420   .     A
C949   C840    1.334   1_655 S
C949   H859    1.088   1_655 S
C951   C954    1.451   .     S
C951   C622    1.331   1_565 S
C951   H631    1.088   1_565 S
C952   C953    1.435   .     S
C953   O977    1.275   .     A
C953   O971    1.275   .     A
C954   O978    1.273   .     A
C954   O972    1.274   .     A
C955   C958    1.457   .     S
C955   O979    1.267   .     A
C955   O981    1.280   .     A
C956   O980    1.282   .     A
C956   O982    1.287   .     A
C957   H964    1.086   .     S
C959   C989    1.446   .     S
H960   C840    1.086   1_655 S
H962   C622    1.086   1_565 S
O970   Zn985   1.943   .     S
O970   Zn984   1.935   .     S
O970   Zn986   1.933   .     S
O970   Zn983   1.959   .     S
O971   Zn983   1.925   .     S
O972   Zn986   1.933   .     S
O973   Zn984   1.928   .     S
O974   Zn985   1.934   .     S
O975   Zn986   1.929   .     S
O976   Zn983   1.926   .     S
O977   Zn984   1.938   .     S
O978   Zn985   1.928   .     S
O979   Zn984   1.937   .     S
O980   Zn986   1.942   .     S
O981   Zn985   1.933   .     S
O982   Zn983   1.929   .     S
C987   N988    1.157   .     T
C989   N990    1.158   .     T
