data_str_m1_o1_o17_pcu_sym.36
_audit_creation_date              2020-01-03
_audit_creation_method            'Materials Studio'
_symmetry_space_group_name_H-M    'P1'
_symmetry_Int_Tables_number       1
_symmetry_cell_setting            triclinic
loop_
_symmetry_equiv_pos_as_xyz
  x,y,z
_cell_length_a                    36.6331
_cell_length_b                    36.6428
_cell_length_c                    34.3787
_cell_angle_alpha                 90.2309
_cell_angle_beta                  89.7744
_cell_angle_gamma                 90.0752
loop_
_atom_site_label
_atom_site_type_symbol
_atom_site_fract_x
_atom_site_fract_y
_atom_site_fract_z
_atom_site_U_iso_or_equiv
_atom_site_adp_type
_atom_site_occupancy
C1     C     0.02206   0.27532   0.41819   0.00000  Uiso   1.00
C2     C     0.25598   0.46797   0.08213   0.00000  Uiso   1.00
C3     C     0.21708   0.00906   0.54173   0.00000  Uiso   1.00
C4     C     0.02422   0.27404   0.45917   0.00000  Uiso   1.00
C5     C     0.48020   0.22275   0.54128   0.00000  Uiso   1.00
C6     C     0.21719   0.01091   0.45936   0.00000  Uiso   1.00
C7     C     0.28136   0.48866   0.54081   0.00000  Uiso   1.00
C8     C     0.25808   0.46671   0.95895   0.00000  Uiso   1.00
C9     C     0.24857   0.03429   0.04101   0.00000  Uiso   1.00
C10    C     0.02418   0.22576   0.95898   0.00000  Uiso   1.00
C11    C     0.47273   0.26948   0.04152   0.00000  Uiso   1.00
C12    C     0.24948   0.03336   0.95877   0.00000  Uiso   1.00
C13    C     0.47710   0.27373   0.91883   0.00000  Uiso   1.00
C14    C     0.25925   0.46790   0.04127   0.00000  Uiso   1.00
C15    C     0.47404   0.27055   0.95951   0.00000  Uiso   1.00
C16    C     0.02293   0.22484   0.04115   0.00000  Uiso   1.00
C17    C     0.09816   0.34799   0.25007   0.00000  Uiso   1.00
C18    C     0.40179   0.15204   0.75004   0.00000  Uiso   1.00
C19    C     0.15225   0.09863   0.24979   0.00000  Uiso   1.00
C20    C     0.34797   0.40187   0.74954   0.00000  Uiso   1.00
C21    C     0.40091   0.15266   0.24931   0.00000  Uiso   1.00
C22    C     0.09819   0.34801   0.74997   0.00000  Uiso   1.00
C23    C     0.34819   0.40202   0.24997   0.00000  Uiso   1.00
C24    C     0.02481   0.22754   0.08196   0.00000  Uiso   1.00
C25    C     0.15112   0.09738   0.74970   0.00000  Uiso   1.00
C26    C     0.09796   0.15178   0.74968   0.00000  Uiso   1.00
C27    C     0.40193   0.34814   0.25011   0.00000  Uiso   1.00
C28    C     0.15187   0.40193   0.75003   0.00000  Uiso   1.00
C29    C     0.34804   0.09802   0.24961   0.00000  Uiso   1.00
C30    C     0.40282   0.34921   0.74931   0.00000  Uiso   1.00
C31    C     0.09804   0.15197   0.24979   0.00000  Uiso   1.00
C32    C     0.34799   0.09816   0.75005   0.00000  Uiso   1.00
C33    C     0.15168   0.40212   0.24999   0.00000  Uiso   1.00
C34    C     0.00207   0.24863   0.47971   0.00000  Uiso   1.00
C35    C     0.25616   0.46654   0.91785   0.00000  Uiso   1.00
C36    C     0.00252   0.24801   0.52075   0.00000  Uiso   1.00
C37    C     0.24899   0.49969   0.47954   0.00000  Uiso   1.00
C38    C     0.24916   0.49919   0.52072   0.00000  Uiso   1.00
C39    C     0.25364   0.00025   0.97943   0.00000  Uiso   1.00
C40    C     0.25369   0.00080   0.02058   0.00000  Uiso   1.00
C41    C     0.49873   0.24778   0.97975   0.00000  Uiso   1.00
C42    C     0.49811   0.24734   0.02080   0.00000  Uiso   1.00
C43    C     0.46377   0.13946   0.45592   0.00000  Uiso   1.00
C44    C     0.10776   0.29388   0.54373   0.00000  Uiso   1.00
C45    C     0.33385   0.42147   0.45593   0.00000  Uiso   1.00
C46    C     0.24721   0.03412   0.08210   0.00000  Uiso   1.00
C47    C     0.12721   0.00010   0.53467   0.00000  Uiso   1.00
C48    C     0.06453   0.35671   0.46754   0.00000  Uiso   1.00
C49    C     0.40019   0.18781   0.54141   0.00000  Uiso   1.00
C50    C     0.15825   0.07633   0.46625   0.00000  Uiso   1.00
C51    C     0.37204   0.49123   0.53256   0.00000  Uiso   1.00
C52    C     0.24128   0.37796   0.96688   0.00000  Uiso   1.00
C53    C     0.20558   0.11321   0.03304   0.00000  Uiso   1.00
C54    C     0.10701   0.18556   0.96696   0.00000  Uiso   1.00
C55    C     0.43667   0.34914   0.04162   0.00000  Uiso   1.00
C56    C     0.28912   0.10902   0.95649   0.00000  Uiso   1.00
C57    C     0.02539   0.22789   0.91797   0.00000  Uiso   1.00
C58    C     0.31801   0.40566   0.04272   0.00000  Uiso   1.00
C59    C     0.38923   0.28487   0.95699   0.00000  Uiso   1.00
C60    C     0.04456   0.14228   0.04331   0.00000  Uiso   1.00
C61    C     0.13592   0.42359   0.16038   0.00000  Uiso   1.00
C62    C     0.35402   0.08101   0.84117   0.00000  Uiso   1.00
C63    C     0.06738   0.13102   0.16435   0.00000  Uiso   1.00
C64    C     0.44434   0.38636   0.81974   0.00000  Uiso   1.00
C65    C     0.37495   0.06295   0.16708   0.00000  Uiso   1.00
C66    C     0.13966   0.42150   0.84099   0.00000  Uiso   1.00
C67    C     0.41654   0.35512   0.15786   0.00000  Uiso   1.00
C68    C     0.47239   0.26853   0.08246   0.00000  Uiso   1.00
C69    C     0.06927   0.13416   0.83684   0.00000  Uiso   1.00
C70    C     0.12535   0.06699   0.83345   0.00000  Uiso   1.00
C71    C     0.35038   0.41605   0.15835   0.00000  Uiso   1.00
C72    C     0.07812   0.35611   0.84047   0.00000  Uiso   1.00
C73    C     0.43901   0.12373   0.16951   0.00000  Uiso   1.00
C74    C     0.37176   0.43500   0.83466   0.00000  Uiso   1.00
C75    C     0.12644   0.06577   0.16612   0.00000  Uiso   1.00
C76    C     0.41845   0.14438   0.84169   0.00000  Uiso   1.00
C77    C     0.07733   0.35653   0.15980   0.00000  Uiso   1.00
C78    C     0.39222   0.16971   0.65890   0.00000  Uiso   1.00
C79    C     0.49935   0.25069   0.39830   0.00000  Uiso   1.00
C80    C     0.11127   0.32769   0.34052   0.00000  Uiso   1.00
C81    C     0.31412   0.37746   0.66665   0.00000  Uiso   1.00
C82    C     0.18595   0.12791   0.33125   0.00000  Uiso   1.00
C83    C     0.11018   0.32826   0.65909   0.00000  Uiso   1.00
C84    C     0.36287   0.19578   0.31863   0.00000  Uiso   1.00
C85    C     0.17810   0.11526   0.66142   0.00000  Uiso   1.00
C86    C     0.33314   0.39819   0.34157   0.00000  Uiso   1.00
C87    C     0.39788   0.33428   0.34207   0.00000  Uiso   1.00
C88    C     0.11569   0.17892   0.66261   0.00000  Uiso   1.00
C89    C     0.31337   0.12379   0.33349   0.00000  Uiso   1.00
C90    C     0.00080   0.24938   0.60206   0.00000  Uiso   1.00
C91    C     0.17263   0.39205   0.65981   0.00000  Uiso   1.00
C92    C     0.11788   0.18320   0.33569   0.00000  Uiso   1.00
C93    C     0.37523   0.31376   0.66699   0.00000  Uiso   1.00
C94    C     0.17275   0.39252   0.34008   0.00000  Uiso   1.00
C95    C     0.32985   0.10577   0.65930   0.00000  Uiso   1.00
C96    C     0.01896   0.33022   0.38752   0.00000  Uiso   1.00
C97    C     0.48642   0.16679   0.61052   0.00000  Uiso   1.00
C98    C     0.18025   0.04457   0.37840   0.00000  Uiso   1.00
C99    C     0.33096   0.00994   0.61685   0.00000  Uiso   1.00
C100   C     0.41615   0.22320   0.40171   0.00000  Uiso   1.00
C101   C     0.24878   0.00048   0.39800   0.00000  Uiso   1.00
C102   C     0.01808   0.33226   0.60647   0.00000  Uiso   1.00
C103   C     0.33228   0.01624   0.39195   0.00000  Uiso   1.00
C104   C     0.16909   0.48892   0.61978   0.00000  Uiso   1.00
C105   C     0.20156   0.07060   0.89682   0.00000  Uiso   1.00
C106   C     0.22488   0.41965   0.10675   0.00000  Uiso   1.00
C107   C     0.47235   0.33354   0.90212   0.00000  Uiso   1.00
C108   C     0.08203   0.23098   0.10681   0.00000  Uiso   1.00
C109   C     0.23002   0.42047   0.88204   0.00000  Uiso   1.00
C110   C     0.21246   0.07318   0.11954   0.00000  Uiso   1.00
C111   C     0.08023   0.23039   0.88659   0.00000  Uiso   1.00
C112   C     0.48120   0.22239   0.58223   0.00000  Uiso   1.00
C113   C     0.24984   0.49958   0.60216   0.00000  Uiso   1.00
C114   C     0.41675   0.26263   0.11104   0.00000  Uiso   1.00
C115   C     0.25009   0.49940   0.89802   0.00000  Uiso   1.00
C116   C     0.25051   0.00090   0.10201   0.00000  Uiso   1.00
C117   C     0.00076   0.25057   0.89831   0.00000  Uiso   1.00
C118   C     0.49944   0.24912   0.10209   0.00000  Uiso   1.00
C119   C     0.45961   0.19697   0.47988   0.00000  Uiso   1.00
C120   C     0.04990   0.29511   0.52071   0.00000  Uiso   1.00
C121   C     0.31094   0.47489   0.47871   0.00000  Uiso   1.00
C122   C     0.18524   0.01909   0.52123   0.00000  Uiso   1.00
C123   C     0.04817   0.29731   0.47997   0.00000  Uiso   1.00
C124   C     0.21673   0.00975   0.41832   0.00000  Uiso   1.00
C125   C     0.45803   0.19801   0.52043   0.00000  Uiso   1.00
C126   C     0.18639   0.02287   0.48064   0.00000  Uiso   1.00
C127   C     0.31250   0.47735   0.51939   0.00000  Uiso   1.00
C128   C     0.26488   0.43432   0.98006   0.00000  Uiso   1.00
C129   C     0.24559   0.06720   0.01982   0.00000  Uiso   1.00
C130   C     0.04752   0.20193   0.97959   0.00000  Uiso   1.00
C131   C     0.44780   0.29138   0.02088   0.00000  Uiso   1.00
C132   C     0.24931   0.06679   0.97926   0.00000  Uiso   1.00
C133   C     0.26821   0.43569   0.02069   0.00000  Uiso   1.00
C134   C     0.44676   0.28974   0.98034   0.00000  Uiso   1.00
C135   C     0.28165   0.48976   0.58188   0.00000  Uiso   1.00
C136   C     0.04533   0.20018   0.02036   0.00000  Uiso   1.00
C137   C     0.24917   0.00008   0.35575   0.00000  Uiso   1.00
C138   C     0.25014   0.49990   0.64430   0.00000  Uiso   1.00
C139   C     0.49984   0.24986   0.35587   0.00000  Uiso   1.00
C140   C     0.00014   0.25009   0.64426   0.00000  Uiso   1.00
C141   C     0.49989   0.25015   0.85587   0.00000  Uiso   1.00
C142   C     0.00009   0.24985   0.14427   0.00000  Uiso   1.00
C143   C     0.24999   0.49984   0.85577   0.00000  Uiso   1.00
C144   C     0.25012   0.00049   0.14425   0.00000  Uiso   1.00
C145   C     0.18008   0.07021   0.24992   0.00000  Uiso   1.00
C146   C     0.47597   0.22716   0.41860   0.00000  Uiso   1.00
C147   C     0.31998   0.42995   0.74987   0.00000  Uiso   1.00
C148   C     0.42962   0.18021   0.24969   0.00000  Uiso   1.00
C149   C     0.07006   0.32002   0.74999   0.00000  Uiso   1.00
C150   C     0.32005   0.43001   0.24997   0.00000  Uiso   1.00
C151   C     0.17973   0.06982   0.74986   0.00000  Uiso   1.00
C152   C     0.07002   0.31998   0.25002   0.00000  Uiso   1.00
C153   C     0.42996   0.18003   0.75002   0.00000  Uiso   1.00
C154   C     0.17996   0.42996   0.75002   0.00000  Uiso   1.00
C155   C     0.32004   0.07000   0.24992   0.00000  Uiso   1.00
C156   C     0.43027   0.32041   0.74970   0.00000  Uiso   1.00
C157   C     0.02231   0.27480   0.58208   0.00000  Uiso   1.00
C158   C     0.07000   0.17998   0.24992   0.00000  Uiso   1.00
C159   C     0.31997   0.07002   0.75003   0.00000  Uiso   1.00
C160   C     0.17994   0.43005   0.25001   0.00000  Uiso   1.00
C161   C     0.07001   0.17996   0.74988   0.00000  Uiso   1.00
C162   C     0.42998   0.32005   0.25008   0.00000  Uiso   1.00
C163   C     0.13981   0.38713   0.21440   0.00000  Uiso   1.00
C164   C     0.35777   0.11516   0.78532   0.00000  Uiso   1.00
C165   C     0.10901   0.13593   0.21430   0.00000  Uiso   1.00
C166   C     0.39470   0.36857   0.78392   0.00000  Uiso   1.00
C167   C     0.36597   0.10683   0.21447   0.00000  Uiso   1.00
C168   C     0.28083   0.49140   0.41763   0.00000  Uiso   1.00
C169   C     0.14072   0.38630   0.78550   0.00000  Uiso   1.00
C170   C     0.38420   0.35694   0.21511   0.00000  Uiso   1.00
C171   C     0.10960   0.13699   0.78527   0.00000  Uiso   1.00
C172   C     0.13560   0.10907   0.78522   0.00000  Uiso   1.00
C173   C     0.35690   0.38371   0.21511   0.00000  Uiso   1.00
C174   C     0.11394   0.35900   0.78544   0.00000  Uiso   1.00
C175   C     0.39322   0.13361   0.21452   0.00000  Uiso   1.00
C176   C     0.36576   0.39332   0.78449   0.00000  Uiso   1.00
C177   C     0.13557   0.10851   0.21442   0.00000  Uiso   1.00
C178   C     0.38491   0.14213   0.78534   0.00000  Uiso   1.00
C179   C     0.21753   0.00855   0.58277   0.00000  Uiso   1.00
C180   C     0.11335   0.35951   0.21448   0.00000  Uiso   1.00
C181   C     0.39159   0.13542   0.71471   0.00000  Uiso   1.00
C182   C     0.10968   0.36329   0.28562   0.00000  Uiso   1.00
C183   C     0.35778   0.38462   0.71423   0.00000  Uiso   1.00
C184   C     0.14226   0.11588   0.28503   0.00000  Uiso   1.00
C185   C     0.10938   0.36361   0.71449   0.00000  Uiso   1.00
C186   C     0.38094   0.14545   0.28373   0.00000  Uiso   1.00
C187   C     0.13908   0.11177   0.71402   0.00000  Uiso   1.00
C188   C     0.36620   0.39356   0.28489   0.00000  Uiso   1.00
C189   C     0.39314   0.36643   0.28501   0.00000  Uiso   1.00
C190   C     0.24583   0.03240   0.91801   0.00000  Uiso   1.00
C191   C     0.11220   0.13894   0.71399   0.00000  Uiso   1.00
C192   C     0.35605   0.11663   0.28438   0.00000  Uiso   1.00
C193   C     0.13632   0.39076   0.71453   0.00000  Uiso   1.00
C194   C     0.11417   0.14168   0.28520   0.00000  Uiso   1.00
C195   C     0.38468   0.35750   0.71430   0.00000  Uiso   1.00
C196   C     0.13651   0.39057   0.28558   0.00000  Uiso   1.00
C197   C     0.36469   0.10823   0.71474   0.00000  Uiso   1.00
C198   C     0.47909   0.22408   0.45927   0.00000  Uiso   1.00
C199   C     0.02511   0.27279   0.54129   0.00000  Uiso   1.00
C200   C     0.28050   0.48863   0.45851   0.00000  Uiso   1.00
H201   H     0.48829   0.14657   0.43825   0.00000  Uiso   1.00
H202   H     0.10467   0.00376   0.55597   0.00000  Uiso   1.00
H203   H     0.13901   0.32138   0.32876   0.00000  Uiso   1.00
H204   H     0.09523   0.30204   0.34103   0.00000  Uiso   1.00
H205   H     0.11419   0.33668   0.37119   0.00000  Uiso   1.00
H206   H     0.29177   0.39669   0.65954   0.00000  Uiso   1.00
H207   H     0.30332   0.35750   0.68830   0.00000  Uiso   1.00
H208   H     0.32086   0.36294   0.63925   0.00000  Uiso   1.00
H209   H     0.18908   0.15313   0.31346   0.00000  Uiso   1.00
H210   H     0.21210   0.11276   0.33022   0.00000  Uiso   1.00
H211   H     0.18191   0.13605   0.36205   0.00000  Uiso   1.00
H212   H     0.09354   0.30301   0.65791   0.00000  Uiso   1.00
H213   H     0.13873   0.47231   0.53915   0.00000  Uiso   1.00
H214   H     0.13764   0.32107   0.67071   0.00000  Uiso   1.00
H215   H     0.11359   0.33768   0.62868   0.00000  Uiso   1.00
H216   H     0.34536   0.19929   0.29238   0.00000  Uiso   1.00
H217   H     0.37902   0.22116   0.32238   0.00000  Uiso   1.00
H218   H     0.34487   0.19383   0.34448   0.00000  Uiso   1.00
H219   H     0.20222   0.09724   0.65807   0.00000  Uiso   1.00
H220   H     0.18682   0.14042   0.67728   0.00000  Uiso   1.00
H221   H     0.16966   0.12288   0.63162   0.00000  Uiso   1.00
H222   H     0.31759   0.37552   0.32747   0.00000  Uiso   1.00
H223   H     0.31316   0.41943   0.35031   0.00000  Uiso   1.00
H224   H     0.11514   0.00208   0.50519   0.00000  Uiso   1.00
H225   H     0.34585   0.38786   0.36855   0.00000  Uiso   1.00
H226   H     0.41672   0.31073   0.34434   0.00000  Uiso   1.00
H227   H     0.37071   0.32404   0.33222   0.00000  Uiso   1.00
H228   H     0.39468   0.34562   0.37184   0.00000  Uiso   1.00
H229   H     0.13727   0.19108   0.68152   0.00000  Uiso   1.00
H230   H     0.09597   0.20083   0.65544   0.00000  Uiso   1.00
H231   H     0.12818   0.17012   0.63474   0.00000  Uiso   1.00
H232   H     0.29111   0.10469   0.34163   0.00000  Uiso   1.00
H233   H     0.30195   0.14359   0.31217   0.00000  Uiso   1.00
H234   H     0.32131   0.13831   0.36051   0.00000  Uiso   1.00
H235   H     0.03475   0.36216   0.47104   0.00000  Uiso   1.00
H236   H     0.18666   0.36968   0.67585   0.00000  Uiso   1.00
H237   H     0.19359   0.41268   0.65211   0.00000  Uiso   1.00
H238   H     0.16179   0.38104   0.63209   0.00000  Uiso   1.00
H239   H     0.09768   0.20412   0.34478   0.00000  Uiso   1.00
H240   H     0.13735   0.19649   0.31507   0.00000  Uiso   1.00
H241   H     0.13253   0.17495   0.36234   0.00000  Uiso   1.00
H242   H     0.35144   0.30755   0.68626   0.00000  Uiso   1.00
H243   H     0.39224   0.28883   0.66466   0.00000  Uiso   1.00
H244   H     0.36514   0.31928   0.63725   0.00000  Uiso   1.00
H245   H     0.19275   0.41374   0.34886   0.00000  Uiso   1.00
H246   H     0.07418   0.37297   0.44236   0.00000  Uiso   1.00
H247   H     0.18788   0.37115   0.32333   0.00000  Uiso   1.00
H248   H     0.16184   0.38040   0.36722   0.00000  Uiso   1.00
H249   H     0.31597   0.12903   0.67430   0.00000  Uiso   1.00
H250   H     0.30863   0.08523   0.65214   0.00000  Uiso   1.00
H251   H     0.34137   0.11547   0.63133   0.00000  Uiso   1.00
H252   H     0.00247   0.34002   0.41277   0.00000  Uiso   1.00
H253   H     0.00062   0.32283   0.36308   0.00000  Uiso   1.00
H254   H     0.03617   0.35336   0.37772   0.00000  Uiso   1.00
H255   H     0.00950   0.17526   0.62946   0.00000  Uiso   1.00
H256   H     0.49703   0.15467   0.58297   0.00000  Uiso   1.00
H257   H     0.07954   0.36667   0.49346   0.00000  Uiso   1.00
H258   H     0.47106   0.14515   0.62604   0.00000  Uiso   1.00
H259   H     0.18214   0.03913   0.34670   0.00000  Uiso   1.00
H260   H     0.20044   0.06598   0.38684   0.00000  Uiso   1.00
H261   H     0.15258   0.05576   0.38387   0.00000  Uiso   1.00
H262   H     0.32102   0.01701   0.64643   0.00000  Uiso   1.00
H263   H     0.32907   0.03421   0.59749   0.00000  Uiso   1.00
H264   H     0.36030   0.00305   0.61964   0.00000  Uiso   1.00
H265   H     0.41447   0.24786   0.38314   0.00000  Uiso   1.00
H266   H     0.40901   0.23069   0.43223   0.00000  Uiso   1.00
H267   H     0.39518   0.20347   0.39193   0.00000  Uiso   1.00
H268   H     0.39970   0.21354   0.55872   0.00000  Uiso   1.00
H269   H     0.49287   0.32590   0.62331   0.00000  Uiso   1.00
H270   H     0.01088   0.34356   0.57749   0.00000  Uiso   1.00
H271   H     0.03311   0.35378   0.62260   0.00000  Uiso   1.00
H272   H     0.34091   0.02737   0.42066   0.00000  Uiso   1.00
H273   H     0.31670   0.03723   0.37566   0.00000  Uiso   1.00
H274   H     0.35734   0.01008   0.37498   0.00000  Uiso   1.00
H275   H     0.17912   0.48318   0.64952   0.00000  Uiso   1.00
H276   H     0.17141   0.46391   0.60133   0.00000  Uiso   1.00
H277   H     0.13963   0.49542   0.62253   0.00000  Uiso   1.00
H278   H     0.19093   0.07617   0.92661   0.00000  Uiso   1.00
H279   H     0.38221   0.16784   0.55628   0.00000  Uiso   1.00
H280   H     0.18627   0.04744   0.88375   0.00000  Uiso   1.00
H281   H     0.19636   0.09522   0.87906   0.00000  Uiso   1.00
H282   H     0.21392   0.41153   0.07784   0.00000  Uiso   1.00
H283   H     0.20522   0.43793   0.12186   0.00000  Uiso   1.00
H284   H     0.22756   0.39456   0.12446   0.00000  Uiso   1.00
H285   H     0.49664   0.33585   0.88290   0.00000  Uiso   1.00
H286   H     0.48027   0.34053   0.93250   0.00000  Uiso   1.00
H287   H     0.45211   0.35422   0.89314   0.00000  Uiso   1.00
H288   H     0.07570   0.25613   0.12379   0.00000  Uiso   1.00
H289   H     0.09388   0.23829   0.07800   0.00000  Uiso   1.00
H290   H     0.38865   0.19254   0.51195   0.00000  Uiso   1.00
H291   H     0.10308   0.21562   0.12304   0.00000  Uiso   1.00
H292   H     0.22555   0.43023   0.85197   0.00000  Uiso   1.00
H293   H     0.20566   0.42668   0.90047   0.00000  Uiso   1.00
H294   H     0.23249   0.39034   0.88033   0.00000  Uiso   1.00
H295   H     0.21345   0.06755   0.15116   0.00000  Uiso   1.00
H296   H     0.18974   0.05743   0.10588   0.00000  Uiso   1.00
H297   H     0.20594   0.10257   0.11658   0.00000  Uiso   1.00
H298   H     0.09080   0.24619   0.91191   0.00000  Uiso   1.00
H299   H     0.07276   0.24934   0.86280   0.00000  Uiso   1.00
H300   H     0.10282   0.21296   0.87569   0.00000  Uiso   1.00
H301   H     0.13618   0.08860   0.44862   0.00000  Uiso   1.00
H302   H     0.42535   0.23972   0.13003   0.00000  Uiso   1.00
H303   H     0.40491   0.25178   0.08353   0.00000  Uiso   1.00
H304   H     0.39484   0.27772   0.12653   0.00000  Uiso   1.00
H305   H     0.44871   0.11779   0.44006   0.00000  Uiso   1.00
H306   H     0.18466   0.08761   0.45550   0.00000  Uiso   1.00
H307   H     0.15360   0.08473   0.49697   0.00000  Uiso   1.00
H308   H     0.39358   0.48614   0.55445   0.00000  Uiso   1.00
H309   H     0.36265   0.01992   0.53656   0.00000  Uiso   1.00
H310   H     0.38483   0.48788   0.50345   0.00000  Uiso   1.00
H311   H     0.24327   0.35511   0.94571   0.00000  Uiso   1.00
H312   H     0.21463   0.39179   0.96196   0.00000  Uiso   1.00
H313   H     0.24182   0.36587   0.99641   0.00000  Uiso   1.00
H314   H     0.20105   0.13716   0.05228   0.00000  Uiso   1.00
H315   H     0.18481   0.09222   0.04085   0.00000  Uiso   1.00
H316   H     0.47212   0.12807   0.48450   0.00000  Uiso   1.00
H317   H     0.20129   0.12246   0.00268   0.00000  Uiso   1.00
H318   H     0.11253   0.21523   0.97133   0.00000  Uiso   1.00
H319   H     0.12333   0.17658   0.94142   0.00000  Uiso   1.00
H320   H     0.11688   0.16986   0.99235   0.00000  Uiso   1.00
H321   H     0.46235   0.35027   0.05878   0.00000  Uiso   1.00
H322   H     0.41634   0.36684   0.05642   0.00000  Uiso   1.00
H323   H     0.44129   0.36053   0.01204   0.00000  Uiso   1.00
H324   H     0.29132   0.13527   0.94070   0.00000  Uiso   1.00
H325   H     0.30444   0.08817   0.93935   0.00000  Uiso   1.00
H326   H     0.30185   0.11288   0.98557   0.00000  Uiso   1.00
H327   H     0.10241   0.26889   0.56116   0.00000  Uiso   1.00
H328   H     0.32720   0.38114   0.05876   0.00000  Uiso   1.00
H329   H     0.32752   0.43005   0.05925   0.00000  Uiso   1.00
H330   H     0.33099   0.40487   0.01339   0.00000  Uiso   1.00
H331   H     0.39652   0.26040   0.93930   0.00000  Uiso   1.00
H332   H     0.36739   0.29966   0.94133   0.00000  Uiso   1.00
H333   H     0.37796   0.27647   0.98571   0.00000  Uiso   1.00
H334   H     0.01933   0.14738   0.06066   0.00000  Uiso   1.00
H335   H     0.06083   0.12154   0.05898   0.00000  Uiso   1.00
H336   H     0.03750   0.13069   0.01433   0.00000  Uiso   1.00
H337   H     0.15059   0.45005   0.16098   0.00000  Uiso   1.00
H338   H     0.12879   0.31009   0.55924   0.00000  Uiso   1.00
H339   H     0.10789   0.42807   0.17228   0.00000  Uiso   1.00
H340   H     0.13341   0.41560   0.12936   0.00000  Uiso   1.00
H341   H     0.37692   0.06624   0.82648   0.00000  Uiso   1.00
H342   H     0.33285   0.06056   0.84886   0.00000  Uiso   1.00
H343   H     0.36405   0.09285   0.86884   0.00000  Uiso   1.00
H344   H     0.04537   0.15064   0.15728   0.00000  Uiso   1.00
H345   H     0.05565   0.11017   0.18443   0.00000  Uiso   1.00
H346   H     0.07523   0.11774   0.13657   0.00000  Uiso   1.00
H347   H     0.44825   0.40432   0.79387   0.00000  Uiso   1.00
H348   H     0.46967   0.37025   0.82343   0.00000  Uiso   1.00
H349   H     0.11916   0.28642   0.51471   0.00000  Uiso   1.00
H350   H     0.44194   0.40395   0.84588   0.00000  Uiso   1.00
H351   H     0.35724   0.03856   0.16384   0.00000  Uiso   1.00
H352   H     0.39790   0.05572   0.18687   0.00000  Uiso   1.00
H353   H     0.38607   0.06866   0.13771   0.00000  Uiso   1.00
H354   H     0.11208   0.42840   0.82946   0.00000  Uiso   1.00
H355   H     0.15609   0.44691   0.84222   0.00000  Uiso   1.00
H356   H     0.13640   0.41202   0.87140   0.00000  Uiso   1.00
H357   H     0.44272   0.34002   0.15791   0.00000  Uiso   1.00
H358   H     0.42217   0.38405   0.16618   0.00000  Uiso   1.00
H359   H     0.40637   0.35487   0.12754   0.00000  Uiso   1.00
H360   H     0.35717   0.40898   0.44010   0.00000  Uiso   1.00
H361   H     0.05686   0.11273   0.81788   0.00000  Uiso   1.00
H362   H     0.04749   0.15407   0.84401   0.00000  Uiso   1.00
H363   H     0.07786   0.12182   0.86470   0.00000  Uiso   1.00
H364   H     0.14072   0.04097   0.83342   0.00000  Uiso   1.00
H365   H     0.09993   0.06268   0.81625   0.00000  Uiso   1.00
H366   H     0.11758   0.07244   0.86412   0.00000  Uiso   1.00
H367   H     0.37219   0.43296   0.17214   0.00000  Uiso   1.00
H368   H     0.32807   0.43474   0.14965   0.00000  Uiso   1.00
H369   H     0.36132   0.40351   0.13133   0.00000  Uiso   1.00
H370   H     0.05842   0.33456   0.84908   0.00000  Uiso   1.00
H371   H     0.30866   0.41543   0.43905   0.00000  Uiso   1.00
H372   H     0.06265   0.37751   0.82443   0.00000  Uiso   1.00
H373   H     0.08907   0.36806   0.86768   0.00000  Uiso   1.00
H374   H     0.44804   0.10425   0.19242   0.00000  Uiso   1.00
H375   H     0.46224   0.14220   0.16296   0.00000  Uiso   1.00
H376   H     0.43349   0.10848   0.14230   0.00000  Uiso   1.00
H377   H     0.35250   0.45702   0.84311   0.00000  Uiso   1.00
H378   H     0.39199   0.44695   0.81394   0.00000  Uiso   1.00
H379   H     0.38573   0.42642   0.86165   0.00000  Uiso   1.00
H380   H     0.10183   0.06000   0.18434   0.00000  Uiso   1.00
H381   H     0.14296   0.04048   0.16439   0.00000  Uiso   1.00
H382   H     0.33233   0.40851   0.48512   0.00000  Uiso   1.00
H383   H     0.11753   0.07161   0.13602   0.00000  Uiso   1.00
H384   H     0.44257   0.16252   0.84440   0.00000  Uiso   1.00
H385   H     0.42786   0.11737   0.83032   0.00000  Uiso   1.00
H386   H     0.40751   0.14041   0.87149   0.00000  Uiso   1.00
H387   H     0.06150   0.37745   0.17646   0.00000  Uiso   1.00
H388   H     0.05795   0.33483   0.15077   0.00000  Uiso   1.00
H389   H     0.08818   0.36898   0.13280   0.00000  Uiso   1.00
H390   H     0.40922   0.19470   0.65736   0.00000  Uiso   1.00
H391   H     0.36471   0.17756   0.67020   0.00000  Uiso   1.00
H392   H     0.38905   0.15958   0.62868   0.00000  Uiso   1.00
O393   O     0.25000   0.00000   0.25000   0.00000  Uiso   1.00
O394   O     0.25000   0.46964   0.66245   0.00000  Uiso   1.00
O395   O     0.35770   0.08863   0.68101   0.00000  Uiso   1.00
O396   O     0.04203   0.30078   0.39732   0.00000  Uiso   1.00
O397   O     0.46252   0.19616   0.60331   0.00000  Uiso   1.00
O398   O     0.18368   0.01135   0.39876   0.00000  Uiso   1.00
O399   O     0.31231   0.47893   0.60241   0.00000  Uiso   1.00
O400   O     0.45079   0.20647   0.39817   0.00000  Uiso   1.00
O401   O     0.04082   0.30137   0.60292   0.00000  Uiso   1.00
O402   O     0.31200   0.48372   0.39618   0.00000  Uiso   1.00
O403   O     0.18724   0.01967   0.60410   0.00000  Uiso   1.00
O404   O     0.23948   0.06388   0.89694   0.00000  Uiso   1.00
O405   O     0.46963   0.25000   0.33755   0.00000  Uiso   1.00
O406   O     0.25957   0.43611   0.10334   0.00000  Uiso   1.00
O407   O     0.45613   0.29863   0.89857   0.00000  Uiso   1.00
O408   O     0.05093   0.20857   0.10271   0.00000  Uiso   1.00
O409   O     0.26302   0.43481   0.89690   0.00000  Uiso   1.00
O410   O     0.24718   0.06672   0.10280   0.00000  Uiso   1.00
O411   O     0.05054   0.20765   0.89682   0.00000  Uiso   1.00
O412   O     0.44595   0.28688   0.10373   0.00000  Uiso   1.00
O413   O     0.03036   0.25000   0.66245   0.00000  Uiso   1.00
O414   O    -0.00000   0.21964   0.83755   0.00000  Uiso   1.00
O415   O     0.00000   0.28037   0.16245   0.00000  Uiso   1.00
O416   O     0.28036   0.00000   0.83755   0.00000  Uiso   1.00
O417   O     0.21963   0.00000   0.16245   0.00000  Uiso   1.00
O418   O     0.00000   0.28037   0.83755   0.00000  Uiso   1.00
O419   O    -0.00000   0.21964   0.16245   0.00000  Uiso   1.00
O420   O     0.21963   0.00000   0.83755   0.00000  Uiso   1.00
O421   O     0.25000   0.00000   0.75000   0.00000  Uiso   1.00
O422   O     0.28036   0.00000   0.16245   0.00000  Uiso   1.00
O423   O     0.20724   0.07308   0.27302   0.00000  Uiso   1.00
O424   O     0.29275   0.42693   0.72698   0.00000  Uiso   1.00
O425   O     0.42692   0.20725   0.27302   0.00000  Uiso   1.00
O426   O     0.07307   0.29276   0.72698   0.00000  Uiso   1.00
O427   O     0.29275   0.42693   0.27302   0.00000  Uiso   1.00
O428   O     0.20724   0.07308   0.72698   0.00000  Uiso   1.00
O429   O     0.07307   0.29276   0.27302   0.00000  Uiso   1.00
O430   O     0.42692   0.20725   0.72698   0.00000  Uiso   1.00
O431   O     0.20724   0.42693   0.72698   0.00000  Uiso   1.00
O432   O    -0.00000   0.25000   0.25000   0.00000  Uiso   1.00
O433   O     0.29275   0.07308   0.27302   0.00000  Uiso   1.00
O434   O     0.42692   0.29276   0.72698   0.00000  Uiso   1.00
O435   O     0.07307   0.20725   0.27302   0.00000  Uiso   1.00
O436   O     0.29275   0.07308   0.72698   0.00000  Uiso   1.00
O437   O     0.20724   0.42693   0.27302   0.00000  Uiso   1.00
O438   O     0.07307   0.20725   0.72698   0.00000  Uiso   1.00
O439   O     0.42692   0.29276   0.27302   0.00000  Uiso   1.00
O440   O     0.45724   0.32308   0.77302   0.00000  Uiso   1.00
O441   O     0.04275   0.17693   0.22698   0.00000  Uiso   1.00
O442   O     0.17692   0.45725   0.77302   0.00000  Uiso   1.00
O443   O    -0.00000   0.25000   0.75000   0.00000  Uiso   1.00
O444   O     0.32307   0.04276   0.22698   0.00000  Uiso   1.00
O445   O     0.04275   0.17693   0.77302   0.00000  Uiso   1.00
O446   O     0.45724   0.32308   0.22698   0.00000  Uiso   1.00
O447   O     0.32307   0.04276   0.77302   0.00000  Uiso   1.00
O448   O     0.17692   0.45725   0.22698   0.00000  Uiso   1.00
O449   O     0.45724   0.17693   0.22698   0.00000  Uiso   1.00
O450   O     0.04275   0.32308   0.77302   0.00000  Uiso   1.00
O451   O     0.17692   0.04276   0.22698   0.00000  Uiso   1.00
O452   O     0.32307   0.45725   0.77302   0.00000  Uiso   1.00
O453   O     0.04275   0.32308   0.22698   0.00000  Uiso   1.00
O454   O     0.25000   0.46964   0.33755   0.00000  Uiso   1.00
O455   O     0.45724   0.17693   0.77302   0.00000  Uiso   1.00
O456   O     0.32307   0.45725   0.22698   0.00000  Uiso   1.00
O457   O     0.17692   0.04276   0.77302   0.00000  Uiso   1.00
O458   O     0.44049   0.16977   0.46071   0.00000  Uiso   1.00
O459   O     0.07603   0.31535   0.54019   0.00000  Uiso   1.00
O460   O     0.34001   0.45937   0.45890   0.00000  Uiso   1.00
O461   O     0.15336   0.02787   0.54097   0.00000  Uiso   1.00
O462   O     0.07261   0.31958   0.46022   0.00000  Uiso   1.00
O463   O     0.43575   0.17318   0.53933   0.00000  Uiso   1.00
O464   O     0.15672   0.03802   0.46188   0.00000  Uiso   1.00
O465   O     0.25000   0.03037   0.66245   0.00000  Uiso   1.00
O466   O     0.34368   0.46558   0.53827   0.00000  Uiso   1.00
O467   O     0.27128   0.40159   0.96090   0.00000  Uiso   1.00
O468   O     0.24155   0.10043   0.03870   0.00000  Uiso   1.00
O469   O     0.06987   0.17762   0.95962   0.00000  Uiso   1.00
O470   O     0.42268   0.31328   0.03998   0.00000  Uiso   1.00
O471   O     0.25188   0.09973   0.95991   0.00000  Uiso   1.00
O472   O     0.27961   0.40473   0.04006   0.00000  Uiso   1.00
O473   O     0.41935   0.30849   0.96140   0.00000  Uiso   1.00
O474   O     0.06575   0.17425   0.03967   0.00000  Uiso   1.00
O475   O     0.15677   0.39677   0.17983   0.00000  Uiso   1.00
O476   O     0.03036   0.25000   0.33755   0.00000  Uiso   1.00
O477   O     0.33759   0.10879   0.81879   0.00000  Uiso   1.00
O478   O     0.09764   0.15060   0.17922   0.00000  Uiso   1.00
O479   O     0.41393   0.36230   0.81787   0.00000  Uiso   1.00
O480   O     0.35342   0.09296   0.17935   0.00000  Uiso   1.00
O481   O     0.15899   0.39460   0.81963   0.00000  Uiso   1.00
O482   O     0.39086   0.33679   0.18169   0.00000  Uiso   1.00
O483   O     0.09916   0.15308   0.82018   0.00000  Uiso   1.00
O484   O     0.14828   0.09564   0.82026   0.00000  Uiso   1.00
O485   O     0.33551   0.38848   0.18236   0.00000  Uiso   1.00
O486   O     0.10686   0.33961   0.81919   0.00000  Uiso   1.00
O487   O     0.46963   0.25000   0.66245   0.00000  Uiso   1.00
O488   O     0.40812   0.14510   0.17946   0.00000  Uiso   1.00
O489   O     0.35147   0.40525   0.81976   0.00000  Uiso   1.00
O490   O     0.14866   0.09492   0.17937   0.00000  Uiso   1.00
O491   O     0.39162   0.16196   0.81897   0.00000  Uiso   1.00
O492   O     0.10625   0.34020   0.18056   0.00000  Uiso   1.00
O493   O     0.41070   0.14287   0.68080   0.00000  Uiso   1.00
O494   O     0.09172   0.35470   0.31994   0.00000  Uiso   1.00
O495   O     0.34487   0.39778   0.67908   0.00000  Uiso   1.00
O496   O     0.15690   0.10455   0.32005   0.00000  Uiso   1.00
O497   O     0.09107   0.35537   0.68037   0.00000  Uiso   1.00
O498   O     0.25000   0.03037   0.33755   0.00000  Uiso   1.00
O499   O     0.38686   0.16534   0.31749   0.00000  Uiso   1.00
O500   O     0.14946   0.09539   0.67927   0.00000  Uiso   1.00
O501   O     0.36025   0.41453   0.31792   0.00000  Uiso   1.00
O502   O     0.41398   0.36119   0.31806   0.00000  Uiso   1.00
O503   O     0.09636   0.14930   0.67918   0.00000  Uiso   1.00
O504   O     0.34346   0.10327   0.31972   0.00000  Uiso   1.00
O505   O     0.14412   0.40954   0.68057   0.00000  Uiso   1.00
O506   O     0.09887   0.15279   0.32029   0.00000  Uiso   1.00
O507   O     0.39730   0.34339   0.67925   0.00000  Uiso   1.00
O508   O     0.14405   0.40954   0.31959   0.00000  Uiso   1.00
Zn509  Zn    0.20659   0.00000   0.21735   0.00000  Uiso   1.00
Zn510  Zn    0.04340   0.25000   0.28265   0.00000  Uiso   1.00
Zn511  Zn    0.25000   0.45660   0.71735   0.00000  Uiso   1.00
Zn512  Zn    0.25000   0.04341   0.28265   0.00000  Uiso   1.00
Zn513  Zn    0.04340   0.25000   0.71735   0.00000  Uiso   1.00
Zn514  Zn    0.45659   0.25000   0.28265   0.00000  Uiso   1.00
Zn515  Zn    0.25000   0.04341   0.71735   0.00000  Uiso   1.00
Zn516  Zn    0.25000   0.45660   0.28265   0.00000  Uiso   1.00
Zn517  Zn    0.29340   0.00000   0.78265   0.00000  Uiso   1.00
Zn518  Zn   -0.00000   0.20660   0.21735   0.00000  Uiso   1.00
Zn519  Zn    0.00000   0.29341   0.78265   0.00000  Uiso   1.00
Zn520  Zn    0.29340   0.00000   0.21735   0.00000  Uiso   1.00
Zn521  Zn    0.20659   0.00000   0.78265   0.00000  Uiso   1.00
Zn522  Zn   -0.00000   0.29341   0.21735   0.00000  Uiso   1.00
Zn523  Zn    0.00000   0.20660   0.78265   0.00000  Uiso   1.00
Zn524  Zn    0.45659   0.25000   0.71735   0.00000  Uiso   1.00
C525   C     0.52206   0.27532   0.41819   0.00000  Uiso   1.00
C526   C     0.75598   0.46797   0.08213   0.00000  Uiso   1.00
C527   C     0.71708   0.00906   0.54173   0.00000  Uiso   1.00
C528   C     0.52422   0.27404   0.45917   0.00000  Uiso   1.00
C529   C     0.98020   0.22275   0.54128   0.00000  Uiso   1.00
C530   C     0.71719   0.01091   0.45936   0.00000  Uiso   1.00
C531   C     0.78136   0.48866   0.54081   0.00000  Uiso   1.00
C532   C     0.75808   0.46671   0.95895   0.00000  Uiso   1.00
C533   C     0.74857   0.03429   0.04101   0.00000  Uiso   1.00
C534   C     0.52418   0.22576   0.95898   0.00000  Uiso   1.00
C535   C     0.97273   0.26948   0.04152   0.00000  Uiso   1.00
C536   C     0.74948   0.03336   0.95877   0.00000  Uiso   1.00
C537   C     0.97710   0.27373   0.91883   0.00000  Uiso   1.00
C538   C     0.75925   0.46790   0.04127   0.00000  Uiso   1.00
C539   C     0.97404   0.27055   0.95951   0.00000  Uiso   1.00
C540   C     0.52293   0.22484   0.04115   0.00000  Uiso   1.00
C541   C     0.59816   0.34799   0.25007   0.00000  Uiso   1.00
C542   C     0.90179   0.15204   0.75004   0.00000  Uiso   1.00
C543   C     0.65225   0.09863   0.24979   0.00000  Uiso   1.00
C544   C     0.84797   0.40187   0.74954   0.00000  Uiso   1.00
C545   C     0.90091   0.15266   0.24931   0.00000  Uiso   1.00
C546   C     0.59819   0.34801   0.74997   0.00000  Uiso   1.00
C547   C     0.84819   0.40202   0.24997   0.00000  Uiso   1.00
C548   C     0.52481   0.22754   0.08196   0.00000  Uiso   1.00
C549   C     0.65112   0.09738   0.74970   0.00000  Uiso   1.00
C550   C     0.59796   0.15178   0.74968   0.00000  Uiso   1.00
C551   C     0.90193   0.34814   0.25011   0.00000  Uiso   1.00
C552   C     0.65187   0.40193   0.75003   0.00000  Uiso   1.00
C553   C     0.84804   0.09802   0.24961   0.00000  Uiso   1.00
C554   C     0.90282   0.34921   0.74931   0.00000  Uiso   1.00
C555   C     0.59804   0.15197   0.24979   0.00000  Uiso   1.00
C556   C     0.84799   0.09816   0.75005   0.00000  Uiso   1.00
C557   C     0.65168   0.40212   0.24999   0.00000  Uiso   1.00
C558   C     0.50207   0.24863   0.47971   0.00000  Uiso   1.00
C559   C     0.75616   0.46654   0.91785   0.00000  Uiso   1.00
C560   C     0.50252   0.24801   0.52075   0.00000  Uiso   1.00
C561   C     0.74899   0.49969   0.47954   0.00000  Uiso   1.00
C562   C     0.74916   0.49919   0.52072   0.00000  Uiso   1.00
C563   C     0.75364   0.00025   0.97943   0.00000  Uiso   1.00
C564   C     0.75369   0.00080   0.02058   0.00000  Uiso   1.00
C565   C     0.99873   0.24778   0.97975   0.00000  Uiso   1.00
C566   C     0.99811   0.24734   0.02080   0.00000  Uiso   1.00
C567   C     0.96377   0.13946   0.45592   0.00000  Uiso   1.00
C568   C     0.60776   0.29388   0.54373   0.00000  Uiso   1.00
C569   C     0.83385   0.42147   0.45593   0.00000  Uiso   1.00
C570   C     0.74721   0.03412   0.08210   0.00000  Uiso   1.00
C571   C     0.62721   0.00010   0.53467   0.00000  Uiso   1.00
C572   C     0.56453   0.35671   0.46754   0.00000  Uiso   1.00
C573   C     0.90019   0.18781   0.54141   0.00000  Uiso   1.00
C574   C     0.65825   0.07633   0.46625   0.00000  Uiso   1.00
C575   C     0.87204   0.49123   0.53256   0.00000  Uiso   1.00
C576   C     0.74128   0.37796   0.96688   0.00000  Uiso   1.00
C577   C     0.70558   0.11321   0.03304   0.00000  Uiso   1.00
C578   C     0.60701   0.18556   0.96696   0.00000  Uiso   1.00
C579   C     0.93667   0.34914   0.04162   0.00000  Uiso   1.00
C580   C     0.78912   0.10902   0.95649   0.00000  Uiso   1.00
C581   C     0.52539   0.22789   0.91797   0.00000  Uiso   1.00
C582   C     0.81801   0.40566   0.04272   0.00000  Uiso   1.00
C583   C     0.88923   0.28487   0.95699   0.00000  Uiso   1.00
C584   C     0.54456   0.14228   0.04331   0.00000  Uiso   1.00
C585   C     0.63592   0.42359   0.16038   0.00000  Uiso   1.00
C586   C     0.85402   0.08101   0.84117   0.00000  Uiso   1.00
C587   C     0.56738   0.13102   0.16435   0.00000  Uiso   1.00
C588   C     0.94434   0.38636   0.81974   0.00000  Uiso   1.00
C589   C     0.87495   0.06295   0.16708   0.00000  Uiso   1.00
C590   C     0.63966   0.42150   0.84099   0.00000  Uiso   1.00
C591   C     0.91654   0.35512   0.15786   0.00000  Uiso   1.00
C592   C     0.97239   0.26853   0.08246   0.00000  Uiso   1.00
C593   C     0.56927   0.13416   0.83684   0.00000  Uiso   1.00
C594   C     0.62535   0.06699   0.83345   0.00000  Uiso   1.00
C595   C     0.85038   0.41605   0.15835   0.00000  Uiso   1.00
C596   C     0.57812   0.35611   0.84047   0.00000  Uiso   1.00
C597   C     0.93901   0.12373   0.16951   0.00000  Uiso   1.00
C598   C     0.87176   0.43500   0.83466   0.00000  Uiso   1.00
C599   C     0.62644   0.06577   0.16612   0.00000  Uiso   1.00
C600   C     0.91845   0.14438   0.84169   0.00000  Uiso   1.00
C601   C     0.57733   0.35653   0.15980   0.00000  Uiso   1.00
C602   C     0.89222   0.16971   0.65890   0.00000  Uiso   1.00
C603   C     0.99935   0.25069   0.39830   0.00000  Uiso   1.00
C604   C     0.61127   0.32769   0.34052   0.00000  Uiso   1.00
C605   C     0.81412   0.37746   0.66665   0.00000  Uiso   1.00
C606   C     0.68595   0.12791   0.33125   0.00000  Uiso   1.00
C607   C     0.61018   0.32826   0.65909   0.00000  Uiso   1.00
C608   C     0.86287   0.19578   0.31863   0.00000  Uiso   1.00
C609   C     0.67810   0.11526   0.66142   0.00000  Uiso   1.00
C610   C     0.83314   0.39819   0.34157   0.00000  Uiso   1.00
C611   C     0.89788   0.33428   0.34207   0.00000  Uiso   1.00
C612   C     0.61569   0.17892   0.66261   0.00000  Uiso   1.00
C613   C     0.81337   0.12379   0.33349   0.00000  Uiso   1.00
C614   C     0.50080   0.24938   0.60206   0.00000  Uiso   1.00
C615   C     0.67263   0.39205   0.65981   0.00000  Uiso   1.00
C616   C     0.61788   0.18320   0.33569   0.00000  Uiso   1.00
C617   C     0.87523   0.31376   0.66699   0.00000  Uiso   1.00
C618   C     0.67275   0.39252   0.34008   0.00000  Uiso   1.00
C619   C     0.82985   0.10577   0.65930   0.00000  Uiso   1.00
C620   C     0.51896   0.33022   0.38752   0.00000  Uiso   1.00
C621   C     0.98642   0.16679   0.61052   0.00000  Uiso   1.00
C622   C     0.68025   0.04457   0.37840   0.00000  Uiso   1.00
C623   C     0.83096   0.00994   0.61685   0.00000  Uiso   1.00
C624   C     0.91615   0.22320   0.40171   0.00000  Uiso   1.00
C625   C     0.74878   0.00048   0.39800   0.00000  Uiso   1.00
C626   C     0.51808   0.33226   0.60647   0.00000  Uiso   1.00
C627   C     0.83228   0.01624   0.39195   0.00000  Uiso   1.00
C628   C     0.66909   0.48892   0.61978   0.00000  Uiso   1.00
C629   C     0.70156   0.07060   0.89682   0.00000  Uiso   1.00
C630   C     0.72488   0.41965   0.10675   0.00000  Uiso   1.00
C631   C     0.97235   0.33354   0.90212   0.00000  Uiso   1.00
C632   C     0.58203   0.23098   0.10681   0.00000  Uiso   1.00
C633   C     0.73002   0.42047   0.88204   0.00000  Uiso   1.00
C634   C     0.71246   0.07318   0.11954   0.00000  Uiso   1.00
C635   C     0.58023   0.23039   0.88659   0.00000  Uiso   1.00
C636   C     0.98120   0.22239   0.58223   0.00000  Uiso   1.00
C637   C     0.74984   0.49958   0.60216   0.00000  Uiso   1.00
C638   C     0.91675   0.26263   0.11104   0.00000  Uiso   1.00
C639   C     0.75009   0.49940   0.89802   0.00000  Uiso   1.00
C640   C     0.75051   0.00090   0.10201   0.00000  Uiso   1.00
C641   C     0.50076   0.25057   0.89831   0.00000  Uiso   1.00
C642   C     0.99944   0.24912   0.10209   0.00000  Uiso   1.00
C643   C     0.95961   0.19697   0.47988   0.00000  Uiso   1.00
C644   C     0.54990   0.29511   0.52071   0.00000  Uiso   1.00
C645   C     0.81094   0.47489   0.47871   0.00000  Uiso   1.00
C646   C     0.68524   0.01909   0.52123   0.00000  Uiso   1.00
C647   C     0.54817   0.29731   0.47997   0.00000  Uiso   1.00
C648   C     0.71673   0.00975   0.41832   0.00000  Uiso   1.00
C649   C     0.95803   0.19801   0.52043   0.00000  Uiso   1.00
C650   C     0.68639   0.02287   0.48064   0.00000  Uiso   1.00
C651   C     0.81250   0.47735   0.51939   0.00000  Uiso   1.00
C652   C     0.76488   0.43432   0.98006   0.00000  Uiso   1.00
C653   C     0.74559   0.06720   0.01982   0.00000  Uiso   1.00
C654   C     0.54752   0.20193   0.97959   0.00000  Uiso   1.00
C655   C     0.94780   0.29138   0.02088   0.00000  Uiso   1.00
C656   C     0.74931   0.06679   0.97926   0.00000  Uiso   1.00
C657   C     0.76821   0.43569   0.02069   0.00000  Uiso   1.00
C658   C     0.94676   0.28974   0.98034   0.00000  Uiso   1.00
C659   C     0.78165   0.48976   0.58188   0.00000  Uiso   1.00
C660   C     0.54533   0.20018   0.02036   0.00000  Uiso   1.00
C661   C     0.74917   0.00008   0.35575   0.00000  Uiso   1.00
C662   C     0.75014   0.49990   0.64430   0.00000  Uiso   1.00
C663   C     0.99984   0.24986   0.35587   0.00000  Uiso   1.00
C664   C     0.50014   0.25009   0.64426   0.00000  Uiso   1.00
C665   C     0.99989   0.25015   0.85587   0.00000  Uiso   1.00
C666   C     0.50009   0.24985   0.14427   0.00000  Uiso   1.00
C667   C     0.74999   0.49984   0.85577   0.00000  Uiso   1.00
C668   C     0.75012   0.00049   0.14425   0.00000  Uiso   1.00
C669   C     0.68008   0.07021   0.24992   0.00000  Uiso   1.00
C670   C     0.97597   0.22716   0.41860   0.00000  Uiso   1.00
C671   C     0.81998   0.42995   0.74987   0.00000  Uiso   1.00
C672   C     0.92962   0.18021   0.24969   0.00000  Uiso   1.00
C673   C     0.57006   0.32002   0.74999   0.00000  Uiso   1.00
C674   C     0.82005   0.43001   0.24997   0.00000  Uiso   1.00
C675   C     0.67973   0.06982   0.74986   0.00000  Uiso   1.00
C676   C     0.57002   0.31998   0.25002   0.00000  Uiso   1.00
C677   C     0.92996   0.18003   0.75002   0.00000  Uiso   1.00
C678   C     0.67996   0.42996   0.75002   0.00000  Uiso   1.00
C679   C     0.82004   0.07000   0.24992   0.00000  Uiso   1.00
C680   C     0.93027   0.32041   0.74970   0.00000  Uiso   1.00
C681   C     0.52231   0.27480   0.58208   0.00000  Uiso   1.00
C682   C     0.57000   0.17998   0.24992   0.00000  Uiso   1.00
C683   C     0.81997   0.07002   0.75003   0.00000  Uiso   1.00
C684   C     0.67994   0.43005   0.25001   0.00000  Uiso   1.00
C685   C     0.57001   0.17996   0.74988   0.00000  Uiso   1.00
C686   C     0.92998   0.32005   0.25008   0.00000  Uiso   1.00
C687   C     0.63981   0.38713   0.21440   0.00000  Uiso   1.00
C688   C     0.85777   0.11516   0.78532   0.00000  Uiso   1.00
C689   C     0.60901   0.13593   0.21430   0.00000  Uiso   1.00
C690   C     0.89470   0.36857   0.78392   0.00000  Uiso   1.00
C691   C     0.86597   0.10683   0.21447   0.00000  Uiso   1.00
C692   C     0.78083   0.49140   0.41763   0.00000  Uiso   1.00
C693   C     0.64072   0.38630   0.78550   0.00000  Uiso   1.00
C694   C     0.88420   0.35694   0.21511   0.00000  Uiso   1.00
C695   C     0.60960   0.13699   0.78527   0.00000  Uiso   1.00
C696   C     0.63560   0.10907   0.78522   0.00000  Uiso   1.00
C697   C     0.85690   0.38371   0.21511   0.00000  Uiso   1.00
C698   C     0.61394   0.35900   0.78544   0.00000  Uiso   1.00
C699   C     0.89322   0.13361   0.21452   0.00000  Uiso   1.00
C700   C     0.86576   0.39332   0.78449   0.00000  Uiso   1.00
C701   C     0.63557   0.10851   0.21442   0.00000  Uiso   1.00
C702   C     0.88491   0.14213   0.78534   0.00000  Uiso   1.00
C703   C     0.71753   0.00855   0.58277   0.00000  Uiso   1.00
C704   C     0.61335   0.35951   0.21448   0.00000  Uiso   1.00
C705   C     0.89159   0.13542   0.71471   0.00000  Uiso   1.00
C706   C     0.60968   0.36329   0.28562   0.00000  Uiso   1.00
C707   C     0.85778   0.38462   0.71423   0.00000  Uiso   1.00
C708   C     0.64226   0.11588   0.28503   0.00000  Uiso   1.00
C709   C     0.60938   0.36361   0.71449   0.00000  Uiso   1.00
C710   C     0.88094   0.14545   0.28373   0.00000  Uiso   1.00
C711   C     0.63908   0.11177   0.71402   0.00000  Uiso   1.00
C712   C     0.86620   0.39356   0.28489   0.00000  Uiso   1.00
C713   C     0.89314   0.36643   0.28501   0.00000  Uiso   1.00
C714   C     0.74583   0.03240   0.91801   0.00000  Uiso   1.00
C715   C     0.61220   0.13894   0.71399   0.00000  Uiso   1.00
C716   C     0.85605   0.11663   0.28438   0.00000  Uiso   1.00
C717   C     0.63632   0.39076   0.71453   0.00000  Uiso   1.00
C718   C     0.61417   0.14168   0.28520   0.00000  Uiso   1.00
C719   C     0.88468   0.35750   0.71430   0.00000  Uiso   1.00
C720   C     0.63651   0.39057   0.28558   0.00000  Uiso   1.00
C721   C     0.86469   0.10823   0.71474   0.00000  Uiso   1.00
C722   C     0.97909   0.22408   0.45927   0.00000  Uiso   1.00
C723   C     0.52511   0.27279   0.54129   0.00000  Uiso   1.00
C724   C     0.78050   0.48863   0.45851   0.00000  Uiso   1.00
H725   H     0.98829   0.14657   0.43825   0.00000  Uiso   1.00
H726   H     0.60467   0.00376   0.55597   0.00000  Uiso   1.00
H727   H     0.63901   0.32138   0.32876   0.00000  Uiso   1.00
H728   H     0.59523   0.30204   0.34103   0.00000  Uiso   1.00
H729   H     0.61419   0.33668   0.37119   0.00000  Uiso   1.00
H730   H     0.79177   0.39669   0.65954   0.00000  Uiso   1.00
H731   H     0.80332   0.35750   0.68830   0.00000  Uiso   1.00
H732   H     0.82086   0.36294   0.63925   0.00000  Uiso   1.00
H733   H     0.68908   0.15313   0.31346   0.00000  Uiso   1.00
H734   H     0.71210   0.11276   0.33022   0.00000  Uiso   1.00
H735   H     0.68191   0.13605   0.36205   0.00000  Uiso   1.00
H736   H     0.59354   0.30301   0.65791   0.00000  Uiso   1.00
H737   H     0.63873   0.47231   0.53915   0.00000  Uiso   1.00
H738   H     0.63764   0.32107   0.67071   0.00000  Uiso   1.00
H739   H     0.61359   0.33768   0.62868   0.00000  Uiso   1.00
H740   H     0.84536   0.19929   0.29238   0.00000  Uiso   1.00
H741   H     0.87902   0.22116   0.32238   0.00000  Uiso   1.00
H742   H     0.84487   0.19383   0.34448   0.00000  Uiso   1.00
H743   H     0.70222   0.09724   0.65807   0.00000  Uiso   1.00
H744   H     0.68682   0.14042   0.67728   0.00000  Uiso   1.00
H745   H     0.66966   0.12288   0.63162   0.00000  Uiso   1.00
H746   H     0.81759   0.37552   0.32747   0.00000  Uiso   1.00
H747   H     0.81316   0.41943   0.35031   0.00000  Uiso   1.00
H748   H     0.61514   0.00208   0.50519   0.00000  Uiso   1.00
H749   H     0.84585   0.38786   0.36855   0.00000  Uiso   1.00
H750   H     0.91672   0.31073   0.34434   0.00000  Uiso   1.00
H751   H     0.87071   0.32404   0.33222   0.00000  Uiso   1.00
H752   H     0.89468   0.34562   0.37184   0.00000  Uiso   1.00
H753   H     0.63727   0.19108   0.68152   0.00000  Uiso   1.00
H754   H     0.59597   0.20083   0.65544   0.00000  Uiso   1.00
H755   H     0.62818   0.17012   0.63474   0.00000  Uiso   1.00
H756   H     0.79111   0.10469   0.34163   0.00000  Uiso   1.00
H757   H     0.80195   0.14359   0.31217   0.00000  Uiso   1.00
H758   H     0.82131   0.13831   0.36051   0.00000  Uiso   1.00
H759   H     0.53475   0.36216   0.47104   0.00000  Uiso   1.00
H760   H     0.68666   0.36968   0.67585   0.00000  Uiso   1.00
H761   H     0.69359   0.41268   0.65211   0.00000  Uiso   1.00
H762   H     0.66179   0.38104   0.63209   0.00000  Uiso   1.00
H763   H     0.59768   0.20412   0.34478   0.00000  Uiso   1.00
H764   H     0.63735   0.19649   0.31507   0.00000  Uiso   1.00
H765   H     0.63253   0.17495   0.36234   0.00000  Uiso   1.00
H766   H     0.85144   0.30755   0.68626   0.00000  Uiso   1.00
H767   H     0.89224   0.28883   0.66466   0.00000  Uiso   1.00
H768   H     0.86514   0.31928   0.63725   0.00000  Uiso   1.00
H769   H     0.69275   0.41374   0.34886   0.00000  Uiso   1.00
H770   H     0.57418   0.37297   0.44236   0.00000  Uiso   1.00
H771   H     0.68788   0.37115   0.32333   0.00000  Uiso   1.00
H772   H     0.66184   0.38040   0.36722   0.00000  Uiso   1.00
H773   H     0.81597   0.12903   0.67430   0.00000  Uiso   1.00
H774   H     0.80863   0.08523   0.65214   0.00000  Uiso   1.00
H775   H     0.84137   0.11547   0.63133   0.00000  Uiso   1.00
H776   H     0.50247   0.34002   0.41277   0.00000  Uiso   1.00
H777   H     0.50062   0.32283   0.36308   0.00000  Uiso   1.00
H778   H     0.53617   0.35336   0.37772   0.00000  Uiso   1.00
H779   H     0.50950   0.17526   0.62946   0.00000  Uiso   1.00
H780   H     0.99703   0.15467   0.58297   0.00000  Uiso   1.00
H781   H     0.57954   0.36667   0.49346   0.00000  Uiso   1.00
H782   H     0.97106   0.14515   0.62604   0.00000  Uiso   1.00
H783   H     0.68214   0.03913   0.34670   0.00000  Uiso   1.00
H784   H     0.70044   0.06598   0.38684   0.00000  Uiso   1.00
H785   H     0.65258   0.05576   0.38387   0.00000  Uiso   1.00
H786   H     0.82102   0.01701   0.64643   0.00000  Uiso   1.00
H787   H     0.82907   0.03421   0.59749   0.00000  Uiso   1.00
H788   H     0.86030   0.00305   0.61964   0.00000  Uiso   1.00
H789   H     0.91447   0.24786   0.38314   0.00000  Uiso   1.00
H790   H     0.90901   0.23069   0.43223   0.00000  Uiso   1.00
H791   H     0.89518   0.20347   0.39193   0.00000  Uiso   1.00
H792   H     0.89970   0.21354   0.55872   0.00000  Uiso   1.00
H793   H     0.99287   0.32590   0.62331   0.00000  Uiso   1.00
H794   H     0.51088   0.34356   0.57749   0.00000  Uiso   1.00
H795   H     0.53311   0.35378   0.62260   0.00000  Uiso   1.00
H796   H     0.84091   0.02737   0.42066   0.00000  Uiso   1.00
H797   H     0.81670   0.03723   0.37566   0.00000  Uiso   1.00
H798   H     0.85734   0.01008   0.37498   0.00000  Uiso   1.00
H799   H     0.67912   0.48318   0.64952   0.00000  Uiso   1.00
H800   H     0.67141   0.46391   0.60133   0.00000  Uiso   1.00
H801   H     0.63963   0.49542   0.62253   0.00000  Uiso   1.00
H802   H     0.69093   0.07617   0.92661   0.00000  Uiso   1.00
H803   H     0.88221   0.16784   0.55628   0.00000  Uiso   1.00
H804   H     0.68627   0.04744   0.88375   0.00000  Uiso   1.00
H805   H     0.69636   0.09522   0.87906   0.00000  Uiso   1.00
H806   H     0.71392   0.41153   0.07784   0.00000  Uiso   1.00
H807   H     0.70522   0.43793   0.12186   0.00000  Uiso   1.00
H808   H     0.72756   0.39456   0.12446   0.00000  Uiso   1.00
H809   H     0.99664   0.33585   0.88290   0.00000  Uiso   1.00
H810   H     0.98027   0.34053   0.93250   0.00000  Uiso   1.00
H811   H     0.95211   0.35422   0.89314   0.00000  Uiso   1.00
H812   H     0.57570   0.25613   0.12379   0.00000  Uiso   1.00
H813   H     0.59388   0.23829   0.07800   0.00000  Uiso   1.00
H814   H     0.88865   0.19254   0.51195   0.00000  Uiso   1.00
H815   H     0.60308   0.21562   0.12304   0.00000  Uiso   1.00
H816   H     0.72555   0.43023   0.85197   0.00000  Uiso   1.00
H817   H     0.70566   0.42668   0.90047   0.00000  Uiso   1.00
H818   H     0.73249   0.39034   0.88033   0.00000  Uiso   1.00
H819   H     0.71345   0.06755   0.15116   0.00000  Uiso   1.00
H820   H     0.68974   0.05743   0.10588   0.00000  Uiso   1.00
H821   H     0.70594   0.10257   0.11658   0.00000  Uiso   1.00
H822   H     0.59080   0.24619   0.91191   0.00000  Uiso   1.00
H823   H     0.57276   0.24934   0.86280   0.00000  Uiso   1.00
H824   H     0.60282   0.21296   0.87569   0.00000  Uiso   1.00
H825   H     0.63618   0.08860   0.44862   0.00000  Uiso   1.00
H826   H     0.92535   0.23972   0.13003   0.00000  Uiso   1.00
H827   H     0.90491   0.25178   0.08353   0.00000  Uiso   1.00
H828   H     0.89484   0.27772   0.12653   0.00000  Uiso   1.00
H829   H     0.94871   0.11779   0.44006   0.00000  Uiso   1.00
H830   H     0.68466   0.08761   0.45550   0.00000  Uiso   1.00
H831   H     0.65360   0.08473   0.49697   0.00000  Uiso   1.00
H832   H     0.89358   0.48614   0.55445   0.00000  Uiso   1.00
H833   H     0.86265   0.01992   0.53656   0.00000  Uiso   1.00
H834   H     0.88483   0.48788   0.50345   0.00000  Uiso   1.00
H835   H     0.74327   0.35511   0.94571   0.00000  Uiso   1.00
H836   H     0.71463   0.39179   0.96196   0.00000  Uiso   1.00
H837   H     0.74182   0.36587   0.99641   0.00000  Uiso   1.00
H838   H     0.70105   0.13716   0.05228   0.00000  Uiso   1.00
H839   H     0.68481   0.09222   0.04085   0.00000  Uiso   1.00
H840   H     0.97212   0.12807   0.48450   0.00000  Uiso   1.00
H841   H     0.70129   0.12246   0.00268   0.00000  Uiso   1.00
H842   H     0.61253   0.21523   0.97133   0.00000  Uiso   1.00
H843   H     0.62333   0.17658   0.94142   0.00000  Uiso   1.00
H844   H     0.61688   0.16986   0.99235   0.00000  Uiso   1.00
H845   H     0.96235   0.35027   0.05878   0.00000  Uiso   1.00
H846   H     0.91634   0.36684   0.05642   0.00000  Uiso   1.00
H847   H     0.94129   0.36053   0.01204   0.00000  Uiso   1.00
H848   H     0.79132   0.13527   0.94070   0.00000  Uiso   1.00
H849   H     0.80444   0.08817   0.93935   0.00000  Uiso   1.00
H850   H     0.80185   0.11288   0.98557   0.00000  Uiso   1.00
H851   H     0.60241   0.26889   0.56116   0.00000  Uiso   1.00
H852   H     0.82720   0.38114   0.05876   0.00000  Uiso   1.00
H853   H     0.82752   0.43005   0.05925   0.00000  Uiso   1.00
H854   H     0.83099   0.40487   0.01339   0.00000  Uiso   1.00
H855   H     0.89652   0.26040   0.93930   0.00000  Uiso   1.00
H856   H     0.86739   0.29966   0.94133   0.00000  Uiso   1.00
H857   H     0.87796   0.27647   0.98571   0.00000  Uiso   1.00
H858   H     0.51933   0.14738   0.06066   0.00000  Uiso   1.00
H859   H     0.56083   0.12154   0.05898   0.00000  Uiso   1.00
H860   H     0.53750   0.13069   0.01433   0.00000  Uiso   1.00
H861   H     0.65059   0.45005   0.16098   0.00000  Uiso   1.00
H862   H     0.62879   0.31009   0.55924   0.00000  Uiso   1.00
H863   H     0.60789   0.42807   0.17228   0.00000  Uiso   1.00
H864   H     0.63341   0.41560   0.12936   0.00000  Uiso   1.00
H865   H     0.87692   0.06624   0.82648   0.00000  Uiso   1.00
H866   H     0.83285   0.06056   0.84886   0.00000  Uiso   1.00
H867   H     0.86405   0.09285   0.86884   0.00000  Uiso   1.00
H868   H     0.54537   0.15064   0.15728   0.00000  Uiso   1.00
H869   H     0.55565   0.11017   0.18443   0.00000  Uiso   1.00
H870   H     0.57523   0.11774   0.13657   0.00000  Uiso   1.00
H871   H     0.94825   0.40432   0.79387   0.00000  Uiso   1.00
H872   H     0.96967   0.37025   0.82343   0.00000  Uiso   1.00
H873   H     0.61916   0.28642   0.51471   0.00000  Uiso   1.00
H874   H     0.94194   0.40395   0.84588   0.00000  Uiso   1.00
H875   H     0.85724   0.03856   0.16384   0.00000  Uiso   1.00
H876   H     0.89790   0.05572   0.18687   0.00000  Uiso   1.00
H877   H     0.88607   0.06866   0.13771   0.00000  Uiso   1.00
H878   H     0.61208   0.42840   0.82946   0.00000  Uiso   1.00
H879   H     0.65609   0.44691   0.84222   0.00000  Uiso   1.00
H880   H     0.63640   0.41202   0.87140   0.00000  Uiso   1.00
H881   H     0.94272   0.34002   0.15791   0.00000  Uiso   1.00
H882   H     0.92217   0.38405   0.16618   0.00000  Uiso   1.00
H883   H     0.90637   0.35487   0.12754   0.00000  Uiso   1.00
H884   H     0.85717   0.40898   0.44010   0.00000  Uiso   1.00
H885   H     0.55686   0.11273   0.81788   0.00000  Uiso   1.00
H886   H     0.54749   0.15407   0.84401   0.00000  Uiso   1.00
H887   H     0.57786   0.12182   0.86470   0.00000  Uiso   1.00
H888   H     0.64072   0.04097   0.83342   0.00000  Uiso   1.00
H889   H     0.59993   0.06268   0.81625   0.00000  Uiso   1.00
H890   H     0.61758   0.07244   0.86412   0.00000  Uiso   1.00
H891   H     0.87219   0.43296   0.17214   0.00000  Uiso   1.00
H892   H     0.82807   0.43474   0.14965   0.00000  Uiso   1.00
H893   H     0.86132   0.40351   0.13133   0.00000  Uiso   1.00
H894   H     0.55842   0.33456   0.84908   0.00000  Uiso   1.00
H895   H     0.80866   0.41543   0.43905   0.00000  Uiso   1.00
H896   H     0.56265   0.37751   0.82443   0.00000  Uiso   1.00
H897   H     0.58907   0.36806   0.86768   0.00000  Uiso   1.00
H898   H     0.94804   0.10425   0.19242   0.00000  Uiso   1.00
H899   H     0.96224   0.14220   0.16296   0.00000  Uiso   1.00
H900   H     0.93349   0.10848   0.14230   0.00000  Uiso   1.00
H901   H     0.85250   0.45702   0.84311   0.00000  Uiso   1.00
H902   H     0.89199   0.44695   0.81394   0.00000  Uiso   1.00
H903   H     0.88573   0.42642   0.86165   0.00000  Uiso   1.00
H904   H     0.60183   0.06000   0.18434   0.00000  Uiso   1.00
H905   H     0.64296   0.04048   0.16439   0.00000  Uiso   1.00
H906   H     0.83233   0.40851   0.48512   0.00000  Uiso   1.00
H907   H     0.61753   0.07161   0.13602   0.00000  Uiso   1.00
H908   H     0.94257   0.16252   0.84440   0.00000  Uiso   1.00
H909   H     0.92786   0.11737   0.83032   0.00000  Uiso   1.00
H910   H     0.90751   0.14041   0.87149   0.00000  Uiso   1.00
H911   H     0.56150   0.37745   0.17646   0.00000  Uiso   1.00
H912   H     0.55795   0.33483   0.15077   0.00000  Uiso   1.00
H913   H     0.58818   0.36898   0.13280   0.00000  Uiso   1.00
H914   H     0.90922   0.19470   0.65736   0.00000  Uiso   1.00
H915   H     0.86471   0.17756   0.67020   0.00000  Uiso   1.00
H916   H     0.88905   0.15958   0.62868   0.00000  Uiso   1.00
O917   O     0.75000   0.00000   0.25000   0.00000  Uiso   1.00
O918   O     0.75000   0.46964   0.66245   0.00000  Uiso   1.00
O919   O     0.85770   0.08863   0.68101   0.00000  Uiso   1.00
O920   O     0.54203   0.30078   0.39732   0.00000  Uiso   1.00
O921   O     0.96252   0.19616   0.60331   0.00000  Uiso   1.00
O922   O     0.68368   0.01135   0.39876   0.00000  Uiso   1.00
O923   O     0.81231   0.47893   0.60241   0.00000  Uiso   1.00
O924   O     0.95079   0.20647   0.39817   0.00000  Uiso   1.00
O925   O     0.54082   0.30137   0.60292   0.00000  Uiso   1.00
O926   O     0.81200   0.48372   0.39618   0.00000  Uiso   1.00
O927   O     0.68724   0.01967   0.60410   0.00000  Uiso   1.00
O928   O     0.73948   0.06388   0.89694   0.00000  Uiso   1.00
O929   O     0.96963   0.25000   0.33755   0.00000  Uiso   1.00
O930   O     0.75957   0.43611   0.10334   0.00000  Uiso   1.00
O931   O     0.95613   0.29863   0.89857   0.00000  Uiso   1.00
O932   O     0.55093   0.20857   0.10271   0.00000  Uiso   1.00
O933   O     0.76302   0.43481   0.89690   0.00000  Uiso   1.00
O934   O     0.74718   0.06672   0.10280   0.00000  Uiso   1.00
O935   O     0.55054   0.20765   0.89682   0.00000  Uiso   1.00
O936   O     0.94595   0.28688   0.10373   0.00000  Uiso   1.00
O937   O     0.53036   0.25000   0.66245   0.00000  Uiso   1.00
O938   O     0.50000   0.21964   0.83755   0.00000  Uiso   1.00
O939   O     0.50000   0.28037   0.16245   0.00000  Uiso   1.00
O940   O     0.78036   0.00000   0.83755   0.00000  Uiso   1.00
O941   O     0.71963   0.00000   0.16245   0.00000  Uiso   1.00
O942   O     0.50000   0.28037   0.83755   0.00000  Uiso   1.00
O943   O     0.50000   0.21964   0.16245   0.00000  Uiso   1.00
O944   O     0.71963   0.00000   0.83755   0.00000  Uiso   1.00
O945   O     0.75000   0.00000   0.75000   0.00000  Uiso   1.00
O946   O     0.78036   0.00000   0.16245   0.00000  Uiso   1.00
O947   O     0.70724   0.07308   0.27302   0.00000  Uiso   1.00
O948   O     0.79275   0.42693   0.72698   0.00000  Uiso   1.00
O949   O     0.92692   0.20725   0.27302   0.00000  Uiso   1.00
O950   O     0.57307   0.29276   0.72698   0.00000  Uiso   1.00
O951   O     0.79275   0.42693   0.27302   0.00000  Uiso   1.00
O952   O     0.70724   0.07308   0.72698   0.00000  Uiso   1.00
O953   O     0.57307   0.29276   0.27302   0.00000  Uiso   1.00
O954   O     0.92692   0.20725   0.72698   0.00000  Uiso   1.00
O955   O     0.70724   0.42693   0.72698   0.00000  Uiso   1.00
O956   O     0.50000   0.25000   0.25000   0.00000  Uiso   1.00
O957   O     0.79275   0.07308   0.27302   0.00000  Uiso   1.00
O958   O     0.92692   0.29276   0.72698   0.00000  Uiso   1.00
O959   O     0.57307   0.20725   0.27302   0.00000  Uiso   1.00
O960   O     0.79275   0.07308   0.72698   0.00000  Uiso   1.00
O961   O     0.70724   0.42693   0.27302   0.00000  Uiso   1.00
O962   O     0.57307   0.20725   0.72698   0.00000  Uiso   1.00
O963   O     0.92692   0.29276   0.27302   0.00000  Uiso   1.00
O964   O     0.95724   0.32308   0.77302   0.00000  Uiso   1.00
O965   O     0.54275   0.17693   0.22698   0.00000  Uiso   1.00
O966   O     0.67692   0.45725   0.77302   0.00000  Uiso   1.00
O967   O     0.50000   0.25000   0.75000   0.00000  Uiso   1.00
O968   O     0.82307   0.04276   0.22698   0.00000  Uiso   1.00
O969   O     0.54275   0.17693   0.77302   0.00000  Uiso   1.00
O970   O     0.95724   0.32308   0.22698   0.00000  Uiso   1.00
O971   O     0.82307   0.04276   0.77302   0.00000  Uiso   1.00
O972   O     0.67692   0.45725   0.22698   0.00000  Uiso   1.00
O973   O     0.95724   0.17693   0.22698   0.00000  Uiso   1.00
O974   O     0.54275   0.32308   0.77302   0.00000  Uiso   1.00
O975   O     0.67692   0.04276   0.22698   0.00000  Uiso   1.00
O976   O     0.82307   0.45725   0.77302   0.00000  Uiso   1.00
O977   O     0.54275   0.32308   0.22698   0.00000  Uiso   1.00
O978   O     0.75000   0.46964   0.33755   0.00000  Uiso   1.00
O979   O     0.95724   0.17693   0.77302   0.00000  Uiso   1.00
O980   O     0.82307   0.45725   0.22698   0.00000  Uiso   1.00
O981   O     0.67692   0.04276   0.77302   0.00000  Uiso   1.00
O982   O     0.94049   0.16977   0.46071   0.00000  Uiso   1.00
O983   O     0.57603   0.31535   0.54019   0.00000  Uiso   1.00
O984   O     0.84001   0.45937   0.45890   0.00000  Uiso   1.00
O985   O     0.65336   0.02787   0.54097   0.00000  Uiso   1.00
O986   O     0.57261   0.31958   0.46022   0.00000  Uiso   1.00
O987   O     0.93575   0.17318   0.53933   0.00000  Uiso   1.00
O988   O     0.65672   0.03802   0.46188   0.00000  Uiso   1.00
O989   O     0.75000   0.03037   0.66245   0.00000  Uiso   1.00
O990   O     0.84368   0.46558   0.53827   0.00000  Uiso   1.00
O991   O     0.77128   0.40159   0.96090   0.00000  Uiso   1.00
O992   O     0.74155   0.10043   0.03870   0.00000  Uiso   1.00
O993   O     0.56987   0.17762   0.95962   0.00000  Uiso   1.00
O994   O     0.92268   0.31328   0.03998   0.00000  Uiso   1.00
O995   O     0.75188   0.09973   0.95991   0.00000  Uiso   1.00
O996   O     0.77961   0.40473   0.04006   0.00000  Uiso   1.00
O997   O     0.91935   0.30849   0.96140   0.00000  Uiso   1.00
O998   O     0.56575   0.17425   0.03967   0.00000  Uiso   1.00
O999   O     0.65677   0.39677   0.17983   0.00000  Uiso   1.00
O1000  O     0.53036   0.25000   0.33755   0.00000  Uiso   1.00
O1001  O     0.83759   0.10879   0.81879   0.00000  Uiso   1.00
O1002  O     0.59764   0.15060   0.17922   0.00000  Uiso   1.00
O1003  O     0.91393   0.36230   0.81787   0.00000  Uiso   1.00
O1004  O     0.85342   0.09296   0.17935   0.00000  Uiso   1.00
O1005  O     0.65899   0.39460   0.81963   0.00000  Uiso   1.00
O1006  O     0.89086   0.33679   0.18169   0.00000  Uiso   1.00
O1007  O     0.59916   0.15308   0.82018   0.00000  Uiso   1.00
O1008  O     0.64828   0.09564   0.82026   0.00000  Uiso   1.00
O1009  O     0.83551   0.38848   0.18236   0.00000  Uiso   1.00
O1010  O     0.60686   0.33961   0.81919   0.00000  Uiso   1.00
O1011  O     0.96963   0.25000   0.66245   0.00000  Uiso   1.00
O1012  O     0.90812   0.14510   0.17946   0.00000  Uiso   1.00
O1013  O     0.85147   0.40525   0.81976   0.00000  Uiso   1.00
O1014  O     0.64866   0.09492   0.17937   0.00000  Uiso   1.00
O1015  O     0.89162   0.16196   0.81897   0.00000  Uiso   1.00
O1016  O     0.60625   0.34020   0.18056   0.00000  Uiso   1.00
O1017  O     0.91070   0.14287   0.68080   0.00000  Uiso   1.00
O1018  O     0.59172   0.35470   0.31994   0.00000  Uiso   1.00
O1019  O     0.84487   0.39778   0.67908   0.00000  Uiso   1.00
O1020  O     0.65690   0.10455   0.32005   0.00000  Uiso   1.00
O1021  O     0.59107   0.35537   0.68037   0.00000  Uiso   1.00
O1022  O     0.75000   0.03037   0.33755   0.00000  Uiso   1.00
O1023  O     0.88686   0.16534   0.31749   0.00000  Uiso   1.00
O1024  O     0.64946   0.09539   0.67927   0.00000  Uiso   1.00
O1025  O     0.86025   0.41453   0.31792   0.00000  Uiso   1.00
O1026  O     0.91398   0.36119   0.31806   0.00000  Uiso   1.00
O1027  O     0.59636   0.14930   0.67918   0.00000  Uiso   1.00
O1028  O     0.84346   0.10327   0.31972   0.00000  Uiso   1.00
O1029  O     0.64412   0.40954   0.68057   0.00000  Uiso   1.00
O1030  O     0.59887   0.15279   0.32029   0.00000  Uiso   1.00
O1031  O     0.89730   0.34339   0.67925   0.00000  Uiso   1.00
O1032  O     0.64405   0.40954   0.31959   0.00000  Uiso   1.00
Zn1033 Zn    0.70659   0.00000   0.21735   0.00000  Uiso   1.00
Zn1034 Zn    0.54340   0.25000   0.28265   0.00000  Uiso   1.00
Zn1035 Zn    0.75000   0.45660   0.71735   0.00000  Uiso   1.00
Zn1036 Zn    0.75000   0.04341   0.28265   0.00000  Uiso   1.00
Zn1037 Zn    0.54340   0.25000   0.71735   0.00000  Uiso   1.00
Zn1038 Zn    0.95659   0.25000   0.28265   0.00000  Uiso   1.00
Zn1039 Zn    0.75000   0.04341   0.71735   0.00000  Uiso   1.00
Zn1040 Zn    0.75000   0.45660   0.28265   0.00000  Uiso   1.00
Zn1041 Zn    0.79340   0.00000   0.78265   0.00000  Uiso   1.00
Zn1042 Zn    0.50000   0.20660   0.21735   0.00000  Uiso   1.00
Zn1043 Zn    0.50000   0.29341   0.78265   0.00000  Uiso   1.00
Zn1044 Zn    0.79340   0.00000   0.21735   0.00000  Uiso   1.00
Zn1045 Zn    0.70659   0.00000   0.78265   0.00000  Uiso   1.00
Zn1046 Zn    0.50000   0.29341   0.21735   0.00000  Uiso   1.00
Zn1047 Zn    0.50000   0.20660   0.78265   0.00000  Uiso   1.00
Zn1048 Zn    0.95659   0.25000   0.71735   0.00000  Uiso   1.00
C1049  C     0.02206   0.77532   0.41819   0.00000  Uiso   1.00
C1050  C     0.25598   0.96797   0.08213   0.00000  Uiso   1.00
C1051  C     0.21708   0.50906   0.54173   0.00000  Uiso   1.00
C1052  C     0.02422   0.77404   0.45917   0.00000  Uiso   1.00
C1053  C     0.48020   0.72275   0.54128   0.00000  Uiso   1.00
C1054  C     0.21719   0.51091   0.45936   0.00000  Uiso   1.00
C1055  C     0.28136   0.98866   0.54081   0.00000  Uiso   1.00
C1056  C     0.25808   0.96671   0.95895   0.00000  Uiso   1.00
C1057  C     0.24857   0.53429   0.04101   0.00000  Uiso   1.00
C1058  C     0.02418   0.72576   0.95898   0.00000  Uiso   1.00
C1059  C     0.47273   0.76948   0.04152   0.00000  Uiso   1.00
C1060  C     0.24948   0.53336   0.95877   0.00000  Uiso   1.00
C1061  C     0.47710   0.77373   0.91883   0.00000  Uiso   1.00
C1062  C     0.25925   0.96790   0.04127   0.00000  Uiso   1.00
C1063  C     0.47404   0.77055   0.95951   0.00000  Uiso   1.00
C1064  C     0.02293   0.72484   0.04115   0.00000  Uiso   1.00
C1065  C     0.09816   0.84799   0.25007   0.00000  Uiso   1.00
C1066  C     0.40179   0.65204   0.75004   0.00000  Uiso   1.00
C1067  C     0.15225   0.59863   0.24979   0.00000  Uiso   1.00
C1068  C     0.34797   0.90187   0.74954   0.00000  Uiso   1.00
C1069  C     0.40091   0.65266   0.24931   0.00000  Uiso   1.00
C1070  C     0.09819   0.84801   0.74997   0.00000  Uiso   1.00
C1071  C     0.34819   0.90202   0.24997   0.00000  Uiso   1.00
C1072  C     0.02481   0.72754   0.08196   0.00000  Uiso   1.00
C1073  C     0.15112   0.59738   0.74970   0.00000  Uiso   1.00
C1074  C     0.09796   0.65178   0.74968   0.00000  Uiso   1.00
C1075  C     0.40193   0.84814   0.25011   0.00000  Uiso   1.00
C1076  C     0.15187   0.90193   0.75003   0.00000  Uiso   1.00
C1077  C     0.34804   0.59802   0.24961   0.00000  Uiso   1.00
C1078  C     0.40282   0.84921   0.74931   0.00000  Uiso   1.00
C1079  C     0.09804   0.65197   0.24979   0.00000  Uiso   1.00
C1080  C     0.34799   0.59816   0.75005   0.00000  Uiso   1.00
C1081  C     0.15168   0.90212   0.24999   0.00000  Uiso   1.00
C1082  C     0.00207   0.74863   0.47971   0.00000  Uiso   1.00
C1083  C     0.25616   0.96654   0.91785   0.00000  Uiso   1.00
C1084  C     0.00252   0.74801   0.52075   0.00000  Uiso   1.00
C1085  C     0.24899   0.99969   0.47954   0.00000  Uiso   1.00
C1086  C     0.24916   0.99919   0.52072   0.00000  Uiso   1.00
C1087  C     0.25364   0.50025   0.97943   0.00000  Uiso   1.00
C1088  C     0.25369   0.50080   0.02058   0.00000  Uiso   1.00
C1089  C     0.49873   0.74778   0.97975   0.00000  Uiso   1.00
C1090  C     0.49811   0.74734   0.02080   0.00000  Uiso   1.00
C1091  C     0.46377   0.63946   0.45592   0.00000  Uiso   1.00
C1092  C     0.10776   0.79388   0.54373   0.00000  Uiso   1.00
C1093  C     0.33385   0.92147   0.45593   0.00000  Uiso   1.00
C1094  C     0.24721   0.53412   0.08210   0.00000  Uiso   1.00
C1095  C     0.12721   0.50010   0.53467   0.00000  Uiso   1.00
C1096  C     0.06453   0.85671   0.46754   0.00000  Uiso   1.00
C1097  C     0.40019   0.68781   0.54141   0.00000  Uiso   1.00
C1098  C     0.15825   0.57633   0.46625   0.00000  Uiso   1.00
C1099  C     0.37204   0.99123   0.53256   0.00000  Uiso   1.00
C1100  C     0.24128   0.87796   0.96688   0.00000  Uiso   1.00
C1101  C     0.20558   0.61321   0.03304   0.00000  Uiso   1.00
C1102  C     0.10701   0.68556   0.96696   0.00000  Uiso   1.00
C1103  C     0.43667   0.84914   0.04162   0.00000  Uiso   1.00
C1104  C     0.28912   0.60902   0.95649   0.00000  Uiso   1.00
C1105  C     0.02539   0.72789   0.91797   0.00000  Uiso   1.00
C1106  C     0.31801   0.90566   0.04272   0.00000  Uiso   1.00
C1107  C     0.38923   0.78487   0.95699   0.00000  Uiso   1.00
C1108  C     0.04456   0.64228   0.04331   0.00000  Uiso   1.00
C1109  C     0.13592   0.92359   0.16038   0.00000  Uiso   1.00
C1110  C     0.35402   0.58101   0.84117   0.00000  Uiso   1.00
C1111  C     0.06738   0.63102   0.16435   0.00000  Uiso   1.00
C1112  C     0.44434   0.88636   0.81974   0.00000  Uiso   1.00
C1113  C     0.37495   0.56295   0.16708   0.00000  Uiso   1.00
C1114  C     0.13966   0.92150   0.84099   0.00000  Uiso   1.00
C1115  C     0.41654   0.85512   0.15786   0.00000  Uiso   1.00
C1116  C     0.47239   0.76853   0.08246   0.00000  Uiso   1.00
C1117  C     0.06927   0.63416   0.83684   0.00000  Uiso   1.00
C1118  C     0.12535   0.56699   0.83345   0.00000  Uiso   1.00
C1119  C     0.35038   0.91605   0.15835   0.00000  Uiso   1.00
C1120  C     0.07812   0.85611   0.84047   0.00000  Uiso   1.00
C1121  C     0.43901   0.62373   0.16951   0.00000  Uiso   1.00
C1122  C     0.37176   0.93500   0.83466   0.00000  Uiso   1.00
C1123  C     0.12644   0.56577   0.16612   0.00000  Uiso   1.00
C1124  C     0.41845   0.64438   0.84169   0.00000  Uiso   1.00
C1125  C     0.07733   0.85653   0.15980   0.00000  Uiso   1.00
C1126  C     0.39222   0.66971   0.65890   0.00000  Uiso   1.00
C1127  C     0.49935   0.75069   0.39830   0.00000  Uiso   1.00
C1128  C     0.11127   0.82769   0.34052   0.00000  Uiso   1.00
C1129  C     0.31412   0.87746   0.66665   0.00000  Uiso   1.00
C1130  C     0.18595   0.62791   0.33125   0.00000  Uiso   1.00
C1131  C     0.11018   0.82826   0.65909   0.00000  Uiso   1.00
C1132  C     0.36287   0.69578   0.31863   0.00000  Uiso   1.00
C1133  C     0.17810   0.61526   0.66142   0.00000  Uiso   1.00
C1134  C     0.33314   0.89819   0.34157   0.00000  Uiso   1.00
C1135  C     0.39788   0.83428   0.34207   0.00000  Uiso   1.00
C1136  C     0.11569   0.67892   0.66261   0.00000  Uiso   1.00
C1137  C     0.31337   0.62379   0.33349   0.00000  Uiso   1.00
C1138  C     0.00080   0.74938   0.60206   0.00000  Uiso   1.00
C1139  C     0.17263   0.89205   0.65981   0.00000  Uiso   1.00
C1140  C     0.11788   0.68320   0.33569   0.00000  Uiso   1.00
C1141  C     0.37523   0.81376   0.66699   0.00000  Uiso   1.00
C1142  C     0.17275   0.89252   0.34008   0.00000  Uiso   1.00
C1143  C     0.32985   0.60577   0.65930   0.00000  Uiso   1.00
C1144  C     0.01896   0.83022   0.38752   0.00000  Uiso   1.00
C1145  C     0.48642   0.66679   0.61052   0.00000  Uiso   1.00
C1146  C     0.18025   0.54457   0.37840   0.00000  Uiso   1.00
C1147  C     0.33096   0.50994   0.61685   0.00000  Uiso   1.00
C1148  C     0.41615   0.72320   0.40171   0.00000  Uiso   1.00
C1149  C     0.24878   0.50048   0.39800   0.00000  Uiso   1.00
C1150  C     0.01808   0.83226   0.60647   0.00000  Uiso   1.00
C1151  C     0.33228   0.51624   0.39195   0.00000  Uiso   1.00
C1152  C     0.16909   0.98892   0.61978   0.00000  Uiso   1.00
C1153  C     0.20156   0.57060   0.89682   0.00000  Uiso   1.00
C1154  C     0.22488   0.91965   0.10675   0.00000  Uiso   1.00
C1155  C     0.47235   0.83354   0.90212   0.00000  Uiso   1.00
C1156  C     0.08203   0.73098   0.10681   0.00000  Uiso   1.00
C1157  C     0.23002   0.92047   0.88204   0.00000  Uiso   1.00
C1158  C     0.21246   0.57318   0.11954   0.00000  Uiso   1.00
C1159  C     0.08023   0.73039   0.88659   0.00000  Uiso   1.00
C1160  C     0.48120   0.72239   0.58223   0.00000  Uiso   1.00
C1161  C     0.24984   0.99958   0.60216   0.00000  Uiso   1.00
C1162  C     0.41675   0.76263   0.11104   0.00000  Uiso   1.00
C1163  C     0.25009   0.99940   0.89802   0.00000  Uiso   1.00
C1164  C     0.25051   0.50090   0.10201   0.00000  Uiso   1.00
C1165  C     0.00076   0.75057   0.89831   0.00000  Uiso   1.00
C1166  C     0.49944   0.74912   0.10209   0.00000  Uiso   1.00
C1167  C     0.45961   0.69697   0.47988   0.00000  Uiso   1.00
C1168  C     0.04990   0.79511   0.52071   0.00000  Uiso   1.00
C1169  C     0.31094   0.97489   0.47871   0.00000  Uiso   1.00
C1170  C     0.18524   0.51909   0.52123   0.00000  Uiso   1.00
C1171  C     0.04817   0.79731   0.47997   0.00000  Uiso   1.00
C1172  C     0.21673   0.50975   0.41832   0.00000  Uiso   1.00
C1173  C     0.45803   0.69801   0.52043   0.00000  Uiso   1.00
C1174  C     0.18639   0.52287   0.48064   0.00000  Uiso   1.00
C1175  C     0.31250   0.97735   0.51939   0.00000  Uiso   1.00
C1176  C     0.26488   0.93432   0.98006   0.00000  Uiso   1.00
C1177  C     0.24559   0.56720   0.01982   0.00000  Uiso   1.00
C1178  C     0.04752   0.70193   0.97959   0.00000  Uiso   1.00
C1179  C     0.44780   0.79138   0.02088   0.00000  Uiso   1.00
C1180  C     0.24931   0.56679   0.97926   0.00000  Uiso   1.00
C1181  C     0.26821   0.93569   0.02069   0.00000  Uiso   1.00
C1182  C     0.44676   0.78974   0.98034   0.00000  Uiso   1.00
C1183  C     0.28165   0.98976   0.58188   0.00000  Uiso   1.00
C1184  C     0.04533   0.70018   0.02036   0.00000  Uiso   1.00
C1185  C     0.24917   0.50008   0.35575   0.00000  Uiso   1.00
C1186  C     0.25014   0.99990   0.64430   0.00000  Uiso   1.00
C1187  C     0.49984   0.74986   0.35587   0.00000  Uiso   1.00
C1188  C     0.00014   0.75009   0.64426   0.00000  Uiso   1.00
C1189  C     0.49989   0.75015   0.85587   0.00000  Uiso   1.00
C1190  C     0.00009   0.74985   0.14427   0.00000  Uiso   1.00
C1191  C     0.24999   0.99984   0.85577   0.00000  Uiso   1.00
C1192  C     0.25012   0.50049   0.14425   0.00000  Uiso   1.00
C1193  C     0.18008   0.57021   0.24992   0.00000  Uiso   1.00
C1194  C     0.47597   0.72716   0.41860   0.00000  Uiso   1.00
C1195  C     0.31998   0.92995   0.74987   0.00000  Uiso   1.00
C1196  C     0.42962   0.68021   0.24969   0.00000  Uiso   1.00
C1197  C     0.07006   0.82002   0.74999   0.00000  Uiso   1.00
C1198  C     0.32005   0.93001   0.24997   0.00000  Uiso   1.00
C1199  C     0.17973   0.56982   0.74986   0.00000  Uiso   1.00
C1200  C     0.07002   0.81998   0.25002   0.00000  Uiso   1.00
C1201  C     0.42996   0.68003   0.75002   0.00000  Uiso   1.00
C1202  C     0.17996   0.92996   0.75002   0.00000  Uiso   1.00
C1203  C     0.32004   0.57000   0.24992   0.00000  Uiso   1.00
C1204  C     0.43027   0.82041   0.74970   0.00000  Uiso   1.00
C1205  C     0.02231   0.77480   0.58208   0.00000  Uiso   1.00
C1206  C     0.07000   0.67998   0.24992   0.00000  Uiso   1.00
C1207  C     0.31997   0.57002   0.75003   0.00000  Uiso   1.00
C1208  C     0.17994   0.93005   0.25001   0.00000  Uiso   1.00
C1209  C     0.07001   0.67996   0.74988   0.00000  Uiso   1.00
C1210  C     0.42998   0.82005   0.25008   0.00000  Uiso   1.00
C1211  C     0.13981   0.88713   0.21440   0.00000  Uiso   1.00
C1212  C     0.35777   0.61516   0.78532   0.00000  Uiso   1.00
C1213  C     0.10901   0.63593   0.21430   0.00000  Uiso   1.00
C1214  C     0.39470   0.86857   0.78392   0.00000  Uiso   1.00
C1215  C     0.36597   0.60683   0.21447   0.00000  Uiso   1.00
C1216  C     0.28083   0.99140   0.41763   0.00000  Uiso   1.00
C1217  C     0.14072   0.88630   0.78550   0.00000  Uiso   1.00
C1218  C     0.38420   0.85694   0.21511   0.00000  Uiso   1.00
C1219  C     0.10960   0.63699   0.78527   0.00000  Uiso   1.00
C1220  C     0.13560   0.60907   0.78522   0.00000  Uiso   1.00
C1221  C     0.35690   0.88371   0.21511   0.00000  Uiso   1.00
C1222  C     0.11394   0.85900   0.78544   0.00000  Uiso   1.00
C1223  C     0.39322   0.63361   0.21452   0.00000  Uiso   1.00
C1224  C     0.36576   0.89332   0.78449   0.00000  Uiso   1.00
C1225  C     0.13557   0.60851   0.21442   0.00000  Uiso   1.00
C1226  C     0.38491   0.64213   0.78534   0.00000  Uiso   1.00
C1227  C     0.21753   0.50855   0.58277   0.00000  Uiso   1.00
C1228  C     0.11335   0.85951   0.21448   0.00000  Uiso   1.00
C1229  C     0.39159   0.63542   0.71471   0.00000  Uiso   1.00
C1230  C     0.10968   0.86329   0.28562   0.00000  Uiso   1.00
C1231  C     0.35778   0.88462   0.71423   0.00000  Uiso   1.00
C1232  C     0.14226   0.61588   0.28503   0.00000  Uiso   1.00
C1233  C     0.10938   0.86361   0.71449   0.00000  Uiso   1.00
C1234  C     0.38094   0.64545   0.28373   0.00000  Uiso   1.00
C1235  C     0.13908   0.61177   0.71402   0.00000  Uiso   1.00
C1236  C     0.36620   0.89356   0.28489   0.00000  Uiso   1.00
C1237  C     0.39314   0.86643   0.28501   0.00000  Uiso   1.00
C1238  C     0.24583   0.53240   0.91801   0.00000  Uiso   1.00
C1239  C     0.11220   0.63894   0.71399   0.00000  Uiso   1.00
C1240  C     0.35605   0.61663   0.28438   0.00000  Uiso   1.00
C1241  C     0.13632   0.89076   0.71453   0.00000  Uiso   1.00
C1242  C     0.11417   0.64168   0.28520   0.00000  Uiso   1.00
C1243  C     0.38468   0.85750   0.71430   0.00000  Uiso   1.00
C1244  C     0.13651   0.89057   0.28558   0.00000  Uiso   1.00
C1245  C     0.36469   0.60823   0.71474   0.00000  Uiso   1.00
C1246  C     0.47909   0.72408   0.45927   0.00000  Uiso   1.00
C1247  C     0.02511   0.77279   0.54129   0.00000  Uiso   1.00
C1248  C     0.28050   0.98863   0.45851   0.00000  Uiso   1.00
H1249  H     0.48829   0.64657   0.43825   0.00000  Uiso   1.00
H1250  H     0.10467   0.50376   0.55597   0.00000  Uiso   1.00
H1251  H     0.13901   0.82138   0.32876   0.00000  Uiso   1.00
H1252  H     0.09523   0.80204   0.34103   0.00000  Uiso   1.00
H1253  H     0.11419   0.83668   0.37119   0.00000  Uiso   1.00
H1254  H     0.29177   0.89669   0.65954   0.00000  Uiso   1.00
H1255  H     0.30332   0.85750   0.68830   0.00000  Uiso   1.00
H1256  H     0.32086   0.86294   0.63925   0.00000  Uiso   1.00
H1257  H     0.18908   0.65313   0.31346   0.00000  Uiso   1.00
H1258  H     0.21210   0.61276   0.33022   0.00000  Uiso   1.00
H1259  H     0.18191   0.63605   0.36205   0.00000  Uiso   1.00
H1260  H     0.09354   0.80301   0.65791   0.00000  Uiso   1.00
H1261  H     0.13873   0.97231   0.53915   0.00000  Uiso   1.00
H1262  H     0.13764   0.82107   0.67071   0.00000  Uiso   1.00
H1263  H     0.11359   0.83768   0.62868   0.00000  Uiso   1.00
H1264  H     0.34536   0.69929   0.29238   0.00000  Uiso   1.00
H1265  H     0.37902   0.72116   0.32238   0.00000  Uiso   1.00
H1266  H     0.34487   0.69383   0.34448   0.00000  Uiso   1.00
H1267  H     0.20222   0.59724   0.65807   0.00000  Uiso   1.00
H1268  H     0.18682   0.64042   0.67728   0.00000  Uiso   1.00
H1269  H     0.16966   0.62288   0.63162   0.00000  Uiso   1.00
H1270  H     0.31759   0.87552   0.32747   0.00000  Uiso   1.00
H1271  H     0.31316   0.91943   0.35031   0.00000  Uiso   1.00
H1272  H     0.11514   0.50208   0.50519   0.00000  Uiso   1.00
H1273  H     0.34585   0.88786   0.36855   0.00000  Uiso   1.00
H1274  H     0.41672   0.81073   0.34434   0.00000  Uiso   1.00
H1275  H     0.37071   0.82404   0.33222   0.00000  Uiso   1.00
H1276  H     0.39468   0.84562   0.37184   0.00000  Uiso   1.00
H1277  H     0.13727   0.69108   0.68152   0.00000  Uiso   1.00
H1278  H     0.09597   0.70083   0.65544   0.00000  Uiso   1.00
H1279  H     0.12818   0.67012   0.63474   0.00000  Uiso   1.00
H1280  H     0.29111   0.60469   0.34163   0.00000  Uiso   1.00
H1281  H     0.30195   0.64359   0.31217   0.00000  Uiso   1.00
H1282  H     0.32131   0.63831   0.36051   0.00000  Uiso   1.00
H1283  H     0.03475   0.86216   0.47104   0.00000  Uiso   1.00
H1284  H     0.18666   0.86968   0.67585   0.00000  Uiso   1.00
H1285  H     0.19359   0.91268   0.65211   0.00000  Uiso   1.00
H1286  H     0.16179   0.88104   0.63209   0.00000  Uiso   1.00
H1287  H     0.09768   0.70412   0.34478   0.00000  Uiso   1.00
H1288  H     0.13735   0.69649   0.31507   0.00000  Uiso   1.00
H1289  H     0.13253   0.67495   0.36234   0.00000  Uiso   1.00
H1290  H     0.35144   0.80755   0.68626   0.00000  Uiso   1.00
H1291  H     0.39224   0.78883   0.66466   0.00000  Uiso   1.00
H1292  H     0.36514   0.81928   0.63725   0.00000  Uiso   1.00
H1293  H     0.19275   0.91374   0.34886   0.00000  Uiso   1.00
H1294  H     0.07418   0.87297   0.44236   0.00000  Uiso   1.00
H1295  H     0.18788   0.87115   0.32333   0.00000  Uiso   1.00
H1296  H     0.16184   0.88040   0.36722   0.00000  Uiso   1.00
H1297  H     0.31597   0.62903   0.67430   0.00000  Uiso   1.00
H1298  H     0.30863   0.58523   0.65214   0.00000  Uiso   1.00
H1299  H     0.34137   0.61547   0.63133   0.00000  Uiso   1.00
H1300  H     0.00247   0.84002   0.41277   0.00000  Uiso   1.00
H1301  H     0.00062   0.82283   0.36308   0.00000  Uiso   1.00
H1302  H     0.03617   0.85336   0.37772   0.00000  Uiso   1.00
H1303  H     0.00950   0.67526   0.62946   0.00000  Uiso   1.00
H1304  H     0.49703   0.65467   0.58297   0.00000  Uiso   1.00
H1305  H     0.07954   0.86667   0.49346   0.00000  Uiso   1.00
H1306  H     0.47106   0.64515   0.62604   0.00000  Uiso   1.00
H1307  H     0.18214   0.53913   0.34670   0.00000  Uiso   1.00
H1308  H     0.20044   0.56598   0.38684   0.00000  Uiso   1.00
H1309  H     0.15258   0.55576   0.38387   0.00000  Uiso   1.00
H1310  H     0.32102   0.51701   0.64643   0.00000  Uiso   1.00
H1311  H     0.32907   0.53421   0.59749   0.00000  Uiso   1.00
H1312  H     0.36030   0.50305   0.61964   0.00000  Uiso   1.00
H1313  H     0.41447   0.74786   0.38314   0.00000  Uiso   1.00
H1314  H     0.40901   0.73069   0.43223   0.00000  Uiso   1.00
H1315  H     0.39518   0.70347   0.39193   0.00000  Uiso   1.00
H1316  H     0.39970   0.71354   0.55872   0.00000  Uiso   1.00
H1317  H     0.49287   0.82590   0.62331   0.00000  Uiso   1.00
H1318  H     0.01088   0.84356   0.57749   0.00000  Uiso   1.00
H1319  H     0.03311   0.85378   0.62260   0.00000  Uiso   1.00
H1320  H     0.34091   0.52737   0.42066   0.00000  Uiso   1.00
H1321  H     0.31670   0.53723   0.37566   0.00000  Uiso   1.00
H1322  H     0.35734   0.51008   0.37498   0.00000  Uiso   1.00
H1323  H     0.17912   0.98318   0.64952   0.00000  Uiso   1.00
H1324  H     0.17141   0.96391   0.60133   0.00000  Uiso   1.00
H1325  H     0.13963   0.99542   0.62253   0.00000  Uiso   1.00
H1326  H     0.19093   0.57617   0.92661   0.00000  Uiso   1.00
H1327  H     0.38221   0.66784   0.55628   0.00000  Uiso   1.00
H1328  H     0.18627   0.54744   0.88375   0.00000  Uiso   1.00
H1329  H     0.19636   0.59522   0.87906   0.00000  Uiso   1.00
H1330  H     0.21392   0.91153   0.07784   0.00000  Uiso   1.00
H1331  H     0.20522   0.93793   0.12186   0.00000  Uiso   1.00
H1332  H     0.22756   0.89456   0.12446   0.00000  Uiso   1.00
H1333  H     0.49664   0.83585   0.88290   0.00000  Uiso   1.00
H1334  H     0.48027   0.84053   0.93250   0.00000  Uiso   1.00
H1335  H     0.45211   0.85422   0.89314   0.00000  Uiso   1.00
H1336  H     0.07570   0.75613   0.12379   0.00000  Uiso   1.00
H1337  H     0.09388   0.73829   0.07800   0.00000  Uiso   1.00
H1338  H     0.38865   0.69254   0.51195   0.00000  Uiso   1.00
H1339  H     0.10308   0.71562   0.12304   0.00000  Uiso   1.00
H1340  H     0.22555   0.93023   0.85197   0.00000  Uiso   1.00
H1341  H     0.20566   0.92668   0.90047   0.00000  Uiso   1.00
H1342  H     0.23249   0.89034   0.88033   0.00000  Uiso   1.00
H1343  H     0.21345   0.56755   0.15116   0.00000  Uiso   1.00
H1344  H     0.18974   0.55743   0.10588   0.00000  Uiso   1.00
H1345  H     0.20594   0.60257   0.11658   0.00000  Uiso   1.00
H1346  H     0.09080   0.74619   0.91191   0.00000  Uiso   1.00
H1347  H     0.07276   0.74934   0.86280   0.00000  Uiso   1.00
H1348  H     0.10282   0.71296   0.87569   0.00000  Uiso   1.00
H1349  H     0.13618   0.58860   0.44862   0.00000  Uiso   1.00
H1350  H     0.42535   0.73972   0.13003   0.00000  Uiso   1.00
H1351  H     0.40491   0.75178   0.08353   0.00000  Uiso   1.00
H1352  H     0.39484   0.77772   0.12653   0.00000  Uiso   1.00
H1353  H     0.44871   0.61779   0.44006   0.00000  Uiso   1.00
H1354  H     0.18466   0.58761   0.45550   0.00000  Uiso   1.00
H1355  H     0.15360   0.58473   0.49697   0.00000  Uiso   1.00
H1356  H     0.39358   0.98614   0.55445   0.00000  Uiso   1.00
H1357  H     0.36265   0.51992   0.53656   0.00000  Uiso   1.00
H1358  H     0.38483   0.98788   0.50345   0.00000  Uiso   1.00
H1359  H     0.24327   0.85511   0.94571   0.00000  Uiso   1.00
H1360  H     0.21463   0.89179   0.96196   0.00000  Uiso   1.00
H1361  H     0.24182   0.86587   0.99641   0.00000  Uiso   1.00
H1362  H     0.20105   0.63716   0.05228   0.00000  Uiso   1.00
H1363  H     0.18481   0.59222   0.04085   0.00000  Uiso   1.00
H1364  H     0.47212   0.62807   0.48450   0.00000  Uiso   1.00
H1365  H     0.20129   0.62246   0.00268   0.00000  Uiso   1.00
H1366  H     0.11253   0.71523   0.97133   0.00000  Uiso   1.00
H1367  H     0.12333   0.67658   0.94142   0.00000  Uiso   1.00
H1368  H     0.11688   0.66986   0.99235   0.00000  Uiso   1.00
H1369  H     0.46235   0.85027   0.05878   0.00000  Uiso   1.00
H1370  H     0.41634   0.86684   0.05642   0.00000  Uiso   1.00
H1371  H     0.44129   0.86053   0.01204   0.00000  Uiso   1.00
H1372  H     0.29132   0.63527   0.94070   0.00000  Uiso   1.00
H1373  H     0.30444   0.58817   0.93935   0.00000  Uiso   1.00
H1374  H     0.30185   0.61288   0.98557   0.00000  Uiso   1.00
H1375  H     0.10241   0.76889   0.56116   0.00000  Uiso   1.00
H1376  H     0.32720   0.88114   0.05876   0.00000  Uiso   1.00
H1377  H     0.32752   0.93005   0.05925   0.00000  Uiso   1.00
H1378  H     0.33099   0.90487   0.01339   0.00000  Uiso   1.00
H1379  H     0.39652   0.76040   0.93930   0.00000  Uiso   1.00
H1380  H     0.36739   0.79966   0.94133   0.00000  Uiso   1.00
H1381  H     0.37796   0.77647   0.98571   0.00000  Uiso   1.00
H1382  H     0.01933   0.64738   0.06066   0.00000  Uiso   1.00
H1383  H     0.06083   0.62154   0.05898   0.00000  Uiso   1.00
H1384  H     0.03750   0.63069   0.01433   0.00000  Uiso   1.00
H1385  H     0.15059   0.95005   0.16098   0.00000  Uiso   1.00
H1386  H     0.12879   0.81009   0.55924   0.00000  Uiso   1.00
H1387  H     0.10789   0.92807   0.17228   0.00000  Uiso   1.00
H1388  H     0.13341   0.91560   0.12936   0.00000  Uiso   1.00
H1389  H     0.37692   0.56624   0.82648   0.00000  Uiso   1.00
H1390  H     0.33285   0.56056   0.84886   0.00000  Uiso   1.00
H1391  H     0.36405   0.59285   0.86884   0.00000  Uiso   1.00
H1392  H     0.04537   0.65064   0.15728   0.00000  Uiso   1.00
H1393  H     0.05565   0.61017   0.18443   0.00000  Uiso   1.00
H1394  H     0.07523   0.61774   0.13657   0.00000  Uiso   1.00
H1395  H     0.44825   0.90432   0.79387   0.00000  Uiso   1.00
H1396  H     0.46967   0.87025   0.82343   0.00000  Uiso   1.00
H1397  H     0.11916   0.78642   0.51471   0.00000  Uiso   1.00
H1398  H     0.44194   0.90395   0.84588   0.00000  Uiso   1.00
H1399  H     0.35724   0.53856   0.16384   0.00000  Uiso   1.00
H1400  H     0.39790   0.55572   0.18687   0.00000  Uiso   1.00
H1401  H     0.38607   0.56866   0.13771   0.00000  Uiso   1.00
H1402  H     0.11208   0.92840   0.82946   0.00000  Uiso   1.00
H1403  H     0.15609   0.94691   0.84222   0.00000  Uiso   1.00
H1404  H     0.13640   0.91202   0.87140   0.00000  Uiso   1.00
H1405  H     0.44272   0.84002   0.15791   0.00000  Uiso   1.00
H1406  H     0.42217   0.88405   0.16618   0.00000  Uiso   1.00
H1407  H     0.40637   0.85487   0.12754   0.00000  Uiso   1.00
H1408  H     0.35717   0.90898   0.44010   0.00000  Uiso   1.00
H1409  H     0.05686   0.61273   0.81788   0.00000  Uiso   1.00
H1410  H     0.04749   0.65407   0.84401   0.00000  Uiso   1.00
H1411  H     0.07786   0.62182   0.86470   0.00000  Uiso   1.00
H1412  H     0.14072   0.54097   0.83342   0.00000  Uiso   1.00
H1413  H     0.09993   0.56268   0.81625   0.00000  Uiso   1.00
H1414  H     0.11758   0.57244   0.86412   0.00000  Uiso   1.00
H1415  H     0.37219   0.93296   0.17214   0.00000  Uiso   1.00
H1416  H     0.32807   0.93474   0.14965   0.00000  Uiso   1.00
H1417  H     0.36132   0.90351   0.13133   0.00000  Uiso   1.00
H1418  H     0.05842   0.83456   0.84908   0.00000  Uiso   1.00
H1419  H     0.30866   0.91543   0.43905   0.00000  Uiso   1.00
H1420  H     0.06265   0.87751   0.82443   0.00000  Uiso   1.00
H1421  H     0.08907   0.86806   0.86768   0.00000  Uiso   1.00
H1422  H     0.44804   0.60425   0.19242   0.00000  Uiso   1.00
H1423  H     0.46224   0.64220   0.16296   0.00000  Uiso   1.00
H1424  H     0.43349   0.60848   0.14230   0.00000  Uiso   1.00
H1425  H     0.35250   0.95702   0.84311   0.00000  Uiso   1.00
H1426  H     0.39199   0.94695   0.81394   0.00000  Uiso   1.00
H1427  H     0.38573   0.92642   0.86165   0.00000  Uiso   1.00
H1428  H     0.10183   0.56000   0.18434   0.00000  Uiso   1.00
H1429  H     0.14296   0.54048   0.16439   0.00000  Uiso   1.00
H1430  H     0.33233   0.90851   0.48512   0.00000  Uiso   1.00
H1431  H     0.11753   0.57161   0.13602   0.00000  Uiso   1.00
H1432  H     0.44257   0.66252   0.84440   0.00000  Uiso   1.00
H1433  H     0.42786   0.61737   0.83032   0.00000  Uiso   1.00
H1434  H     0.40751   0.64041   0.87149   0.00000  Uiso   1.00
H1435  H     0.06150   0.87745   0.17646   0.00000  Uiso   1.00
H1436  H     0.05795   0.83483   0.15077   0.00000  Uiso   1.00
H1437  H     0.08818   0.86898   0.13280   0.00000  Uiso   1.00
H1438  H     0.40922   0.69470   0.65736   0.00000  Uiso   1.00
H1439  H     0.36471   0.67756   0.67020   0.00000  Uiso   1.00
H1440  H     0.38905   0.65958   0.62868   0.00000  Uiso   1.00
O1441  O     0.25000   0.50000   0.25000   0.00000  Uiso   1.00
O1442  O     0.25000   0.96964   0.66245   0.00000  Uiso   1.00
O1443  O     0.35770   0.58863   0.68101   0.00000  Uiso   1.00
O1444  O     0.04203   0.80078   0.39732   0.00000  Uiso   1.00
O1445  O     0.46252   0.69616   0.60331   0.00000  Uiso   1.00
O1446  O     0.18368   0.51135   0.39876   0.00000  Uiso   1.00
O1447  O     0.31231   0.97893   0.60241   0.00000  Uiso   1.00
O1448  O     0.45079   0.70647   0.39817   0.00000  Uiso   1.00
O1449  O     0.04082   0.80137   0.60292   0.00000  Uiso   1.00
O1450  O     0.31200   0.98372   0.39618   0.00000  Uiso   1.00
O1451  O     0.18724   0.51967   0.60410   0.00000  Uiso   1.00
O1452  O     0.23948   0.56388   0.89694   0.00000  Uiso   1.00
O1453  O     0.46963   0.75000   0.33755   0.00000  Uiso   1.00
O1454  O     0.25957   0.93611   0.10334   0.00000  Uiso   1.00
O1455  O     0.45613   0.79863   0.89857   0.00000  Uiso   1.00
O1456  O     0.05093   0.70857   0.10271   0.00000  Uiso   1.00
O1457  O     0.26302   0.93481   0.89690   0.00000  Uiso   1.00
O1458  O     0.24718   0.56672   0.10280   0.00000  Uiso   1.00
O1459  O     0.05054   0.70765   0.89682   0.00000  Uiso   1.00
O1460  O     0.44595   0.78688   0.10373   0.00000  Uiso   1.00
O1461  O     0.03036   0.75000   0.66245   0.00000  Uiso   1.00
O1462  O    -0.00000   0.71964   0.83755   0.00000  Uiso   1.00
O1463  O     0.00000   0.78037   0.16245   0.00000  Uiso   1.00
O1464  O     0.28036   0.50000   0.83755   0.00000  Uiso   1.00
O1465  O     0.21963   0.50000   0.16245   0.00000  Uiso   1.00
O1466  O     0.00000   0.78037   0.83755   0.00000  Uiso   1.00
O1467  O    -0.00000   0.71964   0.16245   0.00000  Uiso   1.00
O1468  O     0.21963   0.50000   0.83755   0.00000  Uiso   1.00
O1469  O     0.25000   0.50000   0.75000   0.00000  Uiso   1.00
O1470  O     0.28036   0.50000   0.16245   0.00000  Uiso   1.00
O1471  O     0.20724   0.57308   0.27302   0.00000  Uiso   1.00
O1472  O     0.29275   0.92693   0.72698   0.00000  Uiso   1.00
O1473  O     0.42692   0.70725   0.27302   0.00000  Uiso   1.00
O1474  O     0.07307   0.79276   0.72698   0.00000  Uiso   1.00
O1475  O     0.29275   0.92693   0.27302   0.00000  Uiso   1.00
O1476  O     0.20724   0.57308   0.72698   0.00000  Uiso   1.00
O1477  O     0.07307   0.79276   0.27302   0.00000  Uiso   1.00
O1478  O     0.42692   0.70725   0.72698   0.00000  Uiso   1.00
O1479  O     0.20724   0.92693   0.72698   0.00000  Uiso   1.00
O1480  O    -0.00000   0.75000   0.25000   0.00000  Uiso   1.00
O1481  O     0.29275   0.57308   0.27302   0.00000  Uiso   1.00
O1482  O     0.42692   0.79276   0.72698   0.00000  Uiso   1.00
O1483  O     0.07307   0.70725   0.27302   0.00000  Uiso   1.00
O1484  O     0.29275   0.57308   0.72698   0.00000  Uiso   1.00
O1485  O     0.20724   0.92693   0.27302   0.00000  Uiso   1.00
O1486  O     0.07307   0.70725   0.72698   0.00000  Uiso   1.00
O1487  O     0.42692   0.79276   0.27302   0.00000  Uiso   1.00
O1488  O     0.45724   0.82308   0.77302   0.00000  Uiso   1.00
O1489  O     0.04275   0.67693   0.22698   0.00000  Uiso   1.00
O1490  O     0.17692   0.95725   0.77302   0.00000  Uiso   1.00
O1491  O    -0.00000   0.75000   0.75000   0.00000  Uiso   1.00
O1492  O     0.32307   0.54276   0.22698   0.00000  Uiso   1.00
O1493  O     0.04275   0.67693   0.77302   0.00000  Uiso   1.00
O1494  O     0.45724   0.82308   0.22698   0.00000  Uiso   1.00
O1495  O     0.32307   0.54276   0.77302   0.00000  Uiso   1.00
O1496  O     0.17692   0.95725   0.22698   0.00000  Uiso   1.00
O1497  O     0.45724   0.67693   0.22698   0.00000  Uiso   1.00
O1498  O     0.04275   0.82308   0.77302   0.00000  Uiso   1.00
O1499  O     0.17692   0.54276   0.22698   0.00000  Uiso   1.00
O1500  O     0.32307   0.95725   0.77302   0.00000  Uiso   1.00
O1501  O     0.04275   0.82308   0.22698   0.00000  Uiso   1.00
O1502  O     0.25000   0.96964   0.33755   0.00000  Uiso   1.00
O1503  O     0.45724   0.67693   0.77302   0.00000  Uiso   1.00
O1504  O     0.32307   0.95725   0.22698   0.00000  Uiso   1.00
O1505  O     0.17692   0.54276   0.77302   0.00000  Uiso   1.00
O1506  O     0.44049   0.66977   0.46071   0.00000  Uiso   1.00
O1507  O     0.07603   0.81535   0.54019   0.00000  Uiso   1.00
O1508  O     0.34001   0.95937   0.45890   0.00000  Uiso   1.00
O1509  O     0.15336   0.52787   0.54097   0.00000  Uiso   1.00
O1510  O     0.07261   0.81958   0.46022   0.00000  Uiso   1.00
O1511  O     0.43575   0.67318   0.53933   0.00000  Uiso   1.00
O1512  O     0.15672   0.53802   0.46188   0.00000  Uiso   1.00
O1513  O     0.25000   0.53037   0.66245   0.00000  Uiso   1.00
O1514  O     0.34368   0.96558   0.53827   0.00000  Uiso   1.00
O1515  O     0.27128   0.90159   0.96090   0.00000  Uiso   1.00
O1516  O     0.24155   0.60043   0.03870   0.00000  Uiso   1.00
O1517  O     0.06987   0.67762   0.95962   0.00000  Uiso   1.00
O1518  O     0.42268   0.81328   0.03998   0.00000  Uiso   1.00
O1519  O     0.25188   0.59973   0.95991   0.00000  Uiso   1.00
O1520  O     0.27961   0.90473   0.04006   0.00000  Uiso   1.00
O1521  O     0.41935   0.80849   0.96140   0.00000  Uiso   1.00
O1522  O     0.06575   0.67425   0.03967   0.00000  Uiso   1.00
O1523  O     0.15677   0.89677   0.17983   0.00000  Uiso   1.00
O1524  O     0.03036   0.75000   0.33755   0.00000  Uiso   1.00
O1525  O     0.33759   0.60879   0.81879   0.00000  Uiso   1.00
O1526  O     0.09764   0.65060   0.17922   0.00000  Uiso   1.00
O1527  O     0.41393   0.86230   0.81787   0.00000  Uiso   1.00
O1528  O     0.35342   0.59296   0.17935   0.00000  Uiso   1.00
O1529  O     0.15899   0.89460   0.81963   0.00000  Uiso   1.00
O1530  O     0.39086   0.83679   0.18169   0.00000  Uiso   1.00
O1531  O     0.09916   0.65308   0.82018   0.00000  Uiso   1.00
O1532  O     0.14828   0.59564   0.82026   0.00000  Uiso   1.00
O1533  O     0.33551   0.88848   0.18236   0.00000  Uiso   1.00
O1534  O     0.10686   0.83961   0.81919   0.00000  Uiso   1.00
O1535  O     0.46963   0.75000   0.66245   0.00000  Uiso   1.00
O1536  O     0.40812   0.64510   0.17946   0.00000  Uiso   1.00
O1537  O     0.35147   0.90525   0.81976   0.00000  Uiso   1.00
O1538  O     0.14866   0.59492   0.17937   0.00000  Uiso   1.00
O1539  O     0.39162   0.66196   0.81897   0.00000  Uiso   1.00
O1540  O     0.10625   0.84020   0.18056   0.00000  Uiso   1.00
O1541  O     0.41070   0.64287   0.68080   0.00000  Uiso   1.00
O1542  O     0.09172   0.85470   0.31994   0.00000  Uiso   1.00
O1543  O     0.34487   0.89778   0.67908   0.00000  Uiso   1.00
O1544  O     0.15690   0.60455   0.32005   0.00000  Uiso   1.00
O1545  O     0.09107   0.85537   0.68037   0.00000  Uiso   1.00
O1546  O     0.25000   0.53037   0.33755   0.00000  Uiso   1.00
O1547  O     0.38686   0.66534   0.31749   0.00000  Uiso   1.00
O1548  O     0.14946   0.59539   0.67927   0.00000  Uiso   1.00
O1549  O     0.36025   0.91453   0.31792   0.00000  Uiso   1.00
O1550  O     0.41398   0.86119   0.31806   0.00000  Uiso   1.00
O1551  O     0.09636   0.64930   0.67918   0.00000  Uiso   1.00
O1552  O     0.34346   0.60327   0.31972   0.00000  Uiso   1.00
O1553  O     0.14412   0.90954   0.68057   0.00000  Uiso   1.00
O1554  O     0.09887   0.65279   0.32029   0.00000  Uiso   1.00
O1555  O     0.39730   0.84339   0.67925   0.00000  Uiso   1.00
O1556  O     0.14405   0.90954   0.31959   0.00000  Uiso   1.00
Zn1557 Zn    0.20659   0.50000   0.21735   0.00000  Uiso   1.00
Zn1558 Zn    0.04340   0.75000   0.28265   0.00000  Uiso   1.00
Zn1559 Zn    0.25000   0.95660   0.71735   0.00000  Uiso   1.00
Zn1560 Zn    0.25000   0.54341   0.28265   0.00000  Uiso   1.00
Zn1561 Zn    0.04340   0.75000   0.71735   0.00000  Uiso   1.00
Zn1562 Zn    0.45659   0.75000   0.28265   0.00000  Uiso   1.00
Zn1563 Zn    0.25000   0.54341   0.71735   0.00000  Uiso   1.00
Zn1564 Zn    0.25000   0.95660   0.28265   0.00000  Uiso   1.00
Zn1565 Zn    0.29340   0.50000   0.78265   0.00000  Uiso   1.00
Zn1566 Zn   -0.00000   0.70660   0.21735   0.00000  Uiso   1.00
Zn1567 Zn    0.00000   0.79341   0.78265   0.00000  Uiso   1.00
Zn1568 Zn    0.29340   0.50000   0.21735   0.00000  Uiso   1.00
Zn1569 Zn    0.20659   0.50000   0.78265   0.00000  Uiso   1.00
Zn1570 Zn   -0.00000   0.79341   0.21735   0.00000  Uiso   1.00
Zn1571 Zn    0.00000   0.70660   0.78265   0.00000  Uiso   1.00
Zn1572 Zn    0.45659   0.75000   0.71735   0.00000  Uiso   1.00
C1573  C     0.52206   0.77532   0.41819   0.00000  Uiso   1.00
C1574  C     0.75598   0.96797   0.08213   0.00000  Uiso   1.00
C1575  C     0.71708   0.50906   0.54173   0.00000  Uiso   1.00
C1576  C     0.52422   0.77404   0.45917   0.00000  Uiso   1.00
C1577  C     0.98020   0.72275   0.54128   0.00000  Uiso   1.00
C1578  C     0.71719   0.51091   0.45936   0.00000  Uiso   1.00
C1579  C     0.78136   0.98866   0.54081   0.00000  Uiso   1.00
C1580  C     0.75808   0.96671   0.95895   0.00000  Uiso   1.00
C1581  C     0.74857   0.53429   0.04101   0.00000  Uiso   1.00
C1582  C     0.52418   0.72576   0.95898   0.00000  Uiso   1.00
C1583  C     0.97273   0.76948   0.04152   0.00000  Uiso   1.00
C1584  C     0.74948   0.53336   0.95877   0.00000  Uiso   1.00
C1585  C     0.97710   0.77373   0.91883   0.00000  Uiso   1.00
C1586  C     0.75925   0.96790   0.04127   0.00000  Uiso   1.00
C1587  C     0.97404   0.77055   0.95951   0.00000  Uiso   1.00
C1588  C     0.52293   0.72484   0.04115   0.00000  Uiso   1.00
C1589  C     0.59816   0.84799   0.25007   0.00000  Uiso   1.00
C1590  C     0.90179   0.65204   0.75004   0.00000  Uiso   1.00
C1591  C     0.65225   0.59863   0.24979   0.00000  Uiso   1.00
C1592  C     0.84797   0.90187   0.74954   0.00000  Uiso   1.00
C1593  C     0.90091   0.65266   0.24931   0.00000  Uiso   1.00
C1594  C     0.59819   0.84801   0.74997   0.00000  Uiso   1.00
C1595  C     0.84819   0.90202   0.24997   0.00000  Uiso   1.00
C1596  C     0.52481   0.72754   0.08196   0.00000  Uiso   1.00
C1597  C     0.65112   0.59738   0.74970   0.00000  Uiso   1.00
C1598  C     0.59796   0.65178   0.74968   0.00000  Uiso   1.00
C1599  C     0.90193   0.84814   0.25011   0.00000  Uiso   1.00
C1600  C     0.65187   0.90193   0.75003   0.00000  Uiso   1.00
C1601  C     0.84804   0.59802   0.24961   0.00000  Uiso   1.00
C1602  C     0.90282   0.84921   0.74931   0.00000  Uiso   1.00
C1603  C     0.59804   0.65197   0.24979   0.00000  Uiso   1.00
C1604  C     0.84799   0.59816   0.75005   0.00000  Uiso   1.00
C1605  C     0.65168   0.90212   0.24999   0.00000  Uiso   1.00
C1606  C     0.50207   0.74863   0.47971   0.00000  Uiso   1.00
C1607  C     0.75616   0.96654   0.91785   0.00000  Uiso   1.00
C1608  C     0.50252   0.74801   0.52075   0.00000  Uiso   1.00
C1609  C     0.74899   0.99969   0.47954   0.00000  Uiso   1.00
C1610  C     0.74916   0.99919   0.52072   0.00000  Uiso   1.00
C1611  C     0.75364   0.50025   0.97943   0.00000  Uiso   1.00
C1612  C     0.75369   0.50080   0.02058   0.00000  Uiso   1.00
C1613  C     0.99873   0.74778   0.97975   0.00000  Uiso   1.00
C1614  C     0.99811   0.74734   0.02080   0.00000  Uiso   1.00
C1615  C     0.96377   0.63946   0.45592   0.00000  Uiso   1.00
C1616  C     0.60776   0.79388   0.54373   0.00000  Uiso   1.00
C1617  C     0.83385   0.92147   0.45593   0.00000  Uiso   1.00
C1618  C     0.74721   0.53412   0.08210   0.00000  Uiso   1.00
C1619  C     0.62721   0.50010   0.53467   0.00000  Uiso   1.00
C1620  C     0.56453   0.85671   0.46754   0.00000  Uiso   1.00
C1621  C     0.90019   0.68781   0.54141   0.00000  Uiso   1.00
C1622  C     0.65825   0.57633   0.46625   0.00000  Uiso   1.00
C1623  C     0.87204   0.99123   0.53256   0.00000  Uiso   1.00
C1624  C     0.74128   0.87796   0.96688   0.00000  Uiso   1.00
C1625  C     0.70558   0.61321   0.03304   0.00000  Uiso   1.00
C1626  C     0.60701   0.68556   0.96696   0.00000  Uiso   1.00
C1627  C     0.93667   0.84914   0.04162   0.00000  Uiso   1.00
C1628  C     0.78912   0.60902   0.95649   0.00000  Uiso   1.00
C1629  C     0.52539   0.72789   0.91797   0.00000  Uiso   1.00
C1630  C     0.81801   0.90566   0.04272   0.00000  Uiso   1.00
C1631  C     0.88923   0.78487   0.95699   0.00000  Uiso   1.00
C1632  C     0.54456   0.64228   0.04331   0.00000  Uiso   1.00
C1633  C     0.63592   0.92359   0.16038   0.00000  Uiso   1.00
C1634  C     0.85402   0.58101   0.84117   0.00000  Uiso   1.00
C1635  C     0.56738   0.63102   0.16435   0.00000  Uiso   1.00
C1636  C     0.94434   0.88636   0.81974   0.00000  Uiso   1.00
C1637  C     0.87495   0.56295   0.16708   0.00000  Uiso   1.00
C1638  C     0.63966   0.92150   0.84099   0.00000  Uiso   1.00
C1639  C     0.91654   0.85512   0.15786   0.00000  Uiso   1.00
C1640  C     0.97239   0.76853   0.08246   0.00000  Uiso   1.00
C1641  C     0.56927   0.63416   0.83684   0.00000  Uiso   1.00
C1642  C     0.62535   0.56699   0.83345   0.00000  Uiso   1.00
C1643  C     0.85038   0.91605   0.15835   0.00000  Uiso   1.00
C1644  C     0.57812   0.85611   0.84047   0.00000  Uiso   1.00
C1645  C     0.93901   0.62373   0.16951   0.00000  Uiso   1.00
C1646  C     0.87176   0.93500   0.83466   0.00000  Uiso   1.00
C1647  C     0.62644   0.56577   0.16612   0.00000  Uiso   1.00
C1648  C     0.91845   0.64438   0.84169   0.00000  Uiso   1.00
C1649  C     0.57733   0.85653   0.15980   0.00000  Uiso   1.00
C1650  C     0.89222   0.66971   0.65890   0.00000  Uiso   1.00
C1651  C     0.99935   0.75069   0.39830   0.00000  Uiso   1.00
C1652  C     0.61127   0.82769   0.34052   0.00000  Uiso   1.00
C1653  C     0.81412   0.87746   0.66665   0.00000  Uiso   1.00
C1654  C     0.68595   0.62791   0.33125   0.00000  Uiso   1.00
C1655  C     0.61018   0.82826   0.65909   0.00000  Uiso   1.00
C1656  C     0.86287   0.69578   0.31863   0.00000  Uiso   1.00
C1657  C     0.67810   0.61526   0.66142   0.00000  Uiso   1.00
C1658  C     0.83314   0.89819   0.34157   0.00000  Uiso   1.00
C1659  C     0.89788   0.83428   0.34207   0.00000  Uiso   1.00
C1660  C     0.61569   0.67892   0.66261   0.00000  Uiso   1.00
C1661  C     0.81337   0.62379   0.33349   0.00000  Uiso   1.00
C1662  C     0.50080   0.74938   0.60206   0.00000  Uiso   1.00
C1663  C     0.67263   0.89205   0.65981   0.00000  Uiso   1.00
C1664  C     0.61788   0.68320   0.33569   0.00000  Uiso   1.00
C1665  C     0.87523   0.81376   0.66699   0.00000  Uiso   1.00
C1666  C     0.67275   0.89252   0.34008   0.00000  Uiso   1.00
C1667  C     0.82985   0.60577   0.65930   0.00000  Uiso   1.00
C1668  C     0.51896   0.83022   0.38752   0.00000  Uiso   1.00
C1669  C     0.98642   0.66679   0.61052   0.00000  Uiso   1.00
C1670  C     0.68025   0.54457   0.37840   0.00000  Uiso   1.00
C1671  C     0.83096   0.50994   0.61685   0.00000  Uiso   1.00
C1672  C     0.91615   0.72320   0.40171   0.00000  Uiso   1.00
C1673  C     0.74878   0.50048   0.39800   0.00000  Uiso   1.00
C1674  C     0.51808   0.83226   0.60647   0.00000  Uiso   1.00
C1675  C     0.83228   0.51624   0.39195   0.00000  Uiso   1.00
C1676  C     0.66909   0.98892   0.61978   0.00000  Uiso   1.00
C1677  C     0.70156   0.57060   0.89682   0.00000  Uiso   1.00
C1678  C     0.72488   0.91965   0.10675   0.00000  Uiso   1.00
C1679  C     0.97235   0.83354   0.90212   0.00000  Uiso   1.00
C1680  C     0.58203   0.73098   0.10681   0.00000  Uiso   1.00
C1681  C     0.73002   0.92047   0.88204   0.00000  Uiso   1.00
C1682  C     0.71246   0.57318   0.11954   0.00000  Uiso   1.00
C1683  C     0.58023   0.73039   0.88659   0.00000  Uiso   1.00
C1684  C     0.98120   0.72239   0.58223   0.00000  Uiso   1.00
C1685  C     0.74984   0.99958   0.60216   0.00000  Uiso   1.00
C1686  C     0.91675   0.76263   0.11104   0.00000  Uiso   1.00
C1687  C     0.75009   0.99940   0.89802   0.00000  Uiso   1.00
C1688  C     0.75051   0.50090   0.10201   0.00000  Uiso   1.00
C1689  C     0.50076   0.75057   0.89831   0.00000  Uiso   1.00
C1690  C     0.99944   0.74912   0.10209   0.00000  Uiso   1.00
C1691  C     0.95961   0.69697   0.47988   0.00000  Uiso   1.00
C1692  C     0.54990   0.79511   0.52071   0.00000  Uiso   1.00
C1693  C     0.81094   0.97489   0.47871   0.00000  Uiso   1.00
C1694  C     0.68524   0.51909   0.52123   0.00000  Uiso   1.00
C1695  C     0.54817   0.79731   0.47997   0.00000  Uiso   1.00
C1696  C     0.71673   0.50975   0.41832   0.00000  Uiso   1.00
C1697  C     0.95803   0.69801   0.52043   0.00000  Uiso   1.00
C1698  C     0.68639   0.52287   0.48064   0.00000  Uiso   1.00
C1699  C     0.81250   0.97735   0.51939   0.00000  Uiso   1.00
C1700  C     0.76488   0.93432   0.98006   0.00000  Uiso   1.00
C1701  C     0.74559   0.56720   0.01982   0.00000  Uiso   1.00
C1702  C     0.54752   0.70193   0.97959   0.00000  Uiso   1.00
C1703  C     0.94780   0.79138   0.02088   0.00000  Uiso   1.00
C1704  C     0.74931   0.56679   0.97926   0.00000  Uiso   1.00
C1705  C     0.76821   0.93569   0.02069   0.00000  Uiso   1.00
C1706  C     0.94676   0.78974   0.98034   0.00000  Uiso   1.00
C1707  C     0.78165   0.98976   0.58188   0.00000  Uiso   1.00
C1708  C     0.54533   0.70018   0.02036   0.00000  Uiso   1.00
C1709  C     0.74917   0.50008   0.35575   0.00000  Uiso   1.00
C1710  C     0.75014   0.99990   0.64430   0.00000  Uiso   1.00
C1711  C     0.99984   0.74986   0.35587   0.00000  Uiso   1.00
C1712  C     0.50014   0.75009   0.64426   0.00000  Uiso   1.00
C1713  C     0.99989   0.75015   0.85587   0.00000  Uiso   1.00
C1714  C     0.50009   0.74985   0.14427   0.00000  Uiso   1.00
C1715  C     0.74999   0.99984   0.85577   0.00000  Uiso   1.00
C1716  C     0.75012   0.50049   0.14425   0.00000  Uiso   1.00
C1717  C     0.68008   0.57021   0.24992   0.00000  Uiso   1.00
C1718  C     0.97597   0.72716   0.41860   0.00000  Uiso   1.00
C1719  C     0.81998   0.92995   0.74987   0.00000  Uiso   1.00
C1720  C     0.92962   0.68021   0.24969   0.00000  Uiso   1.00
C1721  C     0.57006   0.82002   0.74999   0.00000  Uiso   1.00
C1722  C     0.82005   0.93001   0.24997   0.00000  Uiso   1.00
C1723  C     0.67973   0.56982   0.74986   0.00000  Uiso   1.00
C1724  C     0.57002   0.81998   0.25002   0.00000  Uiso   1.00
C1725  C     0.92996   0.68003   0.75002   0.00000  Uiso   1.00
C1726  C     0.67996   0.92996   0.75002   0.00000  Uiso   1.00
C1727  C     0.82004   0.57000   0.24992   0.00000  Uiso   1.00
C1728  C     0.93027   0.82041   0.74970   0.00000  Uiso   1.00
C1729  C     0.52231   0.77480   0.58208   0.00000  Uiso   1.00
C1730  C     0.57000   0.67998   0.24992   0.00000  Uiso   1.00
C1731  C     0.81997   0.57002   0.75003   0.00000  Uiso   1.00
C1732  C     0.67994   0.93005   0.25001   0.00000  Uiso   1.00
C1733  C     0.57001   0.67996   0.74988   0.00000  Uiso   1.00
C1734  C     0.92998   0.82005   0.25008   0.00000  Uiso   1.00
C1735  C     0.63981   0.88713   0.21440   0.00000  Uiso   1.00
C1736  C     0.85777   0.61516   0.78532   0.00000  Uiso   1.00
C1737  C     0.60901   0.63593   0.21430   0.00000  Uiso   1.00
C1738  C     0.89470   0.86857   0.78392   0.00000  Uiso   1.00
C1739  C     0.86597   0.60683   0.21447   0.00000  Uiso   1.00
C1740  C     0.78083   0.99140   0.41763   0.00000  Uiso   1.00
C1741  C     0.64072   0.88630   0.78550   0.00000  Uiso   1.00
C1742  C     0.88420   0.85694   0.21511   0.00000  Uiso   1.00
C1743  C     0.60960   0.63699   0.78527   0.00000  Uiso   1.00
C1744  C     0.63560   0.60907   0.78522   0.00000  Uiso   1.00
C1745  C     0.85690   0.88371   0.21511   0.00000  Uiso   1.00
C1746  C     0.61394   0.85900   0.78544   0.00000  Uiso   1.00
C1747  C     0.89322   0.63361   0.21452   0.00000  Uiso   1.00
C1748  C     0.86576   0.89332   0.78449   0.00000  Uiso   1.00
C1749  C     0.63557   0.60851   0.21442   0.00000  Uiso   1.00
C1750  C     0.88491   0.64213   0.78534   0.00000  Uiso   1.00
C1751  C     0.71753   0.50855   0.58277   0.00000  Uiso   1.00
C1752  C     0.61335   0.85951   0.21448   0.00000  Uiso   1.00
C1753  C     0.89159   0.63542   0.71471   0.00000  Uiso   1.00
C1754  C     0.60968   0.86329   0.28562   0.00000  Uiso   1.00
C1755  C     0.85778   0.88462   0.71423   0.00000  Uiso   1.00
C1756  C     0.64226   0.61588   0.28503   0.00000  Uiso   1.00
C1757  C     0.60938   0.86361   0.71449   0.00000  Uiso   1.00
C1758  C     0.88094   0.64545   0.28373   0.00000  Uiso   1.00
C1759  C     0.63908   0.61177   0.71402   0.00000  Uiso   1.00
C1760  C     0.86620   0.89356   0.28489   0.00000  Uiso   1.00
C1761  C     0.89314   0.86643   0.28501   0.00000  Uiso   1.00
C1762  C     0.74583   0.53240   0.91801   0.00000  Uiso   1.00
C1763  C     0.61220   0.63894   0.71399   0.00000  Uiso   1.00
C1764  C     0.85605   0.61663   0.28438   0.00000  Uiso   1.00
C1765  C     0.63632   0.89076   0.71453   0.00000  Uiso   1.00
C1766  C     0.61417   0.64168   0.28520   0.00000  Uiso   1.00
C1767  C     0.88468   0.85750   0.71430   0.00000  Uiso   1.00
C1768  C     0.63651   0.89057   0.28558   0.00000  Uiso   1.00
C1769  C     0.86469   0.60823   0.71474   0.00000  Uiso   1.00
C1770  C     0.97909   0.72408   0.45927   0.00000  Uiso   1.00
C1771  C     0.52511   0.77279   0.54129   0.00000  Uiso   1.00
C1772  C     0.78050   0.98863   0.45851   0.00000  Uiso   1.00
H1773  H     0.98829   0.64657   0.43825   0.00000  Uiso   1.00
H1774  H     0.60467   0.50376   0.55597   0.00000  Uiso   1.00
H1775  H     0.63901   0.82138   0.32876   0.00000  Uiso   1.00
H1776  H     0.59523   0.80204   0.34103   0.00000  Uiso   1.00
H1777  H     0.61419   0.83668   0.37119   0.00000  Uiso   1.00
H1778  H     0.79177   0.89669   0.65954   0.00000  Uiso   1.00
H1779  H     0.80332   0.85750   0.68830   0.00000  Uiso   1.00
H1780  H     0.82086   0.86294   0.63925   0.00000  Uiso   1.00
H1781  H     0.68908   0.65313   0.31346   0.00000  Uiso   1.00
H1782  H     0.71210   0.61276   0.33022   0.00000  Uiso   1.00
H1783  H     0.68191   0.63605   0.36205   0.00000  Uiso   1.00
H1784  H     0.59354   0.80301   0.65791   0.00000  Uiso   1.00
H1785  H     0.63873   0.97231   0.53915   0.00000  Uiso   1.00
H1786  H     0.63764   0.82107   0.67071   0.00000  Uiso   1.00
H1787  H     0.61359   0.83768   0.62868   0.00000  Uiso   1.00
H1788  H     0.84536   0.69929   0.29238   0.00000  Uiso   1.00
H1789  H     0.87902   0.72116   0.32238   0.00000  Uiso   1.00
H1790  H     0.84487   0.69383   0.34448   0.00000  Uiso   1.00
H1791  H     0.70222   0.59724   0.65807   0.00000  Uiso   1.00
H1792  H     0.68682   0.64042   0.67728   0.00000  Uiso   1.00
H1793  H     0.66966   0.62288   0.63162   0.00000  Uiso   1.00
H1794  H     0.81759   0.87552   0.32747   0.00000  Uiso   1.00
H1795  H     0.81316   0.91943   0.35031   0.00000  Uiso   1.00
H1796  H     0.61514   0.50208   0.50519   0.00000  Uiso   1.00
H1797  H     0.84585   0.88786   0.36855   0.00000  Uiso   1.00
H1798  H     0.91672   0.81073   0.34434   0.00000  Uiso   1.00
H1799  H     0.87071   0.82404   0.33222   0.00000  Uiso   1.00
H1800  H     0.89468   0.84562   0.37184   0.00000  Uiso   1.00
H1801  H     0.63727   0.69108   0.68152   0.00000  Uiso   1.00
H1802  H     0.59597   0.70083   0.65544   0.00000  Uiso   1.00
H1803  H     0.62818   0.67012   0.63474   0.00000  Uiso   1.00
H1804  H     0.79111   0.60469   0.34163   0.00000  Uiso   1.00
H1805  H     0.80195   0.64359   0.31217   0.00000  Uiso   1.00
H1806  H     0.82131   0.63831   0.36051   0.00000  Uiso   1.00
H1807  H     0.53475   0.86216   0.47104   0.00000  Uiso   1.00
H1808  H     0.68666   0.86968   0.67585   0.00000  Uiso   1.00
H1809  H     0.69359   0.91268   0.65211   0.00000  Uiso   1.00
H1810  H     0.66179   0.88104   0.63209   0.00000  Uiso   1.00
H1811  H     0.59768   0.70412   0.34478   0.00000  Uiso   1.00
H1812  H     0.63735   0.69649   0.31507   0.00000  Uiso   1.00
H1813  H     0.63253   0.67495   0.36234   0.00000  Uiso   1.00
H1814  H     0.85144   0.80755   0.68626   0.00000  Uiso   1.00
H1815  H     0.89224   0.78883   0.66466   0.00000  Uiso   1.00
H1816  H     0.86514   0.81928   0.63725   0.00000  Uiso   1.00
H1817  H     0.69275   0.91374   0.34886   0.00000  Uiso   1.00
H1818  H     0.57418   0.87297   0.44236   0.00000  Uiso   1.00
H1819  H     0.68788   0.87115   0.32333   0.00000  Uiso   1.00
H1820  H     0.66184   0.88040   0.36722   0.00000  Uiso   1.00
H1821  H     0.81597   0.62903   0.67430   0.00000  Uiso   1.00
H1822  H     0.80863   0.58523   0.65214   0.00000  Uiso   1.00
H1823  H     0.84137   0.61547   0.63133   0.00000  Uiso   1.00
H1824  H     0.50247   0.84002   0.41277   0.00000  Uiso   1.00
H1825  H     0.50062   0.82283   0.36308   0.00000  Uiso   1.00
H1826  H     0.53617   0.85336   0.37772   0.00000  Uiso   1.00
H1827  H     0.50950   0.67526   0.62946   0.00000  Uiso   1.00
H1828  H     0.99703   0.65467   0.58297   0.00000  Uiso   1.00
H1829  H     0.57954   0.86667   0.49346   0.00000  Uiso   1.00
H1830  H     0.97106   0.64515   0.62604   0.00000  Uiso   1.00
H1831  H     0.68214   0.53913   0.34670   0.00000  Uiso   1.00
H1832  H     0.70044   0.56598   0.38684   0.00000  Uiso   1.00
H1833  H     0.65258   0.55576   0.38387   0.00000  Uiso   1.00
H1834  H     0.82102   0.51701   0.64643   0.00000  Uiso   1.00
H1835  H     0.82907   0.53421   0.59749   0.00000  Uiso   1.00
H1836  H     0.86030   0.50305   0.61964   0.00000  Uiso   1.00
H1837  H     0.91447   0.74786   0.38314   0.00000  Uiso   1.00
H1838  H     0.90901   0.73069   0.43223   0.00000  Uiso   1.00
H1839  H     0.89518   0.70347   0.39193   0.00000  Uiso   1.00
H1840  H     0.89970   0.71354   0.55872   0.00000  Uiso   1.00
H1841  H     0.99287   0.82590   0.62331   0.00000  Uiso   1.00
H1842  H     0.51088   0.84356   0.57749   0.00000  Uiso   1.00
H1843  H     0.53311   0.85378   0.62260   0.00000  Uiso   1.00
H1844  H     0.84091   0.52737   0.42066   0.00000  Uiso   1.00
H1845  H     0.81670   0.53723   0.37566   0.00000  Uiso   1.00
H1846  H     0.85734   0.51008   0.37498   0.00000  Uiso   1.00
H1847  H     0.67912   0.98318   0.64952   0.00000  Uiso   1.00
H1848  H     0.67141   0.96391   0.60133   0.00000  Uiso   1.00
H1849  H     0.63963   0.99542   0.62253   0.00000  Uiso   1.00
H1850  H     0.69093   0.57617   0.92661   0.00000  Uiso   1.00
H1851  H     0.88221   0.66784   0.55628   0.00000  Uiso   1.00
H1852  H     0.68627   0.54744   0.88375   0.00000  Uiso   1.00
H1853  H     0.69636   0.59522   0.87906   0.00000  Uiso   1.00
H1854  H     0.71392   0.91153   0.07784   0.00000  Uiso   1.00
H1855  H     0.70522   0.93793   0.12186   0.00000  Uiso   1.00
H1856  H     0.72756   0.89456   0.12446   0.00000  Uiso   1.00
H1857  H     0.99664   0.83585   0.88290   0.00000  Uiso   1.00
H1858  H     0.98027   0.84053   0.93250   0.00000  Uiso   1.00
H1859  H     0.95211   0.85422   0.89314   0.00000  Uiso   1.00
H1860  H     0.57570   0.75613   0.12379   0.00000  Uiso   1.00
H1861  H     0.59388   0.73829   0.07800   0.00000  Uiso   1.00
H1862  H     0.88865   0.69254   0.51195   0.00000  Uiso   1.00
H1863  H     0.60308   0.71562   0.12304   0.00000  Uiso   1.00
H1864  H     0.72555   0.93023   0.85197   0.00000  Uiso   1.00
H1865  H     0.70566   0.92668   0.90047   0.00000  Uiso   1.00
H1866  H     0.73249   0.89034   0.88033   0.00000  Uiso   1.00
H1867  H     0.71345   0.56755   0.15116   0.00000  Uiso   1.00
H1868  H     0.68974   0.55743   0.10588   0.00000  Uiso   1.00
H1869  H     0.70594   0.60257   0.11658   0.00000  Uiso   1.00
H1870  H     0.59080   0.74619   0.91191   0.00000  Uiso   1.00
H1871  H     0.57276   0.74934   0.86280   0.00000  Uiso   1.00
H1872  H     0.60282   0.71296   0.87569   0.00000  Uiso   1.00
H1873  H     0.63618   0.58860   0.44862   0.00000  Uiso   1.00
H1874  H     0.92535   0.73972   0.13003   0.00000  Uiso   1.00
H1875  H     0.90491   0.75178   0.08353   0.00000  Uiso   1.00
H1876  H     0.89484   0.77772   0.12653   0.00000  Uiso   1.00
H1877  H     0.94871   0.61779   0.44006   0.00000  Uiso   1.00
H1878  H     0.68466   0.58761   0.45550   0.00000  Uiso   1.00
H1879  H     0.65360   0.58473   0.49697   0.00000  Uiso   1.00
H1880  H     0.89358   0.98614   0.55445   0.00000  Uiso   1.00
H1881  H     0.86265   0.51992   0.53656   0.00000  Uiso   1.00
H1882  H     0.88483   0.98788   0.50345   0.00000  Uiso   1.00
H1883  H     0.74327   0.85511   0.94571   0.00000  Uiso   1.00
H1884  H     0.71463   0.89179   0.96196   0.00000  Uiso   1.00
H1885  H     0.74182   0.86587   0.99641   0.00000  Uiso   1.00
H1886  H     0.70105   0.63716   0.05228   0.00000  Uiso   1.00
H1887  H     0.68481   0.59222   0.04085   0.00000  Uiso   1.00
H1888  H     0.97212   0.62807   0.48450   0.00000  Uiso   1.00
H1889  H     0.70129   0.62246   0.00268   0.00000  Uiso   1.00
H1890  H     0.61253   0.71523   0.97133   0.00000  Uiso   1.00
H1891  H     0.62333   0.67658   0.94142   0.00000  Uiso   1.00
H1892  H     0.61688   0.66986   0.99235   0.00000  Uiso   1.00
H1893  H     0.96235   0.85027   0.05878   0.00000  Uiso   1.00
H1894  H     0.91634   0.86684   0.05642   0.00000  Uiso   1.00
H1895  H     0.94129   0.86053   0.01204   0.00000  Uiso   1.00
H1896  H     0.79132   0.63527   0.94070   0.00000  Uiso   1.00
H1897  H     0.80444   0.58817   0.93935   0.00000  Uiso   1.00
H1898  H     0.80185   0.61288   0.98557   0.00000  Uiso   1.00
H1899  H     0.60241   0.76889   0.56116   0.00000  Uiso   1.00
H1900  H     0.82720   0.88114   0.05876   0.00000  Uiso   1.00
H1901  H     0.82752   0.93005   0.05925   0.00000  Uiso   1.00
H1902  H     0.83099   0.90487   0.01339   0.00000  Uiso   1.00
H1903  H     0.89652   0.76040   0.93930   0.00000  Uiso   1.00
H1904  H     0.86739   0.79966   0.94133   0.00000  Uiso   1.00
H1905  H     0.87796   0.77647   0.98571   0.00000  Uiso   1.00
H1906  H     0.51933   0.64738   0.06066   0.00000  Uiso   1.00
H1907  H     0.56083   0.62154   0.05898   0.00000  Uiso   1.00
H1908  H     0.53750   0.63069   0.01433   0.00000  Uiso   1.00
H1909  H     0.65059   0.95005   0.16098   0.00000  Uiso   1.00
H1910  H     0.62879   0.81009   0.55924   0.00000  Uiso   1.00
H1911  H     0.60789   0.92807   0.17228   0.00000  Uiso   1.00
H1912  H     0.63341   0.91560   0.12936   0.00000  Uiso   1.00
H1913  H     0.87692   0.56624   0.82648   0.00000  Uiso   1.00
H1914  H     0.83285   0.56056   0.84886   0.00000  Uiso   1.00
H1915  H     0.86405   0.59285   0.86884   0.00000  Uiso   1.00
H1916  H     0.54537   0.65064   0.15728   0.00000  Uiso   1.00
H1917  H     0.55565   0.61017   0.18443   0.00000  Uiso   1.00
H1918  H     0.57523   0.61774   0.13657   0.00000  Uiso   1.00
H1919  H     0.94825   0.90432   0.79387   0.00000  Uiso   1.00
H1920  H     0.96967   0.87025   0.82343   0.00000  Uiso   1.00
H1921  H     0.61916   0.78642   0.51471   0.00000  Uiso   1.00
H1922  H     0.94194   0.90395   0.84588   0.00000  Uiso   1.00
H1923  H     0.85724   0.53856   0.16384   0.00000  Uiso   1.00
H1924  H     0.89790   0.55572   0.18687   0.00000  Uiso   1.00
H1925  H     0.88607   0.56866   0.13771   0.00000  Uiso   1.00
H1926  H     0.61208   0.92840   0.82946   0.00000  Uiso   1.00
H1927  H     0.65609   0.94691   0.84222   0.00000  Uiso   1.00
H1928  H     0.63640   0.91202   0.87140   0.00000  Uiso   1.00
H1929  H     0.94272   0.84002   0.15791   0.00000  Uiso   1.00
H1930  H     0.92217   0.88405   0.16618   0.00000  Uiso   1.00
H1931  H     0.90637   0.85487   0.12754   0.00000  Uiso   1.00
H1932  H     0.85717   0.90898   0.44010   0.00000  Uiso   1.00
H1933  H     0.55686   0.61273   0.81788   0.00000  Uiso   1.00
H1934  H     0.54749   0.65407   0.84401   0.00000  Uiso   1.00
H1935  H     0.57786   0.62182   0.86470   0.00000  Uiso   1.00
H1936  H     0.64072   0.54097   0.83342   0.00000  Uiso   1.00
H1937  H     0.59993   0.56268   0.81625   0.00000  Uiso   1.00
H1938  H     0.61758   0.57244   0.86412   0.00000  Uiso   1.00
H1939  H     0.87219   0.93296   0.17214   0.00000  Uiso   1.00
H1940  H     0.82807   0.93474   0.14965   0.00000  Uiso   1.00
H1941  H     0.86132   0.90351   0.13133   0.00000  Uiso   1.00
H1942  H     0.55842   0.83456   0.84908   0.00000  Uiso   1.00
H1943  H     0.80866   0.91543   0.43905   0.00000  Uiso   1.00
H1944  H     0.56265   0.87751   0.82443   0.00000  Uiso   1.00
H1945  H     0.58907   0.86806   0.86768   0.00000  Uiso   1.00
H1946  H     0.94804   0.60425   0.19242   0.00000  Uiso   1.00
H1947  H     0.96224   0.64220   0.16296   0.00000  Uiso   1.00
H1948  H     0.93349   0.60848   0.14230   0.00000  Uiso   1.00
H1949  H     0.85250   0.95702   0.84311   0.00000  Uiso   1.00
H1950  H     0.89199   0.94695   0.81394   0.00000  Uiso   1.00
H1951  H     0.88573   0.92642   0.86165   0.00000  Uiso   1.00
H1952  H     0.60183   0.56000   0.18434   0.00000  Uiso   1.00
H1953  H     0.64296   0.54048   0.16439   0.00000  Uiso   1.00
H1954  H     0.83233   0.90851   0.48512   0.00000  Uiso   1.00
H1955  H     0.61753   0.57161   0.13602   0.00000  Uiso   1.00
H1956  H     0.94257   0.66252   0.84440   0.00000  Uiso   1.00
H1957  H     0.92786   0.61737   0.83032   0.00000  Uiso   1.00
H1958  H     0.90751   0.64041   0.87149   0.00000  Uiso   1.00
H1959  H     0.56150   0.87745   0.17646   0.00000  Uiso   1.00
H1960  H     0.55795   0.83483   0.15077   0.00000  Uiso   1.00
H1961  H     0.58818   0.86898   0.13280   0.00000  Uiso   1.00
H1962  H     0.90922   0.69470   0.65736   0.00000  Uiso   1.00
H1963  H     0.86471   0.67756   0.67020   0.00000  Uiso   1.00
H1964  H     0.88905   0.65958   0.62868   0.00000  Uiso   1.00
O1965  O     0.75000   0.50000   0.25000   0.00000  Uiso   1.00
O1966  O     0.75000   0.96964   0.66245   0.00000  Uiso   1.00
O1967  O     0.85770   0.58863   0.68101   0.00000  Uiso   1.00
O1968  O     0.54203   0.80078   0.39732   0.00000  Uiso   1.00
O1969  O     0.96252   0.69616   0.60331   0.00000  Uiso   1.00
O1970  O     0.68368   0.51135   0.39876   0.00000  Uiso   1.00
O1971  O     0.81231   0.97893   0.60241   0.00000  Uiso   1.00
O1972  O     0.95079   0.70647   0.39817   0.00000  Uiso   1.00
O1973  O     0.54082   0.80137   0.60292   0.00000  Uiso   1.00
O1974  O     0.81200   0.98372   0.39618   0.00000  Uiso   1.00
O1975  O     0.68724   0.51967   0.60410   0.00000  Uiso   1.00
O1976  O     0.73948   0.56388   0.89694   0.00000  Uiso   1.00
O1977  O     0.96963   0.75000   0.33755   0.00000  Uiso   1.00
O1978  O     0.75957   0.93611   0.10334   0.00000  Uiso   1.00
O1979  O     0.95613   0.79863   0.89857   0.00000  Uiso   1.00
O1980  O     0.55093   0.70857   0.10271   0.00000  Uiso   1.00
O1981  O     0.76302   0.93481   0.89690   0.00000  Uiso   1.00
O1982  O     0.74718   0.56672   0.10280   0.00000  Uiso   1.00
O1983  O     0.55054   0.70765   0.89682   0.00000  Uiso   1.00
O1984  O     0.94595   0.78688   0.10373   0.00000  Uiso   1.00
O1985  O     0.53036   0.75000   0.66245   0.00000  Uiso   1.00
O1986  O     0.50000   0.71964   0.83755   0.00000  Uiso   1.00
O1987  O     0.50000   0.78037   0.16245   0.00000  Uiso   1.00
O1988  O     0.78036   0.50000   0.83755   0.00000  Uiso   1.00
O1989  O     0.71963   0.50000   0.16245   0.00000  Uiso   1.00
O1990  O     0.50000   0.78037   0.83755   0.00000  Uiso   1.00
O1991  O     0.50000   0.71964   0.16245   0.00000  Uiso   1.00
O1992  O     0.71963   0.50000   0.83755   0.00000  Uiso   1.00
O1993  O     0.75000   0.50000   0.75000   0.00000  Uiso   1.00
O1994  O     0.78036   0.50000   0.16245   0.00000  Uiso   1.00
O1995  O     0.70724   0.57308   0.27302   0.00000  Uiso   1.00
O1996  O     0.79275   0.92693   0.72698   0.00000  Uiso   1.00
O1997  O     0.92692   0.70725   0.27302   0.00000  Uiso   1.00
O1998  O     0.57307   0.79276   0.72698   0.00000  Uiso   1.00
O1999  O     0.79275   0.92693   0.27302   0.00000  Uiso   1.00
O2000  O     0.70724   0.57308   0.72698   0.00000  Uiso   1.00
O2001  O     0.57307   0.79276   0.27302   0.00000  Uiso   1.00
O2002  O     0.92692   0.70725   0.72698   0.00000  Uiso   1.00
O2003  O     0.70724   0.92693   0.72698   0.00000  Uiso   1.00
O2004  O     0.50000   0.75000   0.25000   0.00000  Uiso   1.00
O2005  O     0.79275   0.57308   0.27302   0.00000  Uiso   1.00
O2006  O     0.92692   0.79276   0.72698   0.00000  Uiso   1.00
O2007  O     0.57307   0.70725   0.27302   0.00000  Uiso   1.00
O2008  O     0.79275   0.57308   0.72698   0.00000  Uiso   1.00
O2009  O     0.70724   0.92693   0.27302   0.00000  Uiso   1.00
O2010  O     0.57307   0.70725   0.72698   0.00000  Uiso   1.00
O2011  O     0.92692   0.79276   0.27302   0.00000  Uiso   1.00
O2012  O     0.95724   0.82308   0.77302   0.00000  Uiso   1.00
O2013  O     0.54275   0.67693   0.22698   0.00000  Uiso   1.00
O2014  O     0.67692   0.95725   0.77302   0.00000  Uiso   1.00
O2015  O     0.50000   0.75000   0.75000   0.00000  Uiso   1.00
O2016  O     0.82307   0.54276   0.22698   0.00000  Uiso   1.00
O2017  O     0.54275   0.67693   0.77302   0.00000  Uiso   1.00
O2018  O     0.95724   0.82308   0.22698   0.00000  Uiso   1.00
O2019  O     0.82307   0.54276   0.77302   0.00000  Uiso   1.00
O2020  O     0.67692   0.95725   0.22698   0.00000  Uiso   1.00
O2021  O     0.95724   0.67693   0.22698   0.00000  Uiso   1.00
O2022  O     0.54275   0.82308   0.77302   0.00000  Uiso   1.00
O2023  O     0.67692   0.54276   0.22698   0.00000  Uiso   1.00
O2024  O     0.82307   0.95725   0.77302   0.00000  Uiso   1.00
O2025  O     0.54275   0.82308   0.22698   0.00000  Uiso   1.00
O2026  O     0.75000   0.96964   0.33755   0.00000  Uiso   1.00
O2027  O     0.95724   0.67693   0.77302   0.00000  Uiso   1.00
O2028  O     0.82307   0.95725   0.22698   0.00000  Uiso   1.00
O2029  O     0.67692   0.54276   0.77302   0.00000  Uiso   1.00
O2030  O     0.94049   0.66977   0.46071   0.00000  Uiso   1.00
O2031  O     0.57603   0.81535   0.54019   0.00000  Uiso   1.00
O2032  O     0.84001   0.95937   0.45890   0.00000  Uiso   1.00
O2033  O     0.65336   0.52787   0.54097   0.00000  Uiso   1.00
O2034  O     0.57261   0.81958   0.46022   0.00000  Uiso   1.00
O2035  O     0.93575   0.67318   0.53933   0.00000  Uiso   1.00
O2036  O     0.65672   0.53802   0.46188   0.00000  Uiso   1.00
O2037  O     0.75000   0.53037   0.66245   0.00000  Uiso   1.00
O2038  O     0.84368   0.96558   0.53827   0.00000  Uiso   1.00
O2039  O     0.77128   0.90159   0.96090   0.00000  Uiso   1.00
O2040  O     0.74155   0.60043   0.03870   0.00000  Uiso   1.00
O2041  O     0.56987   0.67762   0.95962   0.00000  Uiso   1.00
O2042  O     0.92268   0.81328   0.03998   0.00000  Uiso   1.00
O2043  O     0.75188   0.59973   0.95991   0.00000  Uiso   1.00
O2044  O     0.77961   0.90473   0.04006   0.00000  Uiso   1.00
O2045  O     0.91935   0.80849   0.96140   0.00000  Uiso   1.00
O2046  O     0.56575   0.67425   0.03967   0.00000  Uiso   1.00
O2047  O     0.65677   0.89677   0.17983   0.00000  Uiso   1.00
O2048  O     0.53036   0.75000   0.33755   0.00000  Uiso   1.00
O2049  O     0.83759   0.60879   0.81879   0.00000  Uiso   1.00
O2050  O     0.59764   0.65060   0.17922   0.00000  Uiso   1.00
O2051  O     0.91393   0.86230   0.81787   0.00000  Uiso   1.00
O2052  O     0.85342   0.59296   0.17935   0.00000  Uiso   1.00
O2053  O     0.65899   0.89460   0.81963   0.00000  Uiso   1.00
O2054  O     0.89086   0.83679   0.18169   0.00000  Uiso   1.00
O2055  O     0.59916   0.65308   0.82018   0.00000  Uiso   1.00
O2056  O     0.64828   0.59564   0.82026   0.00000  Uiso   1.00
O2057  O     0.83551   0.88848   0.18236   0.00000  Uiso   1.00
O2058  O     0.60686   0.83961   0.81919   0.00000  Uiso   1.00
O2059  O     0.96963   0.75000   0.66245   0.00000  Uiso   1.00
O2060  O     0.90812   0.64510   0.17946   0.00000  Uiso   1.00
O2061  O     0.85147   0.90525   0.81976   0.00000  Uiso   1.00
O2062  O     0.64866   0.59492   0.17937   0.00000  Uiso   1.00
O2063  O     0.89162   0.66196   0.81897   0.00000  Uiso   1.00
O2064  O     0.60625   0.84020   0.18056   0.00000  Uiso   1.00
O2065  O     0.91070   0.64287   0.68080   0.00000  Uiso   1.00
O2066  O     0.59172   0.85470   0.31994   0.00000  Uiso   1.00
O2067  O     0.84487   0.89778   0.67908   0.00000  Uiso   1.00
O2068  O     0.65690   0.60455   0.32005   0.00000  Uiso   1.00
O2069  O     0.59107   0.85537   0.68037   0.00000  Uiso   1.00
O2070  O     0.75000   0.53037   0.33755   0.00000  Uiso   1.00
O2071  O     0.88686   0.66534   0.31749   0.00000  Uiso   1.00
O2072  O     0.64946   0.59539   0.67927   0.00000  Uiso   1.00
O2073  O     0.86025   0.91453   0.31792   0.00000  Uiso   1.00
O2074  O     0.91398   0.86119   0.31806   0.00000  Uiso   1.00
O2075  O     0.59636   0.64930   0.67918   0.00000  Uiso   1.00
O2076  O     0.84346   0.60327   0.31972   0.00000  Uiso   1.00
O2077  O     0.64412   0.90954   0.68057   0.00000  Uiso   1.00
O2078  O     0.59887   0.65279   0.32029   0.00000  Uiso   1.00
O2079  O     0.89730   0.84339   0.67925   0.00000  Uiso   1.00
O2080  O     0.64405   0.90954   0.31959   0.00000  Uiso   1.00
Zn2081 Zn    0.70659   0.50000   0.21735   0.00000  Uiso   1.00
Zn2082 Zn    0.54340   0.75000   0.28265   0.00000  Uiso   1.00
Zn2083 Zn    0.75000   0.95660   0.71735   0.00000  Uiso   1.00
Zn2084 Zn    0.75000   0.54341   0.28265   0.00000  Uiso   1.00
Zn2085 Zn    0.54340   0.75000   0.71735   0.00000  Uiso   1.00
Zn2086 Zn    0.95659   0.75000   0.28265   0.00000  Uiso   1.00
Zn2087 Zn    0.75000   0.54341   0.71735   0.00000  Uiso   1.00
Zn2088 Zn    0.75000   0.95660   0.28265   0.00000  Uiso   1.00
Zn2089 Zn    0.79340   0.50000   0.78265   0.00000  Uiso   1.00
Zn2090 Zn    0.50000   0.70660   0.21735   0.00000  Uiso   1.00
Zn2091 Zn    0.50000   0.79341   0.78265   0.00000  Uiso   1.00
Zn2092 Zn    0.79340   0.50000   0.21735   0.00000  Uiso   1.00
Zn2093 Zn    0.70659   0.50000   0.78265   0.00000  Uiso   1.00
Zn2094 Zn    0.50000   0.79341   0.21735   0.00000  Uiso   1.00
Zn2095 Zn    0.50000   0.70660   0.78265   0.00000  Uiso   1.00
Zn2096 Zn    0.95659   0.75000   0.71735   0.00000  Uiso   1.00
loop_
_geom_bond_atom_site_label_1
_geom_bond_atom_site_label_2
_geom_bond_distance
_geom_bond_site_symmetry_2
_ccdc_geom_bond_type
C1     O396    1.386   .     S
C1     C4      1.412   .     A
C1     C603    1.404   1_455 S
C2     C14     1.409   .     A
C2     O406    1.386   .     S
C2     C1164   1.399   .     S
C3     C179    1.411   .     A
C3     C122    1.415   .     A
C3     C1086   1.423   1_545 S
C4     C34     1.422   .     A
C4     C123    1.416   .     A
C5     C112    1.408   .     A
C5     C125    1.412   .     A
C5     C560    1.422   .     S
C6     C126    1.412   .     A
C6     C124    1.412   .     A
C6     C1085   1.420   1_545 S
C7     C127    1.417   .     A
C7     C135    1.412   .     A
C7     C38     1.424   .     A
C8     C35     1.415   .     A
C8     C128    1.416   .     A
C8     C1087   1.423   .     S
C9     C46     1.413   .     A
C9     C40     1.424   .     A
C9     C129    1.416   .     A
C10    C130    1.417   .     A
C10    C57     1.413   .     A
C10    C565    1.422   1_455 S
C11    C68     1.408   .     A
C11    C42     1.422   .     A
C11    C131    1.412   .     A
C12    C132    1.411   .     A
C12    C190    1.409   .     A
C12    C39     1.417   .     A
C13    C15     1.408   .     A
C13    O407    1.385   .     S
C13    C641    1.401   .     S
C14    C133    1.412   .     A
C14    C1088   1.417   .     S
C15    C41     1.418   .     A
C15    C134    1.413   .     A
C16    C136    1.412   .     A
C16    C24     1.408   .     A
C16    C566    1.417   1_455 S
C17    C182    1.409   .     A
C17    C152    1.454   .     S
C17    C180    1.408   .     A
C18    C181    1.408   .     A
C18    C178    1.408   .     A
C18    C153    1.454   .     S
C19    C177    1.412   .     A
C19    C184    1.412   .     A
C19    C145    1.458   .     S
C20    C147    1.453   .     S
C20    C183    1.412   .     A
C20    C176    1.406   .     A
C21    C186    1.414   .     A
C21    C175    1.412   .     A
C21    C148    1.457   .     S
C22    C149    1.453   .     S
C22    C174    1.408   .     A
C22    C185    1.408   .     A
C23    C188    1.408   .     A
C23    C150    1.455   .     S
C23    C173    1.407   .     A
C24    O408    1.385   .     S
C24    C642    1.400   1_455 S
C25    C187    1.410   .     A
C25    C151    1.457   .     S
C25    C172    1.410   .     A
C26    C191    1.410   .     A
C26    C161    1.455   .     S
C26    C171    1.408   .     A
C27    C162    1.456   .     S
C27    C170    1.409   .     A
C27    C189    1.408   .     A
C28    C169    1.408   .     A
C28    C154    1.453   .     S
C28    C193    1.408   .     A
C29    C155    1.450   .     S
C29    C167    1.411   .     A
C29    C192    1.406   .     A
C30    C156    1.459   .     S
C30    C195    1.411   .     A
C30    C166    1.414   .     A
C31    C165    1.409   .     A
C31    C158    1.453   .     S
C31    C194    1.408   .     A
C32    C197    1.408   .     A
C32    C159    1.454   .     S
C32    C164    1.408   .     A
C33    C196    1.408   .     A
C33    C160    1.454   .     S
C33    C163    1.409   .     A
C34    C36     1.411   .     A
C34    C722    1.417   1_455 S
C35    C115    1.405   .     A
C35    O409    1.388   .     S
C36    C199    1.416   .     A
C36    C529    1.422   1_455 S
C37    C200    1.418   .     A
C37    C38     1.416   .     A
C37    C1054   1.420   .     S
C38    C1051   1.423   .     S
C39    C1056   1.423   1_545 S
C39    C40     1.415   1_556 S
C40    C1062   1.417   1_545 S
C40    C39     1.415   1_554 S
C41    C534    1.422   .     S
C41    C42     1.411   1_556 S
C42    C540    1.417   .     S
C42    C41     1.411   1_554 S
C43    O458    1.410   .     S
C43    H201    1.114   .     S
C43    H316    1.113   .     S
C43    H305    1.109   .     S
C44    H327    1.113   .     S
C44    H349    1.113   .     S
C44    O459    1.410   .     S
C44    H338    1.109   .     S
C45    O460    1.410   .     S
C45    H371    1.113   .     S
C45    H360    1.109   .     S
C45    H382    1.113   .     S
C46    O410    1.388   .     S
C46    C116    1.405   .     A
C47    H224    1.110   .     S
C47    H202    1.109   .     S
C47    O461    1.413   .     S
C47    H1261   1.114   1_545 S
C48    H246    1.109   .     S
C48    H235    1.115   .     S
C48    H257    1.109   .     S
C48    O462    1.414   .     S
C49    H290    1.113   .     S
C49    H268    1.113   .     S
C49    O463    1.411   .     S
C49    H279    1.109   .     S
C50    H307    1.111   .     S
C50    H301    1.109   .     S
C50    H306    1.114   .     S
C50    O464    1.412   .     S
C51    O466    1.414   .     S
C51    H310    1.110   .     S
C51    H308    1.109   .     S
C51    H1357   1.114   .     S
C52    O467    1.413   .     S
C52    H312    1.114   .     S
C52    H313    1.110   .     S
C52    H311    1.109   .     S
C53    H315    1.114   .     S
C53    H314    1.109   .     S
C53    H317    1.110   .     S
C53    O468    1.414   .     S
C54    H320    1.109   .     S
C54    H318    1.115   .     S
C54    O469    1.414   .     S
C54    H319    1.109   .     S
C55    H323    1.113   .     S
C55    O470    1.411   .     S
C55    H321    1.113   .     S
C55    H322    1.109   .     S
C56    H325    1.114   .     S
C56    H326    1.113   .     S
C56    O471    1.410   .     S
C56    H324    1.109   .     S
C57    O411    1.386   .     S
C57    C117    1.405   .     A
C58    H328    1.109   .     S
C58    H329    1.114   .     S
C58    O472    1.410   .     S
C58    H330    1.113   .     S
C59    H333    1.113   .     S
C59    H332    1.109   .     S
C59    H331    1.114   .     S
C59    O473    1.410   .     S
C60    H335    1.109   .     S
C60    O474    1.410   .     S
C60    H336    1.113   .     S
C60    H334    1.113   .     S
C61    O475    1.417   .     S
C61    H340    1.109   .     S
C61    H339    1.116   .     S
C61    H337    1.108   .     S
C62    H342    1.110   .     S
C62    H343    1.108   .     S
C62    H341    1.117   .     S
C62    O477    1.415   .     S
C63    H345    1.116   .     S
C63    H344    1.109   .     S
C63    H346    1.107   .     S
C63    O478    1.416   .     S
C64    H348    1.109   .     S
C64    O479    1.421   .     S
C64    H350    1.107   .     S
C64    H347    1.117   .     S
C65    H351    1.109   .     S
C65    H353    1.108   .     S
C65    H352    1.116   .     S
C65    O480    1.416   .     S
C66    H355    1.109   .     S
C66    H354    1.116   .     S
C66    H356    1.109   .     S
C66    O481    1.416   .     S
C67    H358    1.116   .     S
C67    O482    1.415   .     S
C67    H359    1.108   .     S
C67    H357    1.108   .     S
C68    C118    1.398   .     A
C68    O412    1.384   .     S
C69    O483    1.415   .     S
C69    H362    1.108   .     S
C69    H361    1.116   .     S
C69    H363    1.108   .     S
C70    H365    1.116   .     S
C70    O484    1.418   .     S
C70    H366    1.108   .     S
C70    H364    1.108   .     S
C71    H368    1.110   .     S
C71    O485    1.415   .     S
C71    H369    1.109   .     S
C71    H367    1.117   .     S
C72    H370    1.109   .     S
C72    H373    1.108   .     S
C72    O486    1.415   .     S
C72    H372    1.117   .     S
C73    H376    1.107   .     S
C73    H374    1.117   .     S
C73    O488    1.417   .     S
C73    H375    1.110   .     S
C74    O489    1.414   .     S
C74    H378    1.116   .     S
C74    H379    1.108   .     S
C74    H377    1.110   .     S
C75    H380    1.116   .     S
C75    H383    1.108   .     S
C75    O490    1.417   .     S
C75    H381    1.109   .     S
C76    H384    1.109   .     S
C76    O491    1.415   .     S
C76    H385    1.117   .     S
C76    H386    1.109   .     S
C77    H389    1.108   .     S
C77    H388    1.110   .     S
C77    H387    1.116   .     S
C77    O492    1.415   .     S
C78    O493    1.416   .     S
C78    H392    1.108   .     S
C78    H390    1.108   .     S
C78    H391    1.116   .     S
C79    C139    1.459   .     S
C79    C146    1.401   .     A
C79    C525    1.404   .     S
C80    H203    1.116   .     S
C80    O494    1.416   .     S
C80    H204    1.108   .     S
C80    H205    1.109   .     S
C81    O495    1.416   .     S
C81    H207    1.117   .     S
C81    H206    1.110   .     S
C81    H208    1.107   .     S
C82    H209    1.116   .     S
C82    H210    1.108   .     S
C82    O496    1.418   .     S
C82    H211    1.108   .     S
C83    H214    1.116   .     S
C83    H212    1.108   .     S
C83    H215    1.109   .     S
C83    O497    1.416   .     S
C84    O499    1.421   .     S
C84    H218    1.107   .     S
C84    H217    1.109   .     S
C84    H216    1.117   .     S
C85    H220    1.116   .     S
C85    O500    1.415   .     S
C85    H219    1.109   .     S
C85    H221    1.108   .     S
C86    H223    1.109   .     S
C86    H225    1.108   .     S
C86    O501    1.415   .     S
C86    H222    1.117   .     S
C87    H228    1.109   .     S
C87    O502    1.415   .     S
C87    H226    1.109   .     S
C87    H227    1.117   .     S
C88    H230    1.110   .     S
C88    H229    1.117   .     S
C88    O503    1.416   .     S
C88    H231    1.107   .     S
C89    H233    1.116   .     S
C89    O504    1.414   .     S
C89    H232    1.110   .     S
C89    H234    1.108   .     S
C90    C140    1.451   .     S
C90    C157    1.400   .     A
C90    C636    1.398   1_455 S
C91    O505    1.415   .     S
C91    H238    1.108   .     S
C91    H237    1.109   .     S
C91    H236    1.117   .     S
C92    H239    1.110   .     S
C92    H241    1.107   .     S
C92    H240    1.116   .     S
C92    O506    1.415   .     S
C93    H242    1.116   .     S
C93    H244    1.108   .     S
C93    O507    1.416   .     S
C93    H243    1.109   .     S
C94    H247    1.117   .     S
C94    H245    1.110   .     S
C94    O508    1.415   .     S
C94    H248    1.108   .     S
C95    H250    1.109   .     S
C95    O395    1.415   .     S
C95    H249    1.117   .     S
C95    H251    1.108   .     S
C96    H254    1.109   .     S
C96    O396    1.414   .     S
C96    H252    1.114   .     S
C96    H253    1.110   .     S
C97    H256    1.113   .     S
C97    O397    1.412   .     S
C97    H258    1.109   .     S
C97    H779    1.112   .     S
C98    H259    1.109   .     S
C98    H260    1.116   .     S
C98    O398    1.413   .     S
C98    H261    1.109   .     S
C99    H263    1.115   .     S
C99    H262    1.109   .     S
C99    H264    1.109   .     S
C99    O1447   1.415   1_545 S
C100   H266    1.114   .     S
C100   H265    1.110   .     S
C100   O400    1.415   .     S
C100   H267    1.107   .     S
C101   C137    1.452   .     S
C101   C124    1.405   .     A
C101   C1216   1.398   1_545 S
C102   H271    1.109   .     S
C102   H270    1.113   .     S
C102   O401    1.411   .     S
C102   H793    1.113   1_455 S
C103   H274    1.109   .     S
C103   H273    1.113   .     S
C103   H272    1.113   .     S
C103   O1450   1.411   1_545 S
C104   H277    1.109   .     S
C104   H276    1.115   .     S
C104   H275    1.109   .     S
C104   O1451   1.415   .     S
C105   H281    1.108   .     S
C105   H278    1.112   .     S
C105   H280    1.111   .     S
C105   O404    1.411   .     S
C106   H284    1.109   .     S
C106   H282    1.113   .     S
C106   H283    1.110   .     S
C106   O406    1.411   .     S
C107   H286    1.114   .     S
C107   H287    1.107   .     S
C107   H285    1.110   .     S
C107   O407    1.415   .     S
C108   H291    1.109   .     S
C108   O408    1.411   .     S
C108   H288    1.113   .     S
C108   H289    1.113   .     S
C109   H293    1.116   .     S
C109   H292    1.108   .     S
C109   H294    1.109   .     S
C109   O409    1.414   .     S
C110   O410    1.414   .     S
C110   H296    1.116   .     S
C110   H297    1.109   .     S
C110   H295    1.108   .     S
C111   H298    1.114   .     S
C111   H300    1.109   .     S
C111   O411    1.413   .     S
C111   H299    1.110   .     S
C112   O397    1.385   .     S
C112   C614    1.398   .     S
C113   C135    1.402   .     A
C113   C138    1.449   .     S
C113   C1227   1.401   .     S
C114   H302    1.112   .     S
C114   H303    1.114   .     S
C114   H304    1.109   .     S
C114   O412    1.412   .     S
C115   C143    1.453   .     S
C115   C1238   1.397   .     S
C116   C144    1.452   .     S
C116   C1050   1.399   1_545 S
C117   C537    1.401   1_455 S
C117   C665    1.459   1_455 S
C118   C548    1.400   .     S
C118   C666    1.451   .     S
C119   C198    1.414   .     A
C119   C125    1.396   .     A
C119   O458    1.384   .     S
C120   O459    1.383   .     S
C120   C123    1.405   .     A
C120   C199    1.411   .     A
C121   C127    1.403   .     A
C121   O460    1.384   .     S
C121   C200    1.410   .     A
C122   O461    1.386   .     S
C122   C126    1.403   .     A
C123   O462    1.388   .     S
C124   O398    1.389   .     S
C125   O463    1.384   .     S
C126   O464    1.384   .     S
C127   O466    1.386   .     S
C128   O467    1.386   .     S
C128   C133    1.403   1_556 S
C129   O468    1.385   .     S
C129   C132    1.401   1_554 S
C130   O469    1.388   .     S
C130   C136    1.405   1_556 S
C131   O470    1.384   .     S
C131   C134    1.395   1_554 S
C132   O471    1.384   .     S
C132   C129    1.401   1_556 S
C133   O472    1.384   .     S
C133   C128    1.403   1_554 S
C134   O473    1.384   .     S
C134   C131    1.395   1_556 S
C135   O399    1.388   .     S
C136   O474    1.383   .     S
C136   C130    1.405   1_554 S
C137   O498    1.276   .     A
C137   O1502   1.277   1_545 S
C138   O394    1.275   .     A
C138   O1513   1.277   .     S
C139   O405    1.275   .     A
C139   O1000   1.281   .     S
C140   O413    1.274   .     A
C140   O1011   1.278   1_455 S
C141   O938    1.281   .     A
C141   C641    1.459   .     S
C141   O942    1.276   .     S
C142   O415    1.279   .     A
C142   C642    1.451   1_455 S
C142   O419    1.273   .     S
C143   O1464   1.275   .     S
C143   O1468   1.278   .     S
C144   O422    1.275   .     A
C144   O417    1.278   .     A
C145   O451    1.281   .     A
C145   O423    1.280   .     A
C146   O400    1.385   .     S
C146   C198    1.408   .     A
C147   O424    1.277   .     A
C147   O452    1.281   .     A
C148   O449    1.281   .     A
C148   O425    1.276   .     A
C149   O426    1.276   .     A
C149   O450    1.278   .     A
C150   O456    1.280   .     A
C150   O427    1.279   .     A
C151   O428    1.282   .     A
C151   O457    1.278   .     A
C152   O429    1.281   .     A
C152   O453    1.283   .     A
C153   O430    1.281   .     A
C153   O455    1.282   .     A
C154   O431    1.278   .     A
C154   O442    1.277   .     A
C155   O433    1.279   .     A
C155   O444    1.274   .     A
C156   O434    1.283   .     A
C156   O440    1.278   .     A
C157   O401    1.385   .     S
C157   C199    1.407   .     A
C158   O435    1.279   .     A
C158   O441    1.279   .     A
C159   O447    1.282   .     A
C159   O436    1.281   .     A
C160   O437    1.283   .     A
C160   O448    1.280   .     A
C161   O445    1.279   .     A
C161   O438    1.280   .     A
C162   O446    1.279   .     A
C162   O439    1.281   .     A
C163   O475    1.386   .     S
C163   C180    1.401   .     A
C164   C178    1.401   .     A
C164   O477    1.386   .     S
C165   C177    1.400   .     A
C165   O478    1.388   .     S
C166   C176    1.396   .     A
C166   O479    1.386   .     S
C167   C175    1.399   .     A
C167   O480    1.388   .     S
C168   O402    1.385   .     S
C168   C200    1.410   .     A
C168   C1149   1.398   .     S
C169   C174    1.400   .     A
C169   O481    1.386   .     S
C170   C173    1.402   .     A
C170   O482    1.384   .     S
C171   O483    1.387   .     S
C171   C172    1.399   .     A
C172   O484    1.385   .     S
C173   O485    1.386   .     S
C174   O486    1.386   .     S
C175   O488    1.388   .     S
C176   O489    1.388   .     S
C177   O490    1.386   .     S
C178   O491    1.386   .     S
C179   O403    1.389   .     S
C179   C1161   1.401   1_545 S
C180   O492    1.387   .     S
C181   C197    1.401   .     A
C181   O493    1.385   .     S
C182   O494    1.386   .     S
C182   C196    1.401   .     A
C183   O495    1.388   .     S
C183   C195    1.401   .     A
C184   C194    1.398   .     A
C184   O496    1.385   .     S
C185   O497    1.386   .     S
C185   C193    1.400   .     A
C186   O499    1.386   .     S
C186   C192    1.394   .     A
C187   O500    1.387   .     S
C187   C191    1.401   .     A
C188   O501    1.385   .     S
C188   C189    1.402   .     A
C189   O502    1.386   .     S
C190   O404    1.385   .     S
C190   C1163   1.397   1_545 S
C191   O503    1.387   .     S
C192   O504    1.389   .     S
C193   O505    1.386   .     S
C194   O506    1.388   .     S
C195   O507    1.387   .     S
C196   O508    1.386   .     S
C197   O395    1.386   .     S
C198   C558    1.417   .     S
H213   C1095   1.114   .     S
H255   C621    1.112   1_455 S
H269   C626    1.113   .     S
H309   C1099   1.114   1_545 S
O393   Zn520   1.943   .     S
O393   Zn509   1.950   .     S
O393   Zn512   1.943   .     S
O393   Zn1564  1.950   1_545 S
O394   Zn511   1.949   .     S
O399   C1147   1.415   .     S
O402   C1151   1.411   .     S
O403   C1152   1.415   1_545 S
O405   Zn514   1.949   .     S
O413   Zn513   1.949   .     S
O414   C665    1.281   1_455 A
O414   Zn523   1.945   .     S
O415   Zn522   1.945   .     S
O416   Zn517   1.945   .     S
O416   C1191   1.275   1_545 S
O417   Zn509   1.945   .     S
O418   Zn519   1.949   .     S
O418   C665    1.276   1_455 S
O419   Zn518   1.949   .     S
O420   Zn521   1.949   .     S
O420   C1191   1.278   1_545 S
O421   Zn521   1.943   .     S
O421   Zn517   1.950   .     S
O421   Zn515   1.950   .     S
O421   Zn1559  1.943   1_545 S
O422   Zn520   1.949   .     S
O423   Zn512   1.938   .     S
O424   Zn511   1.938   .     S
O425   Zn514   1.934   .     S
O426   Zn513   1.934   .     S
O427   Zn516   1.934   .     S
O428   Zn515   1.934   .     S
O429   Zn510   1.934   .     S
O430   Zn524   1.934   .     S
O431   Zn511   1.934   .     S
O432   Zn522   1.950   .     S
O432   Zn518   1.943   .     S
O432   Zn1038  1.943   1_455 S
O432   Zn510   1.950   .     S
O433   Zn512   1.934   .     S
O434   Zn524   1.935   .     S
O435   Zn510   1.935   .     S
O436   Zn515   1.934   .     S
O437   Zn516   1.934   .     S
O438   Zn513   1.938   .     S
O439   Zn514   1.938   .     S
O440   Zn1043  1.938   .     S
O441   Zn518   1.938   .     S
O442   Zn1569  1.934   .     S
O443   Zn1048  1.950   1_455 S
O443   Zn513   1.943   .     S
O443   Zn519   1.943   .     S
O443   Zn523   1.950   .     S
O444   Zn520   1.934   .     S
O445   Zn523   1.934   .     S
O446   Zn1046  1.934   .     S
O447   Zn517   1.934   .     S
O448   Zn1557  1.934   .     S
O449   Zn1042  1.934   .     S
O450   Zn519   1.934   .     S
O451   Zn509   1.935   .     S
O452   Zn1565  1.935   .     S
O453   Zn522   1.934   .     S
O454   Zn516   1.945   .     S
O454   C1185   1.277   .     S
O455   Zn1047  1.934   .     S
O456   Zn1568  1.938   .     S
O457   Zn521   1.938   .     S
O465   Zn515   1.945   .     S
O465   C1186   1.277   1_545 S
O476   Zn510   1.945   .     S
O476   C663    1.281   1_455 S
O487   Zn524   1.945   .     S
O487   C664    1.278   .     S
O498   Zn512   1.949   .     S
Zn509  O1496   1.934   1_545 S
Zn511  O1469   1.943   .     S
Zn514  O956    1.943   .     S
Zn516  O1441   1.950   .     S
Zn517  O1500   1.935   1_545 S
Zn518  O973    1.934   1_455 S
Zn519  O964    1.938   1_455 S
Zn520  O1504   1.938   1_545 S
Zn521  O1490   1.934   1_545 S
Zn522  O970    1.934   1_455 S
Zn523  O979    1.934   1_455 S
Zn524  O967    1.950   .     S
C525   O920    1.386   .     S
C525   C528    1.412   .     A
C526   C538    1.409   .     A
C526   O930    1.386   .     S
C526   C1688   1.399   .     S
C527   C703    1.411   .     A
C527   C646    1.415   .     A
C527   C1610   1.423   1_545 S
C528   C558    1.422   .     A
C528   C647    1.416   .     A
C529   C636    1.408   .     A
C529   C649    1.412   .     A
C529   C36     1.422   1_655 S
C530   C650    1.412   .     A
C530   C648    1.412   .     A
C530   C1609   1.420   1_545 S
C531   C651    1.417   .     A
C531   C659    1.412   .     A
C531   C562    1.424   .     A
C532   C559    1.415   .     A
C532   C652    1.416   .     A
C532   C1611   1.423   .     S
C533   C570    1.413   .     A
C533   C564    1.424   .     A
C533   C653    1.416   .     A
C534   C654    1.417   .     A
C534   C581    1.413   .     A
C535   C592    1.408   .     A
C535   C566    1.422   .     A
C535   C655    1.412   .     A
C536   C656    1.411   .     A
C536   C714    1.409   .     A
C536   C563    1.417   .     A
C537   C539    1.408   .     A
C537   O931    1.385   .     S
C537   C117    1.401   1_655 S
C538   C657    1.412   .     A
C538   C1612   1.417   .     S
C539   C565    1.418   .     A
C539   C658    1.413   .     A
C540   C660    1.412   .     A
C540   C548    1.408   .     A
C541   C706    1.409   .     A
C541   C676    1.454   .     S
C541   C704    1.408   .     A
C542   C705    1.408   .     A
C542   C702    1.408   .     A
C542   C677    1.454   .     S
C543   C701    1.412   .     A
C543   C708    1.412   .     A
C543   C669    1.458   .     S
C544   C671    1.453   .     S
C544   C707    1.412   .     A
C544   C700    1.406   .     A
C545   C710    1.414   .     A
C545   C699    1.412   .     A
C545   C672    1.457   .     S
C546   C673    1.453   .     S
C546   C698    1.408   .     A
C546   C709    1.408   .     A
C547   C712    1.408   .     A
C547   C674    1.455   .     S
C547   C697    1.407   .     A
C548   O932    1.385   .     S
C549   C711    1.410   .     A
C549   C675    1.457   .     S
C549   C696    1.410   .     A
C550   C715    1.410   .     A
C550   C685    1.455   .     S
C550   C695    1.408   .     A
C551   C686    1.456   .     S
C551   C694    1.409   .     A
C551   C713    1.408   .     A
C552   C693    1.408   .     A
C552   C678    1.453   .     S
C552   C717    1.408   .     A
C553   C679    1.450   .     S
C553   C691    1.411   .     A
C553   C716    1.406   .     A
C554   C680    1.459   .     S
C554   C719    1.411   .     A
C554   C690    1.414   .     A
C555   C689    1.409   .     A
C555   C682    1.453   .     S
C555   C718    1.408   .     A
C556   C721    1.408   .     A
C556   C683    1.454   .     S
C556   C688    1.408   .     A
C557   C720    1.408   .     A
C557   C684    1.454   .     S
C557   C687    1.409   .     A
C558   C560    1.411   .     A
C559   C639    1.405   .     A
C559   O933    1.388   .     S
C560   C723    1.416   .     A
C561   C724    1.418   .     A
C561   C562    1.416   .     A
C561   C1578   1.420   .     S
C562   C1575   1.423   .     S
C563   C1580   1.423   1_545 S
C563   C564    1.415   1_556 S
C564   C1586   1.417   1_545 S
C564   C563    1.415   1_554 S
C565   C10     1.422   1_655 S
C565   C566    1.411   1_556 S
C566   C16     1.417   1_655 S
C566   C565    1.411   1_554 S
C567   O982    1.410   .     S
C567   H725    1.114   .     S
C567   H840    1.113   .     S
C567   H829    1.109   .     S
C568   H851    1.113   .     S
C568   H873    1.113   .     S
C568   O983    1.410   .     S
C568   H862    1.109   .     S
C569   O984    1.410   .     S
C569   H895    1.113   .     S
C569   H884    1.109   .     S
C569   H906    1.113   .     S
C570   O934    1.388   .     S
C570   C640    1.405   .     A
C571   H748    1.110   .     S
C571   H726    1.109   .     S
C571   O985    1.413   .     S
C571   H1785   1.114   1_545 S
C572   H770    1.109   .     S
C572   H759    1.115   .     S
C572   H781    1.109   .     S
C572   O986    1.414   .     S
C573   H814    1.113   .     S
C573   H792    1.113   .     S
C573   O987    1.411   .     S
C573   H803    1.109   .     S
C574   H831    1.111   .     S
C574   H825    1.109   .     S
C574   H830    1.114   .     S
C574   O988    1.412   .     S
C575   O990    1.414   .     S
C575   H834    1.110   .     S
C575   H832    1.109   .     S
C575   H1881   1.114   .     S
C576   O991    1.413   .     S
C576   H836    1.114   .     S
C576   H837    1.110   .     S
C576   H835    1.109   .     S
C577   H839    1.114   .     S
C577   H838    1.109   .     S
C577   H841    1.110   .     S
C577   O992    1.414   .     S
C578   H844    1.109   .     S
C578   H842    1.115   .     S
C578   O993    1.414   .     S
C578   H843    1.109   .     S
C579   H847    1.113   .     S
C579   O994    1.411   .     S
C579   H845    1.113   .     S
C579   H846    1.109   .     S
C580   H849    1.114   .     S
C580   H850    1.113   .     S
C580   O995    1.410   .     S
C580   H848    1.109   .     S
C581   O935    1.386   .     S
C581   C641    1.405   .     A
C582   H852    1.109   .     S
C582   H853    1.114   .     S
C582   O996    1.410   .     S
C582   H854    1.113   .     S
C583   H857    1.113   .     S
C583   H856    1.109   .     S
C583   H855    1.114   .     S
C583   O997    1.410   .     S
C584   H859    1.109   .     S
C584   O998    1.410   .     S
C584   H860    1.113   .     S
C584   H858    1.113   .     S
C585   O999    1.417   .     S
C585   H864    1.109   .     S
C585   H863    1.116   .     S
C585   H861    1.108   .     S
C586   H866    1.110   .     S
C586   H867    1.108   .     S
C586   H865    1.117   .     S
C586   O1001   1.415   .     S
C587   H869    1.116   .     S
C587   H868    1.109   .     S
C587   H870    1.107   .     S
C587   O1002   1.416   .     S
C588   H872    1.109   .     S
C588   O1003   1.421   .     S
C588   H874    1.107   .     S
C588   H871    1.117   .     S
C589   H875    1.109   .     S
C589   H877    1.108   .     S
C589   H876    1.116   .     S
C589   O1004   1.416   .     S
C590   H879    1.109   .     S
C590   H878    1.116   .     S
C590   H880    1.109   .     S
C590   O1005   1.416   .     S
C591   H882    1.116   .     S
C591   O1006   1.415   .     S
C591   H883    1.108   .     S
C591   H881    1.108   .     S
C592   C642    1.398   .     A
C592   O936    1.384   .     S
C593   O1007   1.415   .     S
C593   H886    1.108   .     S
C593   H885    1.116   .     S
C593   H887    1.108   .     S
C594   H889    1.116   .     S
C594   O1008   1.418   .     S
C594   H890    1.108   .     S
C594   H888    1.108   .     S
C595   H892    1.110   .     S
C595   O1009   1.415   .     S
C595   H893    1.109   .     S
C595   H891    1.117   .     S
C596   H894    1.109   .     S
C596   H897    1.108   .     S
C596   O1010   1.415   .     S
C596   H896    1.117   .     S
C597   H900    1.107   .     S
C597   H898    1.117   .     S
C597   O1012   1.417   .     S
C597   H899    1.110   .     S
C598   O1013   1.414   .     S
C598   H902    1.116   .     S
C598   H903    1.108   .     S
C598   H901    1.110   .     S
C599   H904    1.116   .     S
C599   H907    1.108   .     S
C599   O1014   1.417   .     S
C599   H905    1.109   .     S
C600   H908    1.109   .     S
C600   O1015   1.415   .     S
C600   H909    1.117   .     S
C600   H910    1.109   .     S
C601   H913    1.108   .     S
C601   H912    1.110   .     S
C601   H911    1.116   .     S
C601   O1016   1.415   .     S
C602   O1017   1.416   .     S
C602   H916    1.108   .     S
C602   H914    1.108   .     S
C602   H915    1.116   .     S
C603   C663    1.459   .     S
C603   C670    1.401   .     A
C603   C1      1.404   1_655 S
C604   H727    1.116   .     S
C604   O1018   1.416   .     S
C604   H728    1.108   .     S
C604   H729    1.109   .     S
C605   O1019   1.416   .     S
C605   H731    1.117   .     S
C605   H730    1.110   .     S
C605   H732    1.107   .     S
C606   H733    1.116   .     S
C606   H734    1.108   .     S
C606   O1020   1.418   .     S
C606   H735    1.108   .     S
C607   H738    1.116   .     S
C607   H736    1.108   .     S
C607   H739    1.109   .     S
C607   O1021   1.416   .     S
C608   O1023   1.421   .     S
C608   H742    1.107   .     S
C608   H741    1.109   .     S
C608   H740    1.117   .     S
C609   H744    1.116   .     S
C609   O1024   1.415   .     S
C609   H743    1.109   .     S
C609   H745    1.108   .     S
C610   H747    1.109   .     S
C610   H749    1.108   .     S
C610   O1025   1.415   .     S
C610   H746    1.117   .     S
C611   H752    1.109   .     S
C611   O1026   1.415   .     S
C611   H750    1.109   .     S
C611   H751    1.117   .     S
C612   H754    1.110   .     S
C612   H753    1.117   .     S
C612   O1027   1.416   .     S
C612   H755    1.107   .     S
C613   H757    1.116   .     S
C613   O1028   1.414   .     S
C613   H756    1.110   .     S
C613   H758    1.108   .     S
C614   C664    1.451   .     S
C614   C681    1.400   .     A
C615   O1029   1.415   .     S
C615   H762    1.108   .     S
C615   H761    1.109   .     S
C615   H760    1.117   .     S
C616   H763    1.110   .     S
C616   H765    1.107   .     S
C616   H764    1.116   .     S
C616   O1030   1.415   .     S
C617   H766    1.116   .     S
C617   H768    1.108   .     S
C617   O1031   1.416   .     S
C617   H767    1.109   .     S
C618   H771    1.117   .     S
C618   H769    1.110   .     S
C618   O1032   1.415   .     S
C618   H772    1.108   .     S
C619   H774    1.109   .     S
C619   O919    1.415   .     S
C619   H773    1.117   .     S
C619   H775    1.108   .     S
C620   H778    1.109   .     S
C620   O920    1.414   .     S
C620   H776    1.114   .     S
C620   H777    1.110   .     S
C621   H780    1.113   .     S
C621   O921    1.412   .     S
C621   H782    1.109   .     S
C621   H255    1.112   1_655 S
C622   H783    1.109   .     S
C622   H784    1.116   .     S
C622   O922    1.413   .     S
C622   H785    1.109   .     S
C623   H787    1.115   .     S
C623   H786    1.109   .     S
C623   H788    1.109   .     S
C623   O1971   1.415   1_545 S
C624   H790    1.114   .     S
C624   H789    1.110   .     S
C624   O924    1.415   .     S
C624   H791    1.107   .     S
C625   C661    1.452   .     S
C625   C648    1.405   .     A
C625   C1740   1.398   1_545 S
C626   H795    1.109   .     S
C626   H794    1.113   .     S
C626   O925    1.411   .     S
C627   H798    1.109   .     S
C627   H797    1.113   .     S
C627   H796    1.113   .     S
C627   O1974   1.411   1_545 S
C628   H801    1.109   .     S
C628   H800    1.115   .     S
C628   H799    1.109   .     S
C628   O1975   1.415   .     S
C629   H805    1.108   .     S
C629   H802    1.112   .     S
C629   H804    1.111   .     S
C629   O928    1.411   .     S
C630   H808    1.109   .     S
C630   H806    1.113   .     S
C630   H807    1.110   .     S
C630   O930    1.411   .     S
C631   H810    1.114   .     S
C631   H811    1.107   .     S
C631   H809    1.110   .     S
C631   O931    1.415   .     S
C632   H815    1.109   .     S
C632   O932    1.411   .     S
C632   H812    1.113   .     S
C632   H813    1.113   .     S
C633   H817    1.116   .     S
C633   H816    1.108   .     S
C633   H818    1.109   .     S
C633   O933    1.414   .     S
C634   O934    1.414   .     S
C634   H820    1.116   .     S
C634   H821    1.109   .     S
C634   H819    1.108   .     S
C635   H822    1.114   .     S
C635   H824    1.109   .     S
C635   O935    1.413   .     S
C635   H823    1.110   .     S
C636   O921    1.385   .     S
C636   C90     1.398   1_655 S
C637   C659    1.402   .     A
C637   C662    1.449   .     S
C637   C1751   1.401   .     S
C638   H826    1.112   .     S
C638   H827    1.114   .     S
C638   H828    1.109   .     S
C638   O936    1.412   .     S
C639   C667    1.453   .     S
C639   C1762   1.397   .     S
C640   C668    1.452   .     S
C640   C1574   1.399   1_545 S
C642   C24     1.400   1_655 S
C642   C142    1.451   1_655 S
C643   C722    1.414   .     A
C643   C649    1.396   .     A
C643   O982    1.384   .     S
C644   O983    1.383   .     S
C644   C647    1.405   .     A
C644   C723    1.411   .     A
C645   C651    1.403   .     A
C645   O984    1.384   .     S
C645   C724    1.410   .     A
C646   O985    1.386   .     S
C646   C650    1.403   .     A
C647   O986    1.388   .     S
C648   O922    1.389   .     S
C649   O987    1.384   .     S
C650   O988    1.384   .     S
C651   O990    1.386   .     S
C652   O991    1.386   .     S
C652   C657    1.403   1_556 S
C653   O992    1.385   .     S
C653   C656    1.401   1_554 S
C654   O993    1.388   .     S
C654   C660    1.405   1_556 S
C655   O994    1.384   .     S
C655   C658    1.395   1_554 S
C656   O995    1.384   .     S
C656   C653    1.401   1_556 S
C657   O996    1.384   .     S
C657   C652    1.403   1_554 S
C658   O997    1.384   .     S
C658   C655    1.395   1_556 S
C659   O923    1.388   .     S
C660   O998    1.383   .     S
C660   C654    1.405   1_554 S
C661   O1022   1.276   .     A
C661   O2026   1.277   1_545 S
C662   O918    1.275   .     A
C662   O2037   1.277   .     S
C663   O929    1.275   .     A
C663   O476    1.281   1_655 S
C664   O937    1.274   .     A
C665   O414    1.281   1_655 A
C665   C117    1.459   1_655 S
C665   O418    1.276   1_655 S
C666   O939    1.279   .     A
C666   O943    1.273   .     S
C667   O1988   1.275   .     S
C667   O1992   1.278   .     S
C668   O946    1.275   .     A
C668   O941    1.278   .     A
C669   O975    1.281   .     A
C669   O947    1.280   .     A
C670   O924    1.385   .     S
C670   C722    1.408   .     A
C671   O948    1.277   .     A
C671   O976    1.281   .     A
C672   O973    1.281   .     A
C672   O949    1.276   .     A
C673   O950    1.276   .     A
C673   O974    1.278   .     A
C674   O980    1.280   .     A
C674   O951    1.279   .     A
C675   O952    1.282   .     A
C675   O981    1.278   .     A
C676   O953    1.281   .     A
C676   O977    1.283   .     A
C677   O954    1.281   .     A
C677   O979    1.282   .     A
C678   O955    1.278   .     A
C678   O966    1.277   .     A
C679   O957    1.279   .     A
C679   O968    1.274   .     A
C680   O958    1.283   .     A
C680   O964    1.278   .     A
C681   O925    1.385   .     S
C681   C723    1.407   .     A
C682   O959    1.279   .     A
C682   O965    1.279   .     A
C683   O971    1.282   .     A
C683   O960    1.281   .     A
C684   O961    1.283   .     A
C684   O972    1.280   .     A
C685   O969    1.279   .     A
C685   O962    1.280   .     A
C686   O970    1.279   .     A
C686   O963    1.281   .     A
C687   O999    1.386   .     S
C687   C704    1.401   .     A
C688   C702    1.401   .     A
C688   O1001   1.386   .     S
C689   C701    1.400   .     A
C689   O1002   1.388   .     S
C690   C700    1.396   .     A
C690   O1003   1.386   .     S
C691   C699    1.399   .     A
C691   O1004   1.388   .     S
C692   O926    1.385   .     S
C692   C724    1.410   .     A
C692   C1673   1.398   .     S
C693   C698    1.400   .     A
C693   O1005   1.386   .     S
C694   C697    1.402   .     A
C694   O1006   1.384   .     S
C695   O1007   1.387   .     S
C695   C696    1.399   .     A
C696   O1008   1.385   .     S
C697   O1009   1.386   .     S
C698   O1010   1.386   .     S
C699   O1012   1.388   .     S
C700   O1013   1.388   .     S
C701   O1014   1.386   .     S
C702   O1015   1.386   .     S
C703   O927    1.389   .     S
C703   C1685   1.401   1_545 S
C704   O1016   1.387   .     S
C705   C721    1.401   .     A
C705   O1017   1.385   .     S
C706   O1018   1.386   .     S
C706   C720    1.401   .     A
C707   O1019   1.388   .     S
C707   C719    1.401   .     A
C708   C718    1.398   .     A
C708   O1020   1.385   .     S
C709   O1021   1.386   .     S
C709   C717    1.400   .     A
C710   O1023   1.386   .     S
C710   C716    1.394   .     A
C711   O1024   1.387   .     S
C711   C715    1.401   .     A
C712   O1025   1.385   .     S
C712   C713    1.402   .     A
C713   O1026   1.386   .     S
C714   O928    1.385   .     S
C714   C1687   1.397   1_545 S
C715   O1027   1.387   .     S
C716   O1028   1.389   .     S
C717   O1029   1.386   .     S
C718   O1030   1.388   .     S
C719   O1031   1.387   .     S
C720   O1032   1.386   .     S
C721   O919    1.386   .     S
C722   C34     1.417   1_655 S
H737   C1619   1.114   .     S
H793   C102    1.113   1_655 S
H833   C1623   1.114   1_545 S
O917   Zn1044  1.943   .     S
O917   Zn1033  1.950   .     S
O917   Zn1036  1.943   .     S
O917   Zn2088  1.950   1_545 S
O918   Zn1035  1.949   .     S
O923   C1671   1.415   .     S
O926   C1675   1.411   .     S
O927   C1676   1.415   1_545 S
O929   Zn1038  1.949   .     S
O937   Zn1037  1.949   .     S
O938   Zn1047  1.945   .     S
O939   Zn1046  1.945   .     S
O940   Zn1041  1.945   .     S
O940   C1715   1.275   1_545 S
O941   Zn1033  1.945   .     S
O942   Zn1043  1.949   .     S
O943   Zn1042  1.949   .     S
O944   Zn1045  1.949   .     S
O944   C1715   1.278   1_545 S
O945   Zn1045  1.943   .     S
O945   Zn1041  1.950   .     S
O945   Zn1039  1.950   .     S
O945   Zn2083  1.943   1_545 S
O946   Zn1044  1.949   .     S
O947   Zn1036  1.938   .     S
O948   Zn1035  1.938   .     S
O949   Zn1038  1.934   .     S
O950   Zn1037  1.934   .     S
O951   Zn1040  1.934   .     S
O952   Zn1039  1.934   .     S
O953   Zn1034  1.934   .     S
O954   Zn1048  1.934   .     S
O955   Zn1035  1.934   .     S
O956   Zn1046  1.950   .     S
O956   Zn1042  1.943   .     S
O956   Zn1034  1.950   .     S
O957   Zn1036  1.934   .     S
O958   Zn1048  1.935   .     S
O959   Zn1034  1.935   .     S
O960   Zn1039  1.934   .     S
O961   Zn1040  1.934   .     S
O962   Zn1037  1.938   .     S
O963   Zn1038  1.938   .     S
O964   Zn519   1.938   1_655 S
O965   Zn1042  1.938   .     S
O966   Zn2093  1.934   .     S
O967   Zn1037  1.943   .     S
O967   Zn1043  1.943   .     S
O967   Zn1047  1.950   .     S
O968   Zn1044  1.934   .     S
O969   Zn1047  1.934   .     S
O970   Zn522   1.934   1_655 S
O971   Zn1041  1.934   .     S
O972   Zn2081  1.934   .     S
O973   Zn518   1.934   1_655 S
O974   Zn1043  1.934   .     S
O975   Zn1033  1.935   .     S
O976   Zn2089  1.935   .     S
O977   Zn1046  1.934   .     S
O978   Zn1040  1.945   .     S
O978   C1709   1.277   .     S
O979   Zn523   1.934   1_655 S
O980   Zn2092  1.938   .     S
O981   Zn1045  1.938   .     S
O989   Zn1039  1.945   .     S
O989   C1710   1.277   1_545 S
O1000  Zn1034  1.945   .     S
O1011  Zn1048  1.945   .     S
O1011  C140    1.278   1_655 S
O1022  Zn1036  1.949   .     S
Zn1033 O2020   1.934   1_545 S
Zn1035 O1993   1.943   .     S
Zn1038 O432    1.943   1_655 S
Zn1040 O1965   1.950   .     S
Zn1041 O2024   1.935   1_545 S
Zn1044 O2028   1.938   1_545 S
Zn1045 O2014   1.934   1_545 S
Zn1048 O443    1.950   1_655 S
C1049  O1444   1.386   .     S
C1049  C1052   1.412   .     A
C1049  C1651   1.404   1_455 S
C1050  C1062   1.409   .     A
C1050  O1454   1.386   .     S
C1050  C116    1.399   1_565 S
C1051  C1227   1.411   .     A
C1051  C1170   1.415   .     A
C1052  C1082   1.422   .     A
C1052  C1171   1.416   .     A
C1053  C1160   1.408   .     A
C1053  C1173   1.412   .     A
C1053  C1608   1.422   .     S
C1054  C1174   1.412   .     A
C1054  C1172   1.412   .     A
C1055  C1175   1.417   .     A
C1055  C1183   1.412   .     A
C1055  C1086   1.424   .     A
C1056  C1083   1.415   .     A
C1056  C1176   1.416   .     A
C1056  C39     1.423   1_565 S
C1057  C1094   1.413   .     A
C1057  C1088   1.424   .     A
C1057  C1177   1.416   .     A
C1058  C1178   1.417   .     A
C1058  C1105   1.413   .     A
C1058  C1613   1.422   1_455 S
C1059  C1116   1.408   .     A
C1059  C1090   1.422   .     A
C1059  C1179   1.412   .     A
C1060  C1180   1.411   .     A
C1060  C1238   1.409   .     A
C1060  C1087   1.417   .     A
C1061  C1063   1.408   .     A
C1061  O1455   1.385   .     S
C1061  C1689   1.401   .     S
C1062  C1181   1.412   .     A
C1062  C40     1.417   1_565 S
C1063  C1089   1.418   .     A
C1063  C1182   1.413   .     A
C1064  C1184   1.412   .     A
C1064  C1072   1.408   .     A
C1064  C1614   1.417   1_455 S
C1065  C1230   1.409   .     A
C1065  C1200   1.454   .     S
C1065  C1228   1.408   .     A
C1066  C1229   1.408   .     A
C1066  C1226   1.408   .     A
C1066  C1201   1.454   .     S
C1067  C1225   1.412   .     A
C1067  C1232   1.412   .     A
C1067  C1193   1.458   .     S
C1068  C1195   1.453   .     S
C1068  C1231   1.412   .     A
C1068  C1224   1.406   .     A
C1069  C1234   1.414   .     A
C1069  C1223   1.412   .     A
C1069  C1196   1.457   .     S
C1070  C1197   1.453   .     S
C1070  C1222   1.408   .     A
C1070  C1233   1.408   .     A
C1071  C1236   1.408   .     A
C1071  C1198   1.455   .     S
C1071  C1221   1.407   .     A
C1072  O1456   1.385   .     S
C1072  C1690   1.400   1_455 S
C1073  C1235   1.410   .     A
C1073  C1199   1.457   .     S
C1073  C1220   1.410   .     A
C1074  C1239   1.410   .     A
C1074  C1209   1.455   .     S
C1074  C1219   1.408   .     A
C1075  C1210   1.456   .     S
C1075  C1218   1.409   .     A
C1075  C1237   1.408   .     A
C1076  C1217   1.408   .     A
C1076  C1202   1.453   .     S
C1076  C1241   1.408   .     A
C1077  C1203   1.450   .     S
C1077  C1215   1.411   .     A
C1077  C1240   1.406   .     A
C1078  C1204   1.459   .     S
C1078  C1243   1.411   .     A
C1078  C1214   1.414   .     A
C1079  C1213   1.409   .     A
C1079  C1206   1.453   .     S
C1079  C1242   1.408   .     A
C1080  C1245   1.408   .     A
C1080  C1207   1.454   .     S
C1080  C1212   1.408   .     A
C1081  C1244   1.408   .     A
C1081  C1208   1.454   .     S
C1081  C1211   1.409   .     A
C1082  C1084   1.411   .     A
C1082  C1770   1.417   1_455 S
C1083  C1163   1.405   .     A
C1083  O1457   1.388   .     S
C1084  C1247   1.416   .     A
C1084  C1577   1.422   1_455 S
C1085  C1248   1.418   .     A
C1085  C1086   1.416   .     A
C1085  C6      1.420   1_565 S
C1086  C3      1.423   1_565 S
C1087  C1088   1.415   1_556 S
C1088  C1087   1.415   1_554 S
C1089  C1582   1.422   .     S
C1089  C1090   1.411   1_556 S
C1090  C1588   1.417   .     S
C1090  C1089   1.411   1_554 S
C1091  O1506   1.410   .     S
C1091  H1249   1.114   .     S
C1091  H1364   1.113   .     S
C1091  H1353   1.109   .     S
C1092  H1375   1.113   .     S
C1092  H1397   1.113   .     S
C1092  O1507   1.410   .     S
C1092  H1386   1.109   .     S
C1093  O1508   1.410   .     S
C1093  H1419   1.113   .     S
C1093  H1408   1.109   .     S
C1093  H1430   1.113   .     S
C1094  O1458   1.388   .     S
C1094  C1164   1.405   .     A
C1095  H1272   1.110   .     S
C1095  H1250   1.109   .     S
C1095  O1509   1.413   .     S
C1096  H1294   1.109   .     S
C1096  H1283   1.115   .     S
C1096  H1305   1.109   .     S
C1096  O1510   1.414   .     S
C1097  H1338   1.113   .     S
C1097  H1316   1.113   .     S
C1097  O1511   1.411   .     S
C1097  H1327   1.109   .     S
C1098  H1355   1.111   .     S
C1098  H1349   1.109   .     S
C1098  H1354   1.114   .     S
C1098  O1512   1.412   .     S
C1099  O1514   1.414   .     S
C1099  H1358   1.110   .     S
C1099  H1356   1.109   .     S
C1099  H309    1.114   1_565 S
C1100  O1515   1.413   .     S
C1100  H1360   1.114   .     S
C1100  H1361   1.110   .     S
C1100  H1359   1.109   .     S
C1101  H1363   1.114   .     S
C1101  H1362   1.109   .     S
C1101  H1365   1.110   .     S
C1101  O1516   1.414   .     S
C1102  H1368   1.109   .     S
C1102  H1366   1.115   .     S
C1102  O1517   1.414   .     S
C1102  H1367   1.109   .     S
C1103  H1371   1.113   .     S
C1103  O1518   1.411   .     S
C1103  H1369   1.113   .     S
C1103  H1370   1.109   .     S
C1104  H1373   1.114   .     S
C1104  H1374   1.113   .     S
C1104  O1519   1.410   .     S
C1104  H1372   1.109   .     S
C1105  O1459   1.386   .     S
C1105  C1165   1.405   .     A
C1106  H1376   1.109   .     S
C1106  H1377   1.114   .     S
C1106  O1520   1.410   .     S
C1106  H1378   1.113   .     S
C1107  H1381   1.113   .     S
C1107  H1380   1.109   .     S
C1107  H1379   1.114   .     S
C1107  O1521   1.410   .     S
C1108  H1383   1.109   .     S
C1108  O1522   1.410   .     S
C1108  H1384   1.113   .     S
C1108  H1382   1.113   .     S
C1109  O1523   1.417   .     S
C1109  H1388   1.109   .     S
C1109  H1387   1.116   .     S
C1109  H1385   1.108   .     S
C1110  H1390   1.110   .     S
C1110  H1391   1.108   .     S
C1110  H1389   1.117   .     S
C1110  O1525   1.415   .     S
C1111  H1393   1.116   .     S
C1111  H1392   1.109   .     S
C1111  H1394   1.107   .     S
C1111  O1526   1.416   .     S
C1112  H1396   1.109   .     S
C1112  O1527   1.421   .     S
C1112  H1398   1.107   .     S
C1112  H1395   1.117   .     S
C1113  H1399   1.109   .     S
C1113  H1401   1.108   .     S
C1113  H1400   1.116   .     S
C1113  O1528   1.416   .     S
C1114  H1403   1.109   .     S
C1114  H1402   1.116   .     S
C1114  H1404   1.109   .     S
C1114  O1529   1.416   .     S
C1115  H1406   1.116   .     S
C1115  O1530   1.415   .     S
C1115  H1407   1.108   .     S
C1115  H1405   1.108   .     S
C1116  C1166   1.398   .     A
C1116  O1460   1.384   .     S
C1117  O1531   1.415   .     S
C1117  H1410   1.108   .     S
C1117  H1409   1.116   .     S
C1117  H1411   1.108   .     S
C1118  H1413   1.116   .     S
C1118  O1532   1.418   .     S
C1118  H1414   1.108   .     S
C1118  H1412   1.108   .     S
C1119  H1416   1.110   .     S
C1119  O1533   1.415   .     S
C1119  H1417   1.109   .     S
C1119  H1415   1.117   .     S
C1120  H1418   1.109   .     S
C1120  H1421   1.108   .     S
C1120  O1534   1.415   .     S
C1120  H1420   1.117   .     S
C1121  H1424   1.107   .     S
C1121  H1422   1.117   .     S
C1121  O1536   1.417   .     S
C1121  H1423   1.110   .     S
C1122  O1537   1.414   .     S
C1122  H1426   1.116   .     S
C1122  H1427   1.108   .     S
C1122  H1425   1.110   .     S
C1123  H1428   1.116   .     S
C1123  H1431   1.108   .     S
C1123  O1538   1.417   .     S
C1123  H1429   1.109   .     S
C1124  H1432   1.109   .     S
C1124  O1539   1.415   .     S
C1124  H1433   1.117   .     S
C1124  H1434   1.109   .     S
C1125  H1437   1.108   .     S
C1125  H1436   1.110   .     S
C1125  H1435   1.116   .     S
C1125  O1540   1.415   .     S
C1126  O1541   1.416   .     S
C1126  H1440   1.108   .     S
C1126  H1438   1.108   .     S
C1126  H1439   1.116   .     S
C1127  C1187   1.459   .     S
C1127  C1194   1.401   .     A
C1127  C1573   1.404   .     S
C1128  H1251   1.116   .     S
C1128  O1542   1.416   .     S
C1128  H1252   1.108   .     S
C1128  H1253   1.109   .     S
C1129  O1543   1.416   .     S
C1129  H1255   1.117   .     S
C1129  H1254   1.110   .     S
C1129  H1256   1.107   .     S
C1130  H1257   1.116   .     S
C1130  H1258   1.108   .     S
C1130  O1544   1.418   .     S
C1130  H1259   1.108   .     S
C1131  H1262   1.116   .     S
C1131  H1260   1.108   .     S
C1131  H1263   1.109   .     S
C1131  O1545   1.416   .     S
C1132  O1547   1.421   .     S
C1132  H1266   1.107   .     S
C1132  H1265   1.109   .     S
C1132  H1264   1.117   .     S
C1133  H1268   1.116   .     S
C1133  O1548   1.415   .     S
C1133  H1267   1.109   .     S
C1133  H1269   1.108   .     S
C1134  H1271   1.109   .     S
C1134  H1273   1.108   .     S
C1134  O1549   1.415   .     S
C1134  H1270   1.117   .     S
C1135  H1276   1.109   .     S
C1135  O1550   1.415   .     S
C1135  H1274   1.109   .     S
C1135  H1275   1.117   .     S
C1136  H1278   1.110   .     S
C1136  H1277   1.117   .     S
C1136  O1551   1.416   .     S
C1136  H1279   1.107   .     S
C1137  H1281   1.116   .     S
C1137  O1552   1.414   .     S
C1137  H1280   1.110   .     S
C1137  H1282   1.108   .     S
C1138  C1188   1.451   .     S
C1138  C1205   1.400   .     A
C1138  C1684   1.398   1_455 S
C1139  O1553   1.415   .     S
C1139  H1286   1.108   .     S
C1139  H1285   1.109   .     S
C1139  H1284   1.117   .     S
C1140  H1287   1.110   .     S
C1140  H1289   1.107   .     S
C1140  H1288   1.116   .     S
C1140  O1554   1.415   .     S
C1141  H1290   1.116   .     S
C1141  H1292   1.108   .     S
C1141  O1555   1.416   .     S
C1141  H1291   1.109   .     S
C1142  H1295   1.117   .     S
C1142  H1293   1.110   .     S
C1142  O1556   1.415   .     S
C1142  H1296   1.108   .     S
C1143  H1298   1.109   .     S
C1143  O1443   1.415   .     S
C1143  H1297   1.117   .     S
C1143  H1299   1.108   .     S
C1144  H1302   1.109   .     S
C1144  O1444   1.414   .     S
C1144  H1300   1.114   .     S
C1144  H1301   1.110   .     S
C1145  H1304   1.113   .     S
C1145  O1445   1.412   .     S
C1145  H1306   1.109   .     S
C1145  H1827   1.112   .     S
C1146  H1307   1.109   .     S
C1146  H1308   1.116   .     S
C1146  O1446   1.413   .     S
C1146  H1309   1.109   .     S
C1147  H1311   1.115   .     S
C1147  H1310   1.109   .     S
C1147  H1312   1.109   .     S
C1148  H1314   1.114   .     S
C1148  H1313   1.110   .     S
C1148  O1448   1.415   .     S
C1148  H1315   1.107   .     S
C1149  C1185   1.452   .     S
C1149  C1172   1.405   .     A
C1150  H1319   1.109   .     S
C1150  H1318   1.113   .     S
C1150  O1449   1.411   .     S
C1150  H1841   1.113   1_455 S
C1151  H1322   1.109   .     S
C1151  H1321   1.113   .     S
C1151  H1320   1.113   .     S
C1152  H1325   1.109   .     S
C1152  H1324   1.115   .     S
C1152  H1323   1.109   .     S
C1152  O403    1.415   1_565 S
C1153  H1329   1.108   .     S
C1153  H1326   1.112   .     S
C1153  H1328   1.111   .     S
C1153  O1452   1.411   .     S
C1154  H1332   1.109   .     S
C1154  H1330   1.113   .     S
C1154  H1331   1.110   .     S
C1154  O1454   1.411   .     S
C1155  H1334   1.114   .     S
C1155  H1335   1.107   .     S
C1155  H1333   1.110   .     S
C1155  O1455   1.415   .     S
C1156  H1339   1.109   .     S
C1156  O1456   1.411   .     S
C1156  H1336   1.113   .     S
C1156  H1337   1.113   .     S
C1157  H1341   1.116   .     S
C1157  H1340   1.108   .     S
C1157  H1342   1.109   .     S
C1157  O1457   1.414   .     S
C1158  O1458   1.414   .     S
C1158  H1344   1.116   .     S
C1158  H1345   1.109   .     S
C1158  H1343   1.108   .     S
C1159  H1346   1.114   .     S
C1159  H1348   1.109   .     S
C1159  O1459   1.413   .     S
C1159  H1347   1.110   .     S
C1160  O1445   1.385   .     S
C1160  C1662   1.398   .     S
C1161  C1183   1.402   .     A
C1161  C1186   1.449   .     S
C1161  C179    1.401   1_565 S
C1162  H1350   1.112   .     S
C1162  H1351   1.114   .     S
C1162  H1352   1.109   .     S
C1162  O1460   1.412   .     S
C1163  C1191   1.453   .     S
C1163  C190    1.397   1_565 S
C1164  C1192   1.452   .     S
C1165  C1585   1.401   1_455 S
C1165  C1713   1.459   1_455 S
C1166  C1596   1.400   .     S
C1166  C1714   1.451   .     S
C1167  C1246   1.414   .     A
C1167  C1173   1.396   .     A
C1167  O1506   1.384   .     S
C1168  O1507   1.383   .     S
C1168  C1171   1.405   .     A
C1168  C1247   1.411   .     A
C1169  C1175   1.403   .     A
C1169  O1508   1.384   .     S
C1169  C1248   1.410   .     A
C1170  O1509   1.386   .     S
C1170  C1174   1.403   .     A
C1171  O1510   1.388   .     S
C1172  O1446   1.389   .     S
C1173  O1511   1.384   .     S
C1174  O1512   1.384   .     S
C1175  O1514   1.386   .     S
C1176  O1515   1.386   .     S
C1176  C1181   1.403   1_556 S
C1177  O1516   1.385   .     S
C1177  C1180   1.401   1_554 S
C1178  O1517   1.388   .     S
C1178  C1184   1.405   1_556 S
C1179  O1518   1.384   .     S
C1179  C1182   1.395   1_554 S
C1180  O1519   1.384   .     S
C1180  C1177   1.401   1_556 S
C1181  O1520   1.384   .     S
C1181  C1176   1.403   1_554 S
C1182  O1521   1.384   .     S
C1182  C1179   1.395   1_556 S
C1183  O1447   1.388   .     S
C1184  O1522   1.383   .     S
C1184  C1178   1.405   1_554 S
C1185  O1546   1.276   .     A
C1186  O1442   1.275   .     A
C1186  O465    1.277   1_565 S
C1187  O1453   1.275   .     A
C1187  O2048   1.281   .     S
C1188  O1461   1.274   .     A
C1188  O2059   1.278   1_455 S
C1189  O1986   1.281   .     A
C1189  C1689   1.459   .     S
C1189  O1990   1.276   .     S
C1190  O1463   1.279   .     A
C1190  C1690   1.451   1_455 S
C1190  O1467   1.273   .     S
C1191  O416    1.275   1_565 S
C1191  O420    1.278   1_565 S
C1192  O1470   1.275   .     A
C1192  O1465   1.278   .     A
C1193  O1499   1.281   .     A
C1193  O1471   1.280   .     A
C1194  O1448   1.385   .     S
C1194  C1246   1.408   .     A
C1195  O1472   1.277   .     A
C1195  O1500   1.281   .     A
C1196  O1497   1.281   .     A
C1196  O1473   1.276   .     A
C1197  O1474   1.276   .     A
C1197  O1498   1.278   .     A
C1198  O1504   1.280   .     A
C1198  O1475   1.279   .     A
C1199  O1476   1.282   .     A
C1199  O1505   1.278   .     A
C1200  O1477   1.281   .     A
C1200  O1501   1.283   .     A
C1201  O1478   1.281   .     A
C1201  O1503   1.282   .     A
C1202  O1479   1.278   .     A
C1202  O1490   1.277   .     A
C1203  O1481   1.279   .     A
C1203  O1492   1.274   .     A
C1204  O1482   1.283   .     A
C1204  O1488   1.278   .     A
C1205  O1449   1.385   .     S
C1205  C1247   1.407   .     A
C1206  O1483   1.279   .     A
C1206  O1489   1.279   .     A
C1207  O1495   1.282   .     A
C1207  O1484   1.281   .     A
C1208  O1485   1.283   .     A
C1208  O1496   1.280   .     A
C1209  O1493   1.279   .     A
C1209  O1486   1.280   .     A
C1210  O1494   1.279   .     A
C1210  O1487   1.281   .     A
C1211  O1523   1.386   .     S
C1211  C1228   1.401   .     A
C1212  C1226   1.401   .     A
C1212  O1525   1.386   .     S
C1213  C1225   1.400   .     A
C1213  O1526   1.388   .     S
C1214  C1224   1.396   .     A
C1214  O1527   1.386   .     S
C1215  C1223   1.399   .     A
C1215  O1528   1.388   .     S
C1216  O1450   1.385   .     S
C1216  C1248   1.410   .     A
C1216  C101    1.398   1_565 S
C1217  C1222   1.400   .     A
C1217  O1529   1.386   .     S
C1218  C1221   1.402   .     A
C1218  O1530   1.384   .     S
C1219  O1531   1.387   .     S
C1219  C1220   1.399   .     A
C1220  O1532   1.385   .     S
C1221  O1533   1.386   .     S
C1222  O1534   1.386   .     S
C1223  O1536   1.388   .     S
C1224  O1537   1.388   .     S
C1225  O1538   1.386   .     S
C1226  O1539   1.386   .     S
C1227  O1451   1.389   .     S
C1228  O1540   1.387   .     S
C1229  C1245   1.401   .     A
C1229  O1541   1.385   .     S
C1230  O1542   1.386   .     S
C1230  C1244   1.401   .     A
C1231  O1543   1.388   .     S
C1231  C1243   1.401   .     A
C1232  C1242   1.398   .     A
C1232  O1544   1.385   .     S
C1233  O1545   1.386   .     S
C1233  C1241   1.400   .     A
C1234  O1547   1.386   .     S
C1234  C1240   1.394   .     A
C1235  O1548   1.387   .     S
C1235  C1239   1.401   .     A
C1236  O1549   1.385   .     S
C1236  C1237   1.402   .     A
C1237  O1550   1.386   .     S
C1238  O1452   1.385   .     S
C1239  O1551   1.387   .     S
C1240  O1552   1.389   .     S
C1241  O1553   1.386   .     S
C1242  O1554   1.388   .     S
C1243  O1555   1.387   .     S
C1244  O1556   1.386   .     S
C1245  O1443   1.386   .     S
C1246  C1606   1.417   .     S
H1261  C47     1.114   1_565 S
H1303  C1669   1.112   1_455 S
H1317  C1674   1.113   .     S
O1441  Zn1568  1.943   .     S
O1441  Zn1557  1.950   .     S
O1441  Zn1560  1.943   .     S
O1442  Zn1559  1.949   .     S
O1447  C99     1.415   1_565 S
O1450  C103    1.411   1_565 S
O1453  Zn1562  1.949   .     S
O1461  Zn1561  1.949   .     S
O1462  C1713   1.281   1_455 A
O1462  Zn1571  1.945   .     S
O1463  Zn1570  1.945   .     S
O1464  Zn1565  1.945   .     S
O1465  Zn1557  1.945   .     S
O1466  Zn1567  1.949   .     S
O1466  C1713   1.276   1_455 S
O1467  Zn1566  1.949   .     S
O1468  Zn1569  1.949   .     S
O1469  Zn1569  1.943   .     S
O1469  Zn1565  1.950   .     S
O1469  Zn1563  1.950   .     S
O1470  Zn1568  1.949   .     S
O1471  Zn1560  1.938   .     S
O1472  Zn1559  1.938   .     S
O1473  Zn1562  1.934   .     S
O1474  Zn1561  1.934   .     S
O1475  Zn1564  1.934   .     S
O1476  Zn1563  1.934   .     S
O1477  Zn1558  1.934   .     S
O1478  Zn1572  1.934   .     S
O1479  Zn1559  1.934   .     S
O1480  Zn1570  1.950   .     S
O1480  Zn1566  1.943   .     S
O1480  Zn2086  1.943   1_455 S
O1480  Zn1558  1.950   .     S
O1481  Zn1560  1.934   .     S
O1482  Zn1572  1.935   .     S
O1483  Zn1558  1.935   .     S
O1484  Zn1563  1.934   .     S
O1485  Zn1564  1.934   .     S
O1486  Zn1561  1.938   .     S
O1487  Zn1562  1.938   .     S
O1488  Zn2091  1.938   .     S
O1489  Zn1566  1.938   .     S
O1490  Zn521   1.934   1_565 S
O1491  Zn2096  1.950   1_455 S
O1491  Zn1561  1.943   .     S
O1491  Zn1567  1.943   .     S
O1491  Zn1571  1.950   .     S
O1492  Zn1568  1.934   .     S
O1493  Zn1571  1.934   .     S
O1494  Zn2094  1.934   .     S
O1495  Zn1565  1.934   .     S
O1496  Zn509   1.934   1_565 S
O1497  Zn2090  1.934   .     S
O1498  Zn1567  1.934   .     S
O1499  Zn1557  1.935   .     S
O1500  Zn517   1.935   1_565 S
O1501  Zn1570  1.934   .     S
O1502  Zn1564  1.945   .     S
O1502  C137    1.277   1_565 S
O1503  Zn2095  1.934   .     S
O1504  Zn520   1.938   1_565 S
O1505  Zn1569  1.938   .     S
O1513  Zn1563  1.945   .     S
O1524  Zn1558  1.945   .     S
O1524  C1711   1.281   1_455 S
O1535  Zn1572  1.945   .     S
O1535  C1712   1.278   .     S
O1546  Zn1560  1.949   .     S
Zn1559 O421    1.943   1_565 S
Zn1562 O2004   1.943   .     S
Zn1564 O393    1.950   1_565 S
Zn1566 O2021   1.934   1_455 S
Zn1567 O2012   1.938   1_455 S
Zn1570 O2018   1.934   1_455 S
Zn1571 O2027   1.934   1_455 S
Zn1572 O2015   1.950   .     S
C1573  O1968   1.386   .     S
C1573  C1576   1.412   .     A
C1574  C1586   1.409   .     A
C1574  O1978   1.386   .     S
C1574  C640    1.399   1_565 S
C1575  C1751   1.411   .     A
C1575  C1694   1.415   .     A
C1576  C1606   1.422   .     A
C1576  C1695   1.416   .     A
C1577  C1684   1.408   .     A
C1577  C1697   1.412   .     A
C1577  C1084   1.422   1_655 S
C1578  C1698   1.412   .     A
C1578  C1696   1.412   .     A
C1579  C1699   1.417   .     A
C1579  C1707   1.412   .     A
C1579  C1610   1.424   .     A
C1580  C1607   1.415   .     A
C1580  C1700   1.416   .     A
C1580  C563    1.423   1_565 S
C1581  C1618   1.413   .     A
C1581  C1612   1.424   .     A
C1581  C1701   1.416   .     A
C1582  C1702   1.417   .     A
C1582  C1629   1.413   .     A
C1583  C1640   1.408   .     A
C1583  C1614   1.422   .     A
C1583  C1703   1.412   .     A
C1584  C1704   1.411   .     A
C1584  C1762   1.409   .     A
C1584  C1611   1.417   .     A
C1585  C1587   1.408   .     A
C1585  O1979   1.385   .     S
C1585  C1165   1.401   1_655 S
C1586  C1705   1.412   .     A
C1586  C564    1.417   1_565 S
C1587  C1613   1.418   .     A
C1587  C1706   1.413   .     A
C1588  C1708   1.412   .     A
C1588  C1596   1.408   .     A
C1589  C1754   1.409   .     A
C1589  C1724   1.454   .     S
C1589  C1752   1.408   .     A
C1590  C1753   1.408   .     A
C1590  C1750   1.408   .     A
C1590  C1725   1.454   .     S
C1591  C1749   1.412   .     A
C1591  C1756   1.412   .     A
C1591  C1717   1.458   .     S
C1592  C1719   1.453   .     S
C1592  C1755   1.412   .     A
C1592  C1748   1.406   .     A
C1593  C1758   1.414   .     A
C1593  C1747   1.412   .     A
C1593  C1720   1.457   .     S
C1594  C1721   1.453   .     S
C1594  C1746   1.408   .     A
C1594  C1757   1.408   .     A
C1595  C1760   1.408   .     A
C1595  C1722   1.455   .     S
C1595  C1745   1.407   .     A
C1596  O1980   1.385   .     S
C1597  C1759   1.410   .     A
C1597  C1723   1.457   .     S
C1597  C1744   1.410   .     A
C1598  C1763   1.410   .     A
C1598  C1733   1.455   .     S
C1598  C1743   1.408   .     A
C1599  C1734   1.456   .     S
C1599  C1742   1.409   .     A
C1599  C1761   1.408   .     A
C1600  C1741   1.408   .     A
C1600  C1726   1.453   .     S
C1600  C1765   1.408   .     A
C1601  C1727   1.450   .     S
C1601  C1739   1.411   .     A
C1601  C1764   1.406   .     A
C1602  C1728   1.459   .     S
C1602  C1767   1.411   .     A
C1602  C1738   1.414   .     A
C1603  C1737   1.409   .     A
C1603  C1730   1.453   .     S
C1603  C1766   1.408   .     A
C1604  C1769   1.408   .     A
C1604  C1731   1.454   .     S
C1604  C1736   1.408   .     A
C1605  C1768   1.408   .     A
C1605  C1732   1.454   .     S
C1605  C1735   1.409   .     A
C1606  C1608   1.411   .     A
C1607  C1687   1.405   .     A
C1607  O1981   1.388   .     S
C1608  C1771   1.416   .     A
C1609  C1772   1.418   .     A
C1609  C1610   1.416   .     A
C1609  C530    1.420   1_565 S
C1610  C527    1.423   1_565 S
C1611  C1612   1.415   1_556 S
C1612  C1611   1.415   1_554 S
C1613  C1058   1.422   1_655 S
C1613  C1614   1.411   1_556 S
C1614  C1064   1.417   1_655 S
C1614  C1613   1.411   1_554 S
C1615  O2030   1.410   .     S
C1615  H1773   1.114   .     S
C1615  H1888   1.113   .     S
C1615  H1877   1.109   .     S
C1616  H1899   1.113   .     S
C1616  H1921   1.113   .     S
C1616  O2031   1.410   .     S
C1616  H1910   1.109   .     S
C1617  O2032   1.410   .     S
C1617  H1943   1.113   .     S
C1617  H1932   1.109   .     S
C1617  H1954   1.113   .     S
C1618  O1982   1.388   .     S
C1618  C1688   1.405   .     A
C1619  H1796   1.110   .     S
C1619  H1774   1.109   .     S
C1619  O2033   1.413   .     S
C1620  H1818   1.109   .     S
C1620  H1807   1.115   .     S
C1620  H1829   1.109   .     S
C1620  O2034   1.414   .     S
C1621  H1862   1.113   .     S
C1621  H1840   1.113   .     S
C1621  O2035   1.411   .     S
C1621  H1851   1.109   .     S
C1622  H1879   1.111   .     S
C1622  H1873   1.109   .     S
C1622  H1878   1.114   .     S
C1622  O2036   1.412   .     S
C1623  O2038   1.414   .     S
C1623  H1882   1.110   .     S
C1623  H1880   1.109   .     S
C1623  H833    1.114   1_565 S
C1624  O2039   1.413   .     S
C1624  H1884   1.114   .     S
C1624  H1885   1.110   .     S
C1624  H1883   1.109   .     S
C1625  H1887   1.114   .     S
C1625  H1886   1.109   .     S
C1625  H1889   1.110   .     S
C1625  O2040   1.414   .     S
C1626  H1892   1.109   .     S
C1626  H1890   1.115   .     S
C1626  O2041   1.414   .     S
C1626  H1891   1.109   .     S
C1627  H1895   1.113   .     S
C1627  O2042   1.411   .     S
C1627  H1893   1.113   .     S
C1627  H1894   1.109   .     S
C1628  H1897   1.114   .     S
C1628  H1898   1.113   .     S
C1628  O2043   1.410   .     S
C1628  H1896   1.109   .     S
C1629  O1983   1.386   .     S
C1629  C1689   1.405   .     A
C1630  H1900   1.109   .     S
C1630  H1901   1.114   .     S
C1630  O2044   1.410   .     S
C1630  H1902   1.113   .     S
C1631  H1905   1.113   .     S
C1631  H1904   1.109   .     S
C1631  H1903   1.114   .     S
C1631  O2045   1.410   .     S
C1632  H1907   1.109   .     S
C1632  O2046   1.410   .     S
C1632  H1908   1.113   .     S
C1632  H1906   1.113   .     S
C1633  O2047   1.417   .     S
C1633  H1912   1.109   .     S
C1633  H1911   1.116   .     S
C1633  H1909   1.108   .     S
C1634  H1914   1.110   .     S
C1634  H1915   1.108   .     S
C1634  H1913   1.117   .     S
C1634  O2049   1.415   .     S
C1635  H1917   1.116   .     S
C1635  H1916   1.109   .     S
C1635  H1918   1.107   .     S
C1635  O2050   1.416   .     S
C1636  H1920   1.109   .     S
C1636  O2051   1.421   .     S
C1636  H1922   1.107   .     S
C1636  H1919   1.117   .     S
C1637  H1923   1.109   .     S
C1637  H1925   1.108   .     S
C1637  H1924   1.116   .     S
C1637  O2052   1.416   .     S
C1638  H1927   1.109   .     S
C1638  H1926   1.116   .     S
C1638  H1928   1.109   .     S
C1638  O2053   1.416   .     S
C1639  H1930   1.116   .     S
C1639  O2054   1.415   .     S
C1639  H1931   1.108   .     S
C1639  H1929   1.108   .     S
C1640  C1690   1.398   .     A
C1640  O1984   1.384   .     S
C1641  O2055   1.415   .     S
C1641  H1934   1.108   .     S
C1641  H1933   1.116   .     S
C1641  H1935   1.108   .     S
C1642  H1937   1.116   .     S
C1642  O2056   1.418   .     S
C1642  H1938   1.108   .     S
C1642  H1936   1.108   .     S
C1643  H1940   1.110   .     S
C1643  O2057   1.415   .     S
C1643  H1941   1.109   .     S
C1643  H1939   1.117   .     S
C1644  H1942   1.109   .     S
C1644  H1945   1.108   .     S
C1644  O2058   1.415   .     S
C1644  H1944   1.117   .     S
C1645  H1948   1.107   .     S
C1645  H1946   1.117   .     S
C1645  O2060   1.417   .     S
C1645  H1947   1.110   .     S
C1646  O2061   1.414   .     S
C1646  H1950   1.116   .     S
C1646  H1951   1.108   .     S
C1646  H1949   1.110   .     S
C1647  H1952   1.116   .     S
C1647  H1955   1.108   .     S
C1647  O2062   1.417   .     S
C1647  H1953   1.109   .     S
C1648  H1956   1.109   .     S
C1648  O2063   1.415   .     S
C1648  H1957   1.117   .     S
C1648  H1958   1.109   .     S
C1649  H1961   1.108   .     S
C1649  H1960   1.110   .     S
C1649  H1959   1.116   .     S
C1649  O2064   1.415   .     S
C1650  O2065   1.416   .     S
C1650  H1964   1.108   .     S
C1650  H1962   1.108   .     S
C1650  H1963   1.116   .     S
C1651  C1711   1.459   .     S
C1651  C1718   1.401   .     A
C1651  C1049   1.404   1_655 S
C1652  H1775   1.116   .     S
C1652  O2066   1.416   .     S
C1652  H1776   1.108   .     S
C1652  H1777   1.109   .     S
C1653  O2067   1.416   .     S
C1653  H1779   1.117   .     S
C1653  H1778   1.110   .     S
C1653  H1780   1.107   .     S
C1654  H1781   1.116   .     S
C1654  H1782   1.108   .     S
C1654  O2068   1.418   .     S
C1654  H1783   1.108   .     S
C1655  H1786   1.116   .     S
C1655  H1784   1.108   .     S
C1655  H1787   1.109   .     S
C1655  O2069   1.416   .     S
C1656  O2071   1.421   .     S
C1656  H1790   1.107   .     S
C1656  H1789   1.109   .     S
C1656  H1788   1.117   .     S
C1657  H1792   1.116   .     S
C1657  O2072   1.415   .     S
C1657  H1791   1.109   .     S
C1657  H1793   1.108   .     S
C1658  H1795   1.109   .     S
C1658  H1797   1.108   .     S
C1658  O2073   1.415   .     S
C1658  H1794   1.117   .     S
C1659  H1800   1.109   .     S
C1659  O2074   1.415   .     S
C1659  H1798   1.109   .     S
C1659  H1799   1.117   .     S
C1660  H1802   1.110   .     S
C1660  H1801   1.117   .     S
C1660  O2075   1.416   .     S
C1660  H1803   1.107   .     S
C1661  H1805   1.116   .     S
C1661  O2076   1.414   .     S
C1661  H1804   1.110   .     S
C1661  H1806   1.108   .     S
C1662  C1712   1.451   .     S
C1662  C1729   1.400   .     A
C1663  O2077   1.415   .     S
C1663  H1810   1.108   .     S
C1663  H1809   1.109   .     S
C1663  H1808   1.117   .     S
C1664  H1811   1.110   .     S
C1664  H1813   1.107   .     S
C1664  H1812   1.116   .     S
C1664  O2078   1.415   .     S
C1665  H1814   1.116   .     S
C1665  H1816   1.108   .     S
C1665  O2079   1.416   .     S
C1665  H1815   1.109   .     S
C1666  H1819   1.117   .     S
C1666  H1817   1.110   .     S
C1666  O2080   1.415   .     S
C1666  H1820   1.108   .     S
C1667  H1822   1.109   .     S
C1667  O1967   1.415   .     S
C1667  H1821   1.117   .     S
C1667  H1823   1.108   .     S
C1668  H1826   1.109   .     S
C1668  O1968   1.414   .     S
C1668  H1824   1.114   .     S
C1668  H1825   1.110   .     S
C1669  H1828   1.113   .     S
C1669  O1969   1.412   .     S
C1669  H1830   1.109   .     S
C1669  H1303   1.112   1_655 S
C1670  H1831   1.109   .     S
C1670  H1832   1.116   .     S
C1670  O1970   1.413   .     S
C1670  H1833   1.109   .     S
C1671  H1835   1.115   .     S
C1671  H1834   1.109   .     S
C1671  H1836   1.109   .     S
C1672  H1838   1.114   .     S
C1672  H1837   1.110   .     S
C1672  O1972   1.415   .     S
C1672  H1839   1.107   .     S
C1673  C1709   1.452   .     S
C1673  C1696   1.405   .     A
C1674  H1843   1.109   .     S
C1674  H1842   1.113   .     S
C1674  O1973   1.411   .     S
C1675  H1846   1.109   .     S
C1675  H1845   1.113   .     S
C1675  H1844   1.113   .     S
C1676  H1849   1.109   .     S
C1676  H1848   1.115   .     S
C1676  H1847   1.109   .     S
C1676  O927    1.415   1_565 S
C1677  H1853   1.108   .     S
C1677  H1850   1.112   .     S
C1677  H1852   1.111   .     S
C1677  O1976   1.411   .     S
C1678  H1856   1.109   .     S
C1678  H1854   1.113   .     S
C1678  H1855   1.110   .     S
C1678  O1978   1.411   .     S
C1679  H1858   1.114   .     S
C1679  H1859   1.107   .     S
C1679  H1857   1.110   .     S
C1679  O1979   1.415   .     S
C1680  H1863   1.109   .     S
C1680  O1980   1.411   .     S
C1680  H1860   1.113   .     S
C1680  H1861   1.113   .     S
C1681  H1865   1.116   .     S
C1681  H1864   1.108   .     S
C1681  H1866   1.109   .     S
C1681  O1981   1.414   .     S
C1682  O1982   1.414   .     S
C1682  H1868   1.116   .     S
C1682  H1869   1.109   .     S
C1682  H1867   1.108   .     S
C1683  H1870   1.114   .     S
C1683  H1872   1.109   .     S
C1683  O1983   1.413   .     S
C1683  H1871   1.110   .     S
C1684  O1969   1.385   .     S
C1684  C1138   1.398   1_655 S
C1685  C1707   1.402   .     A
C1685  C1710   1.449   .     S
C1685  C703    1.401   1_565 S
C1686  H1874   1.112   .     S
C1686  H1875   1.114   .     S
C1686  H1876   1.109   .     S
C1686  O1984   1.412   .     S
C1687  C1715   1.453   .     S
C1687  C714    1.397   1_565 S
C1688  C1716   1.452   .     S
C1690  C1072   1.400   1_655 S
C1690  C1190   1.451   1_655 S
C1691  C1770   1.414   .     A
C1691  C1697   1.396   .     A
C1691  O2030   1.384   .     S
C1692  O2031   1.383   .     S
C1692  C1695   1.405   .     A
C1692  C1771   1.411   .     A
C1693  C1699   1.403   .     A
C1693  O2032   1.384   .     S
C1693  C1772   1.410   .     A
C1694  O2033   1.386   .     S
C1694  C1698   1.403   .     A
C1695  O2034   1.388   .     S
C1696  O1970   1.389   .     S
C1697  O2035   1.384   .     S
C1698  O2036   1.384   .     S
C1699  O2038   1.386   .     S
C1700  O2039   1.386   .     S
C1700  C1705   1.403   1_556 S
C1701  O2040   1.385   .     S
C1701  C1704   1.401   1_554 S
C1702  O2041   1.388   .     S
C1702  C1708   1.405   1_556 S
C1703  O2042   1.384   .     S
C1703  C1706   1.395   1_554 S
C1704  O2043   1.384   .     S
C1704  C1701   1.401   1_556 S
C1705  O2044   1.384   .     S
C1705  C1700   1.403   1_554 S
C1706  O2045   1.384   .     S
C1706  C1703   1.395   1_556 S
C1707  O1971   1.388   .     S
C1708  O2046   1.383   .     S
C1708  C1702   1.405   1_554 S
C1709  O2070   1.276   .     A
C1710  O1966   1.275   .     A
C1710  O989    1.277   1_565 S
C1711  O1977   1.275   .     A
C1711  O1524   1.281   1_655 S
C1712  O1985   1.274   .     A
C1713  O1462   1.281   1_655 A
C1713  C1165   1.459   1_655 S
C1713  O1466   1.276   1_655 S
C1714  O1987   1.279   .     A
C1714  O1991   1.273   .     S
C1715  O940    1.275   1_565 S
C1715  O944    1.278   1_565 S
C1716  O1994   1.275   .     A
C1716  O1989   1.278   .     A
C1717  O2023   1.281   .     A
C1717  O1995   1.280   .     A
C1718  O1972   1.385   .     S
C1718  C1770   1.408   .     A
C1719  O1996   1.277   .     A
C1719  O2024   1.281   .     A
C1720  O2021   1.281   .     A
C1720  O1997   1.276   .     A
C1721  O1998   1.276   .     A
C1721  O2022   1.278   .     A
C1722  O2028   1.280   .     A
C1722  O1999   1.279   .     A
C1723  O2000   1.282   .     A
C1723  O2029   1.278   .     A
C1724  O2001   1.281   .     A
C1724  O2025   1.283   .     A
C1725  O2002   1.281   .     A
C1725  O2027   1.282   .     A
C1726  O2003   1.278   .     A
C1726  O2014   1.277   .     A
C1727  O2005   1.279   .     A
C1727  O2016   1.274   .     A
C1728  O2006   1.283   .     A
C1728  O2012   1.278   .     A
C1729  O1973   1.385   .     S
C1729  C1771   1.407   .     A
C1730  O2007   1.279   .     A
C1730  O2013   1.279   .     A
C1731  O2019   1.282   .     A
C1731  O2008   1.281   .     A
C1732  O2009   1.283   .     A
C1732  O2020   1.280   .     A
C1733  O2017   1.279   .     A
C1733  O2010   1.280   .     A
C1734  O2018   1.279   .     A
C1734  O2011   1.281   .     A
C1735  O2047   1.386   .     S
C1735  C1752   1.401   .     A
C1736  C1750   1.401   .     A
C1736  O2049   1.386   .     S
C1737  C1749   1.400   .     A
C1737  O2050   1.388   .     S
C1738  C1748   1.396   .     A
C1738  O2051   1.386   .     S
C1739  C1747   1.399   .     A
C1739  O2052   1.388   .     S
C1740  O1974   1.385   .     S
C1740  C1772   1.410   .     A
C1740  C625    1.398   1_565 S
C1741  C1746   1.400   .     A
C1741  O2053   1.386   .     S
C1742  C1745   1.402   .     A
C1742  O2054   1.384   .     S
C1743  O2055   1.387   .     S
C1743  C1744   1.399   .     A
C1744  O2056   1.385   .     S
C1745  O2057   1.386   .     S
C1746  O2058   1.386   .     S
C1747  O2060   1.388   .     S
C1748  O2061   1.388   .     S
C1749  O2062   1.386   .     S
C1750  O2063   1.386   .     S
C1751  O1975   1.389   .     S
C1752  O2064   1.387   .     S
C1753  C1769   1.401   .     A
C1753  O2065   1.385   .     S
C1754  O2066   1.386   .     S
C1754  C1768   1.401   .     A
C1755  O2067   1.388   .     S
C1755  C1767   1.401   .     A
C1756  C1766   1.398   .     A
C1756  O2068   1.385   .     S
C1757  O2069   1.386   .     S
C1757  C1765   1.400   .     A
C1758  O2071   1.386   .     S
C1758  C1764   1.394   .     A
C1759  O2072   1.387   .     S
C1759  C1763   1.401   .     A
C1760  O2073   1.385   .     S
C1760  C1761   1.402   .     A
C1761  O2074   1.386   .     S
C1762  O1976   1.385   .     S
C1763  O2075   1.387   .     S
C1764  O2076   1.389   .     S
C1765  O2077   1.386   .     S
C1766  O2078   1.388   .     S
C1767  O2079   1.387   .     S
C1768  O2080   1.386   .     S
C1769  O1967   1.386   .     S
C1770  C1082   1.417   1_655 S
H1785  C571    1.114   1_565 S
H1841  C1150   1.113   1_655 S
O1965  Zn2092  1.943   .     S
O1965  Zn2081  1.950   .     S
O1965  Zn2084  1.943   .     S
O1966  Zn2083  1.949   .     S
O1971  C623    1.415   1_565 S
O1974  C627    1.411   1_565 S
O1977  Zn2086  1.949   .     S
O1985  Zn2085  1.949   .     S
O1986  Zn2095  1.945   .     S
O1987  Zn2094  1.945   .     S
O1988  Zn2089  1.945   .     S
O1989  Zn2081  1.945   .     S
O1990  Zn2091  1.949   .     S
O1991  Zn2090  1.949   .     S
O1992  Zn2093  1.949   .     S
O1993  Zn2093  1.943   .     S
O1993  Zn2089  1.950   .     S
O1993  Zn2087  1.950   .     S
O1994  Zn2092  1.949   .     S
O1995  Zn2084  1.938   .     S
O1996  Zn2083  1.938   .     S
O1997  Zn2086  1.934   .     S
O1998  Zn2085  1.934   .     S
O1999  Zn2088  1.934   .     S
O2000  Zn2087  1.934   .     S
O2001  Zn2082  1.934   .     S
O2002  Zn2096  1.934   .     S
O2003  Zn2083  1.934   .     S
O2004  Zn2094  1.950   .     S
O2004  Zn2090  1.943   .     S
O2004  Zn2082  1.950   .     S
O2005  Zn2084  1.934   .     S
O2006  Zn2096  1.935   .     S
O2007  Zn2082  1.935   .     S
O2008  Zn2087  1.934   .     S
O2009  Zn2088  1.934   .     S
O2010  Zn2085  1.938   .     S
O2011  Zn2086  1.938   .     S
O2012  Zn1567  1.938   1_655 S
O2013  Zn2090  1.938   .     S
O2014  Zn1045  1.934   1_565 S
O2015  Zn2085  1.943   .     S
O2015  Zn2091  1.943   .     S
O2015  Zn2095  1.950   .     S
O2016  Zn2092  1.934   .     S
O2017  Zn2095  1.934   .     S
O2018  Zn1570  1.934   1_655 S
O2019  Zn2089  1.934   .     S
O2020  Zn1033  1.934   1_565 S
O2021  Zn1566  1.934   1_655 S
O2022  Zn2091  1.934   .     S
O2023  Zn2081  1.935   .     S
O2024  Zn1041  1.935   1_565 S
O2025  Zn2094  1.934   .     S
O2026  Zn2088  1.945   .     S
O2026  C661    1.277   1_565 S
O2027  Zn1571  1.934   1_655 S
O2028  Zn1044  1.938   1_565 S
O2029  Zn2093  1.938   .     S
O2037  Zn2087  1.945   .     S
O2048  Zn2082  1.945   .     S
O2059  Zn2096  1.945   .     S
O2059  C1188   1.278   1_655 S
O2070  Zn2084  1.949   .     S
Zn2083 O945    1.943   1_565 S
Zn2086 O1480   1.943   1_655 S
Zn2088 O917    1.950   1_565 S
Zn2096 O1491   1.950   1_655 S
