data_str_m2_o10_o18_pcu_sym.168
_audit_creation_date              2020-01-03
_audit_creation_method            'Materials Studio'
_symmetry_space_group_name_H-M    'P1'
_symmetry_Int_Tables_number       1
_symmetry_cell_setting            triclinic
loop_
_symmetry_equiv_pos_as_xyz
  x,y,z
_cell_length_a                    22.6984
_cell_length_b                    26.0521
_cell_length_c                    31.7264
_cell_angle_alpha                 95.9443
_cell_angle_beta                  77.5288
_cell_angle_gamma                 102.4408
loop_
_atom_site_label
_atom_site_type_symbol
_atom_site_fract_x
_atom_site_fract_y
_atom_site_fract_z
_atom_site_U_iso_or_equiv
_atom_site_adp_type
_atom_site_occupancy
C1     C     0.18079   0.26642   0.25230   0.00000  Uiso   1.00
C2     C     0.15255   0.06691   0.24770   0.00000  Uiso   1.00
C3     C     0.10006   0.12790   0.03611   0.00000  Uiso   1.00
C4     C     0.23325   0.20553   0.46391   0.00000  Uiso   1.00
C5     C     0.05708   0.11399   0.00958   0.00000  Uiso   1.00
C6     C     0.27623   0.21944   0.49044   0.00000  Uiso   1.00
C7     C     0.18500   0.32198   0.25831   0.00000  Uiso   1.00
C8     C     0.14833   0.01136   0.24169   0.00000  Uiso   1.00
C9     C     0.12939   0.15752   0.33197   0.00000  Uiso   1.00
C10    C     0.20395   0.17582   0.16803   0.00000  Uiso   1.00
C11    C     0.10936   0.14338   0.37777   0.00000  Uiso   1.00
C12    C     0.22397   0.18999   0.12224   0.00000  Uiso   1.00
C13    C     0.03152   0.10832   0.43886   0.00000  Uiso   1.00
C14    C     0.30180   0.22510   0.06116   0.00000  Uiso   1.00
C15    C     0.04903   0.11623   0.39448   0.00000  Uiso   1.00
C16    C     0.28430   0.21716   0.10554   0.00000  Uiso   1.00
C17    C     0.15373   0.15079   0.40425   0.00000  Uiso   1.00
C18    C     0.17959   0.18261   0.09577   0.00000  Uiso   1.00
C19    C     0.13427   0.15183   0.44949   0.00000  Uiso   1.00
C20    C     0.19904   0.18159   0.05053   0.00000  Uiso   1.00
C21    C     0.07332   0.12642   0.46637   0.00000  Uiso   1.00
C22    C     0.25999   0.20700   0.03364   0.00000  Uiso   1.00
C23    C     0.17548   0.17255   0.47800   0.00000  Uiso   1.00
C24    C     0.15783   0.16087   0.02201   0.00000  Uiso   1.00
Cu25   Cu    0.10737   0.16108   0.24516   0.00000  Uiso   1.00
Cu26   Cu    0.22596   0.17225   0.25483   0.00000  Uiso   1.00
H27    H     0.01203   0.09104   0.02235   0.00000  Uiso   1.00
H28    H     0.32128   0.24240   0.47767   0.00000  Uiso   1.00
H29    H     0.31922   0.08643   0.45179   0.00000  Uiso   1.00
H30    H     0.01409   0.24699   0.04824   0.00000  Uiso   1.00
H31    H     0.08732   0.11254   0.06781   0.00000  Uiso   1.00
H32    H     0.24599   0.22089   0.43220   0.00000  Uiso   1.00
N33    N     0.31506   0.18068   0.26212   0.00000  Uiso   1.00
N34    N     0.01827   0.15265   0.23788   0.00000  Uiso   1.00
O35    O     0.12815   0.23809   0.24686   0.00000  Uiso   1.00
O36    O     0.20518   0.09524   0.25314   0.00000  Uiso   1.00
O37    O     0.22829   0.24753   0.25502   0.00000  Uiso   1.00
O38    O     0.10504   0.08580   0.24497   0.00000  Uiso   1.00
O39    O     0.08851   0.15930   0.30854   0.00000  Uiso   1.00
O40    O     0.24482   0.17403   0.19145   0.00000  Uiso   1.00
O41    O     0.18866   0.16874   0.31671   0.00000  Uiso   1.00
O42    O     0.14468   0.16460   0.18329   0.00000  Uiso   1.00
C43    C     0.11772   0.19727   0.11470   0.00000  Uiso   1.00
H44    H     0.09921   0.21240   0.08988   0.00000  Uiso   1.00
H45    H     0.08371   0.16310   0.12901   0.00000  Uiso   1.00
H46    H     0.12272   0.23018   0.13976   0.00000  Uiso   1.00
C47    C     0.21562   0.13614   0.38533   0.00000  Uiso   1.00
H48    H     0.24962   0.17031   0.37100   0.00000  Uiso   1.00
H49    H     0.23413   0.12103   0.41015   0.00000  Uiso   1.00
H50    H     0.21063   0.10321   0.36029   0.00000  Uiso   1.00
C51    C     0.32578   0.24630   0.13519   0.00000  Uiso   1.00
H52    H     0.30034   0.27159   0.15964   0.00000  Uiso   1.00
H53    H     0.00828   0.21838   0.15205   0.00000  Uiso   1.00
H54    H     0.03342   0.27261   0.11738   0.00000  Uiso   1.00
C55    C     0.00754   0.08708   0.36483   0.00000  Uiso   1.00
H56    H     0.03296   0.06177   0.34039   0.00000  Uiso   1.00
H57    H     0.29988   0.06079   0.38265   0.00000  Uiso   1.00
H58    H     0.32504   0.11500   0.34796   0.00000  Uiso   1.00
F59    F     0.22279   0.01592   0.28453   0.00000  Uiso   1.00
F60    F     0.11054   0.31742   0.21547   0.00000  Uiso   1.00
C61    C     0.00623   0.22989   0.28318   0.00000  Uiso   1.00
H62    H     0.03835   0.22580   0.30344   0.00000  Uiso   1.00
H63    H     0.02590   0.25987   0.25906   0.00000  Uiso   1.00
H64    H     0.30112   0.24409   0.30585   0.00000  Uiso   1.00
C65    C     0.32711   0.10344   0.21682   0.00000  Uiso   1.00
H66    H     0.29498   0.10753   0.19656   0.00000  Uiso   1.00
H67    H     0.03221   0.08924   0.19414   0.00000  Uiso   1.00
H68    H     0.30743   0.07346   0.24094   0.00000  Uiso   1.00
C69    C     0.51412   0.26642   0.25230   0.00000  Uiso   1.00
C70    C     0.48588   0.06691   0.24770   0.00000  Uiso   1.00
C71    C     0.43339   0.12790   0.03611   0.00000  Uiso   1.00
C72    C     0.56659   0.20553   0.46391   0.00000  Uiso   1.00
C73    C     0.39041   0.11399   0.00958   0.00000  Uiso   1.00
C74    C     0.60957   0.21944   0.49044   0.00000  Uiso   1.00
C75    C     0.51834   0.32198   0.25831   0.00000  Uiso   1.00
C76    C     0.48167   0.01136   0.24169   0.00000  Uiso   1.00
C77    C     0.46272   0.15752   0.33197   0.00000  Uiso   1.00
C78    C     0.53728   0.17582   0.16803   0.00000  Uiso   1.00
C79    C     0.44269   0.14338   0.37777   0.00000  Uiso   1.00
C80    C     0.55731   0.18999   0.12224   0.00000  Uiso   1.00
C81    C     0.36485   0.10832   0.43886   0.00000  Uiso   1.00
C82    C     0.63513   0.22510   0.06116   0.00000  Uiso   1.00
C83    C     0.38236   0.11623   0.39448   0.00000  Uiso   1.00
C84    C     0.61763   0.21716   0.10554   0.00000  Uiso   1.00
C85    C     0.48707   0.15079   0.40425   0.00000  Uiso   1.00
C86    C     0.51292   0.18261   0.09577   0.00000  Uiso   1.00
C87    C     0.46760   0.15183   0.44949   0.00000  Uiso   1.00
C88    C     0.53238   0.18159   0.05053   0.00000  Uiso   1.00
C89    C     0.40665   0.12642   0.46637   0.00000  Uiso   1.00
C90    C     0.59333   0.20700   0.03364   0.00000  Uiso   1.00
C91    C     0.50881   0.17255   0.47800   0.00000  Uiso   1.00
C92    C     0.49117   0.16087   0.02201   0.00000  Uiso   1.00
Cu93   Cu    0.44071   0.16108   0.24516   0.00000  Uiso   1.00
Cu94   Cu    0.55929   0.17225   0.25483   0.00000  Uiso   1.00
H95    H     0.34536   0.09104   0.02235   0.00000  Uiso   1.00
H96    H     0.65461   0.24240   0.47767   0.00000  Uiso   1.00
H97    H     0.65255   0.08643   0.45179   0.00000  Uiso   1.00
H98    H     0.34742   0.24699   0.04824   0.00000  Uiso   1.00
H99    H     0.42065   0.11254   0.06781   0.00000  Uiso   1.00
H100   H     0.57933   0.22089   0.43220   0.00000  Uiso   1.00
N101   N     0.64839   0.18068   0.26212   0.00000  Uiso   1.00
N102   N     0.35161   0.15265   0.23788   0.00000  Uiso   1.00
O103   O     0.46148   0.23809   0.24686   0.00000  Uiso   1.00
O104   O     0.53852   0.09524   0.25314   0.00000  Uiso   1.00
O105   O     0.56163   0.24753   0.25502   0.00000  Uiso   1.00
O106   O     0.43837   0.08580   0.24497   0.00000  Uiso   1.00
O107   O     0.42185   0.15930   0.30854   0.00000  Uiso   1.00
O108   O     0.57815   0.17403   0.19145   0.00000  Uiso   1.00
O109   O     0.52199   0.16874   0.31671   0.00000  Uiso   1.00
O110   O     0.47801   0.16460   0.18329   0.00000  Uiso   1.00
C111   C     0.45105   0.19727   0.11470   0.00000  Uiso   1.00
H112   H     0.43255   0.21240   0.08988   0.00000  Uiso   1.00
H113   H     0.41704   0.16310   0.12901   0.00000  Uiso   1.00
H114   H     0.45605   0.23018   0.13976   0.00000  Uiso   1.00
C115   C     0.54895   0.13614   0.38533   0.00000  Uiso   1.00
H116   H     0.58295   0.17031   0.37100   0.00000  Uiso   1.00
H117   H     0.56746   0.12103   0.41015   0.00000  Uiso   1.00
H118   H     0.54396   0.10321   0.36029   0.00000  Uiso   1.00
C119   C     0.65911   0.24630   0.13519   0.00000  Uiso   1.00
H120   H     0.63367   0.27159   0.15964   0.00000  Uiso   1.00
H121   H     0.34161   0.21838   0.15205   0.00000  Uiso   1.00
H122   H     0.36676   0.27261   0.11738   0.00000  Uiso   1.00
C123   C     0.34087   0.08708   0.36483   0.00000  Uiso   1.00
H124   H     0.36630   0.06177   0.34039   0.00000  Uiso   1.00
H125   H     0.63322   0.06079   0.38265   0.00000  Uiso   1.00
H126   H     0.65837   0.11500   0.34796   0.00000  Uiso   1.00
F127   F     0.55612   0.01592   0.28453   0.00000  Uiso   1.00
F128   F     0.44388   0.31742   0.21547   0.00000  Uiso   1.00
C129   C     0.33956   0.22989   0.28318   0.00000  Uiso   1.00
H130   H     0.37168   0.22580   0.30344   0.00000  Uiso   1.00
H131   H     0.35924   0.25987   0.25906   0.00000  Uiso   1.00
H132   H     0.63445   0.24409   0.30585   0.00000  Uiso   1.00
C133   C     0.66044   0.10344   0.21682   0.00000  Uiso   1.00
H134   H     0.62832   0.10753   0.19656   0.00000  Uiso   1.00
H135   H     0.36555   0.08924   0.19414   0.00000  Uiso   1.00
H136   H     0.64076   0.07346   0.24094   0.00000  Uiso   1.00
C137   C     0.84745   0.26642   0.25230   0.00000  Uiso   1.00
C138   C     0.81921   0.06691   0.24770   0.00000  Uiso   1.00
C139   C     0.76672   0.12790   0.03611   0.00000  Uiso   1.00
C140   C     0.89992   0.20553   0.46391   0.00000  Uiso   1.00
C141   C     0.72374   0.11399   0.00958   0.00000  Uiso   1.00
C142   C     0.94290   0.21944   0.49044   0.00000  Uiso   1.00
C143   C     0.85167   0.32198   0.25831   0.00000  Uiso   1.00
C144   C     0.81500   0.01136   0.24169   0.00000  Uiso   1.00
C145   C     0.79605   0.15752   0.33197   0.00000  Uiso   1.00
C146   C     0.87061   0.17582   0.16803   0.00000  Uiso   1.00
C147   C     0.77602   0.14338   0.37777   0.00000  Uiso   1.00
C148   C     0.89064   0.18999   0.12224   0.00000  Uiso   1.00
C149   C     0.69818   0.10832   0.43886   0.00000  Uiso   1.00
C150   C     0.96846   0.22510   0.06116   0.00000  Uiso   1.00
C151   C     0.71569   0.11623   0.39448   0.00000  Uiso   1.00
C152   C     0.95096   0.21716   0.10554   0.00000  Uiso   1.00
C153   C     0.82040   0.15079   0.40425   0.00000  Uiso   1.00
C154   C     0.84626   0.18261   0.09577   0.00000  Uiso   1.00
C155   C     0.80094   0.15183   0.44949   0.00000  Uiso   1.00
C156   C     0.86571   0.18159   0.05053   0.00000  Uiso   1.00
C157   C     0.73999   0.12642   0.46637   0.00000  Uiso   1.00
C158   C     0.92666   0.20700   0.03364   0.00000  Uiso   1.00
C159   C     0.84215   0.17255   0.47800   0.00000  Uiso   1.00
C160   C     0.82450   0.16087   0.02201   0.00000  Uiso   1.00
Cu161  Cu    0.77404   0.16108   0.24516   0.00000  Uiso   1.00
Cu162  Cu    0.89263   0.17225   0.25483   0.00000  Uiso   1.00
H163   H     0.67869   0.09104   0.02235   0.00000  Uiso   1.00
H164   H     0.98795   0.24240   0.47767   0.00000  Uiso   1.00
H165   H     0.98589   0.08643   0.45179   0.00000  Uiso   1.00
H166   H     0.68076   0.24699   0.04824   0.00000  Uiso   1.00
H167   H     0.75398   0.11254   0.06781   0.00000  Uiso   1.00
H168   H     0.91266   0.22089   0.43220   0.00000  Uiso   1.00
N169   N     0.98173   0.18068   0.26212   0.00000  Uiso   1.00
N170   N     0.68494   0.15265   0.23788   0.00000  Uiso   1.00
O171   O     0.79482   0.23809   0.24686   0.00000  Uiso   1.00
O172   O     0.87185   0.09524   0.25314   0.00000  Uiso   1.00
O173   O     0.89496   0.24753   0.25502   0.00000  Uiso   1.00
O174   O     0.77171   0.08580   0.24497   0.00000  Uiso   1.00
O175   O     0.75518   0.15930   0.30854   0.00000  Uiso   1.00
O176   O     0.91149   0.17403   0.19145   0.00000  Uiso   1.00
O177   O     0.85532   0.16874   0.31671   0.00000  Uiso   1.00
O178   O     0.81134   0.16460   0.18329   0.00000  Uiso   1.00
C179   C     0.78439   0.19727   0.11470   0.00000  Uiso   1.00
H180   H     0.76588   0.21240   0.08988   0.00000  Uiso   1.00
H181   H     0.75037   0.16310   0.12901   0.00000  Uiso   1.00
H182   H     0.78938   0.23018   0.13976   0.00000  Uiso   1.00
C183   C     0.88228   0.13614   0.38533   0.00000  Uiso   1.00
H184   H     0.91629   0.17031   0.37100   0.00000  Uiso   1.00
H185   H     0.90080   0.12103   0.41015   0.00000  Uiso   1.00
H186   H     0.87730   0.10321   0.36029   0.00000  Uiso   1.00
C187   C     0.99245   0.24630   0.13519   0.00000  Uiso   1.00
H188   H     0.96701   0.27159   0.15964   0.00000  Uiso   1.00
H189   H     0.67495   0.21838   0.15205   0.00000  Uiso   1.00
H190   H     0.70009   0.27261   0.11738   0.00000  Uiso   1.00
C191   C     0.67420   0.08708   0.36483   0.00000  Uiso   1.00
H192   H     0.69963   0.06177   0.34039   0.00000  Uiso   1.00
H193   H     0.96655   0.06079   0.38265   0.00000  Uiso   1.00
H194   H     0.99171   0.11500   0.34796   0.00000  Uiso   1.00
F195   F     0.88946   0.01592   0.28453   0.00000  Uiso   1.00
F196   F     0.77721   0.31742   0.21547   0.00000  Uiso   1.00
C197   C     0.67289   0.22989   0.28318   0.00000  Uiso   1.00
H198   H     0.70502   0.22580   0.30344   0.00000  Uiso   1.00
H199   H     0.69257   0.25987   0.25906   0.00000  Uiso   1.00
H200   H     0.96779   0.24409   0.30585   0.00000  Uiso   1.00
C201   C     0.99377   0.10344   0.21682   0.00000  Uiso   1.00
H202   H     0.96165   0.10753   0.19656   0.00000  Uiso   1.00
H203   H     0.69888   0.08924   0.19414   0.00000  Uiso   1.00
H204   H     0.97410   0.07346   0.24094   0.00000  Uiso   1.00
C205   C     0.18079   0.59975   0.25230   0.00000  Uiso   1.00
C206   C     0.15255   0.40025   0.24770   0.00000  Uiso   1.00
C207   C     0.10006   0.46124   0.03611   0.00000  Uiso   1.00
C208   C     0.23325   0.53886   0.46391   0.00000  Uiso   1.00
C209   C     0.05708   0.44733   0.00958   0.00000  Uiso   1.00
C210   C     0.27623   0.55277   0.49044   0.00000  Uiso   1.00
C211   C     0.18500   0.65531   0.25831   0.00000  Uiso   1.00
C212   C     0.14833   0.34469   0.24169   0.00000  Uiso   1.00
C213   C     0.12939   0.49086   0.33197   0.00000  Uiso   1.00
C214   C     0.20395   0.50915   0.16803   0.00000  Uiso   1.00
C215   C     0.10936   0.47671   0.37777   0.00000  Uiso   1.00
C216   C     0.22397   0.52333   0.12224   0.00000  Uiso   1.00
C217   C     0.03152   0.44165   0.43886   0.00000  Uiso   1.00
C218   C     0.30180   0.55843   0.06116   0.00000  Uiso   1.00
C219   C     0.04903   0.44956   0.39448   0.00000  Uiso   1.00
C220   C     0.28430   0.55050   0.10554   0.00000  Uiso   1.00
C221   C     0.15373   0.48412   0.40425   0.00000  Uiso   1.00
C222   C     0.17959   0.51594   0.09577   0.00000  Uiso   1.00
C223   C     0.13427   0.48516   0.44949   0.00000  Uiso   1.00
C224   C     0.19904   0.51492   0.05053   0.00000  Uiso   1.00
C225   C     0.07332   0.45976   0.46637   0.00000  Uiso   1.00
C226   C     0.25999   0.54033   0.03364   0.00000  Uiso   1.00
C227   C     0.17548   0.50589   0.47800   0.00000  Uiso   1.00
C228   C     0.15783   0.49421   0.02201   0.00000  Uiso   1.00
Cu229  Cu    0.10737   0.49441   0.24516   0.00000  Uiso   1.00
Cu230  Cu    0.22596   0.50559   0.25483   0.00000  Uiso   1.00
H231   H     0.01203   0.42437   0.02235   0.00000  Uiso   1.00
H232   H     0.32128   0.57573   0.47767   0.00000  Uiso   1.00
H233   H     0.31922   0.41977   0.45179   0.00000  Uiso   1.00
H234   H     0.01409   0.58033   0.04824   0.00000  Uiso   1.00
H235   H     0.08732   0.44588   0.06781   0.00000  Uiso   1.00
H236   H     0.24599   0.55422   0.43220   0.00000  Uiso   1.00
N237   N     0.31506   0.51401   0.26212   0.00000  Uiso   1.00
N238   N     0.01827   0.48599   0.23788   0.00000  Uiso   1.00
O239   O     0.12815   0.57142   0.24686   0.00000  Uiso   1.00
O240   O     0.20518   0.42858   0.25314   0.00000  Uiso   1.00
O241   O     0.22829   0.58086   0.25502   0.00000  Uiso   1.00
O242   O     0.10504   0.41914   0.24497   0.00000  Uiso   1.00
O243   O     0.08851   0.49263   0.30854   0.00000  Uiso   1.00
O244   O     0.24482   0.50737   0.19145   0.00000  Uiso   1.00
O245   O     0.18866   0.50207   0.31671   0.00000  Uiso   1.00
O246   O     0.14468   0.49793   0.18329   0.00000  Uiso   1.00
C247   C     0.11772   0.53061   0.11470   0.00000  Uiso   1.00
H248   H     0.09921   0.54574   0.08988   0.00000  Uiso   1.00
H249   H     0.08371   0.49644   0.12901   0.00000  Uiso   1.00
H250   H     0.12272   0.56352   0.13976   0.00000  Uiso   1.00
C251   C     0.21562   0.46947   0.38533   0.00000  Uiso   1.00
H252   H     0.24962   0.50364   0.37100   0.00000  Uiso   1.00
H253   H     0.23413   0.45437   0.41015   0.00000  Uiso   1.00
H254   H     0.21063   0.43654   0.36029   0.00000  Uiso   1.00
C255   C     0.32578   0.57963   0.13519   0.00000  Uiso   1.00
H256   H     0.30034   0.60492   0.15964   0.00000  Uiso   1.00
H257   H     0.00828   0.55171   0.15205   0.00000  Uiso   1.00
H258   H     0.03342   0.60594   0.11738   0.00000  Uiso   1.00
C259   C     0.00754   0.42042   0.36483   0.00000  Uiso   1.00
H260   H     0.03296   0.39511   0.34039   0.00000  Uiso   1.00
H261   H     0.29988   0.39412   0.38265   0.00000  Uiso   1.00
H262   H     0.32504   0.44833   0.34796   0.00000  Uiso   1.00
F263   F     0.22279   0.34925   0.28453   0.00000  Uiso   1.00
F264   F     0.11054   0.65075   0.21547   0.00000  Uiso   1.00
C265   C     0.00623   0.56323   0.28318   0.00000  Uiso   1.00
H266   H     0.03835   0.55913   0.30344   0.00000  Uiso   1.00
H267   H     0.02590   0.59321   0.25906   0.00000  Uiso   1.00
H268   H     0.30112   0.57743   0.30585   0.00000  Uiso   1.00
C269   C     0.32711   0.43677   0.21682   0.00000  Uiso   1.00
H270   H     0.29498   0.44087   0.19656   0.00000  Uiso   1.00
H271   H     0.03221   0.42257   0.19414   0.00000  Uiso   1.00
H272   H     0.30743   0.40679   0.24094   0.00000  Uiso   1.00
C273   C     0.51412   0.59975   0.25230   0.00000  Uiso   1.00
C274   C     0.48588   0.40025   0.24770   0.00000  Uiso   1.00
C275   C     0.43339   0.46124   0.03611   0.00000  Uiso   1.00
C276   C     0.56659   0.53886   0.46391   0.00000  Uiso   1.00
C277   C     0.39041   0.44733   0.00958   0.00000  Uiso   1.00
C278   C     0.60957   0.55277   0.49044   0.00000  Uiso   1.00
C279   C     0.51834   0.65531   0.25831   0.00000  Uiso   1.00
C280   C     0.48167   0.34469   0.24169   0.00000  Uiso   1.00
C281   C     0.46272   0.49086   0.33197   0.00000  Uiso   1.00
C282   C     0.53728   0.50915   0.16803   0.00000  Uiso   1.00
C283   C     0.44269   0.47671   0.37777   0.00000  Uiso   1.00
C284   C     0.55731   0.52333   0.12224   0.00000  Uiso   1.00
C285   C     0.36485   0.44165   0.43886   0.00000  Uiso   1.00
C286   C     0.63513   0.55843   0.06116   0.00000  Uiso   1.00
C287   C     0.38236   0.44956   0.39448   0.00000  Uiso   1.00
C288   C     0.61763   0.55050   0.10554   0.00000  Uiso   1.00
C289   C     0.48707   0.48412   0.40425   0.00000  Uiso   1.00
C290   C     0.51292   0.51594   0.09577   0.00000  Uiso   1.00
C291   C     0.46760   0.48516   0.44949   0.00000  Uiso   1.00
C292   C     0.53238   0.51492   0.05053   0.00000  Uiso   1.00
C293   C     0.40665   0.45976   0.46637   0.00000  Uiso   1.00
C294   C     0.59333   0.54033   0.03364   0.00000  Uiso   1.00
C295   C     0.50881   0.50589   0.47800   0.00000  Uiso   1.00
C296   C     0.49117   0.49421   0.02201   0.00000  Uiso   1.00
Cu297  Cu    0.44071   0.49441   0.24516   0.00000  Uiso   1.00
Cu298  Cu    0.55929   0.50559   0.25483   0.00000  Uiso   1.00
H299   H     0.34536   0.42437   0.02235   0.00000  Uiso   1.00
H300   H     0.65461   0.57573   0.47767   0.00000  Uiso   1.00
H301   H     0.65255   0.41977   0.45179   0.00000  Uiso   1.00
H302   H     0.34742   0.58033   0.04824   0.00000  Uiso   1.00
H303   H     0.42065   0.44588   0.06781   0.00000  Uiso   1.00
H304   H     0.57933   0.55422   0.43220   0.00000  Uiso   1.00
N305   N     0.64839   0.51401   0.26212   0.00000  Uiso   1.00
N306   N     0.35161   0.48599   0.23788   0.00000  Uiso   1.00
O307   O     0.46148   0.57142   0.24686   0.00000  Uiso   1.00
O308   O     0.53852   0.42858   0.25314   0.00000  Uiso   1.00
O309   O     0.56163   0.58086   0.25502   0.00000  Uiso   1.00
O310   O     0.43837   0.41914   0.24497   0.00000  Uiso   1.00
O311   O     0.42185   0.49263   0.30854   0.00000  Uiso   1.00
O312   O     0.57815   0.50737   0.19145   0.00000  Uiso   1.00
O313   O     0.52199   0.50207   0.31671   0.00000  Uiso   1.00
O314   O     0.47801   0.49793   0.18329   0.00000  Uiso   1.00
C315   C     0.45105   0.53061   0.11470   0.00000  Uiso   1.00
H316   H     0.43255   0.54574   0.08988   0.00000  Uiso   1.00
H317   H     0.41704   0.49644   0.12901   0.00000  Uiso   1.00
H318   H     0.45605   0.56352   0.13976   0.00000  Uiso   1.00
C319   C     0.54895   0.46947   0.38533   0.00000  Uiso   1.00
H320   H     0.58295   0.50364   0.37100   0.00000  Uiso   1.00
H321   H     0.56746   0.45437   0.41015   0.00000  Uiso   1.00
H322   H     0.54396   0.43654   0.36029   0.00000  Uiso   1.00
C323   C     0.65911   0.57963   0.13519   0.00000  Uiso   1.00
H324   H     0.63367   0.60492   0.15964   0.00000  Uiso   1.00
H325   H     0.34161   0.55171   0.15205   0.00000  Uiso   1.00
H326   H     0.36676   0.60594   0.11738   0.00000  Uiso   1.00
C327   C     0.34087   0.42042   0.36483   0.00000  Uiso   1.00
H328   H     0.36630   0.39511   0.34039   0.00000  Uiso   1.00
H329   H     0.63322   0.39412   0.38265   0.00000  Uiso   1.00
H330   H     0.65837   0.44833   0.34796   0.00000  Uiso   1.00
F331   F     0.55612   0.34925   0.28453   0.00000  Uiso   1.00
F332   F     0.44388   0.65075   0.21547   0.00000  Uiso   1.00
C333   C     0.33956   0.56323   0.28318   0.00000  Uiso   1.00
H334   H     0.37168   0.55913   0.30344   0.00000  Uiso   1.00
H335   H     0.35924   0.59321   0.25906   0.00000  Uiso   1.00
H336   H     0.63445   0.57743   0.30585   0.00000  Uiso   1.00
C337   C     0.66044   0.43677   0.21682   0.00000  Uiso   1.00
H338   H     0.62832   0.44087   0.19656   0.00000  Uiso   1.00
H339   H     0.36555   0.42257   0.19414   0.00000  Uiso   1.00
H340   H     0.64076   0.40679   0.24094   0.00000  Uiso   1.00
C341   C     0.84745   0.59975   0.25230   0.00000  Uiso   1.00
C342   C     0.81921   0.40025   0.24770   0.00000  Uiso   1.00
C343   C     0.76672   0.46124   0.03611   0.00000  Uiso   1.00
C344   C     0.89992   0.53886   0.46391   0.00000  Uiso   1.00
C345   C     0.72374   0.44733   0.00958   0.00000  Uiso   1.00
C346   C     0.94290   0.55277   0.49044   0.00000  Uiso   1.00
C347   C     0.85167   0.65531   0.25831   0.00000  Uiso   1.00
C348   C     0.81500   0.34469   0.24169   0.00000  Uiso   1.00
C349   C     0.79605   0.49086   0.33197   0.00000  Uiso   1.00
C350   C     0.87061   0.50915   0.16803   0.00000  Uiso   1.00
C351   C     0.77602   0.47671   0.37777   0.00000  Uiso   1.00
C352   C     0.89064   0.52333   0.12224   0.00000  Uiso   1.00
C353   C     0.69818   0.44165   0.43886   0.00000  Uiso   1.00
C354   C     0.96846   0.55843   0.06116   0.00000  Uiso   1.00
C355   C     0.71569   0.44956   0.39448   0.00000  Uiso   1.00
C356   C     0.95096   0.55050   0.10554   0.00000  Uiso   1.00
C357   C     0.82040   0.48412   0.40425   0.00000  Uiso   1.00
C358   C     0.84626   0.51594   0.09577   0.00000  Uiso   1.00
C359   C     0.80094   0.48516   0.44949   0.00000  Uiso   1.00
C360   C     0.86571   0.51492   0.05053   0.00000  Uiso   1.00
C361   C     0.73999   0.45976   0.46637   0.00000  Uiso   1.00
C362   C     0.92666   0.54033   0.03364   0.00000  Uiso   1.00
C363   C     0.84215   0.50589   0.47800   0.00000  Uiso   1.00
C364   C     0.82450   0.49421   0.02201   0.00000  Uiso   1.00
Cu365  Cu    0.77404   0.49441   0.24516   0.00000  Uiso   1.00
Cu366  Cu    0.89263   0.50559   0.25483   0.00000  Uiso   1.00
H367   H     0.67869   0.42437   0.02235   0.00000  Uiso   1.00
H368   H     0.98795   0.57573   0.47767   0.00000  Uiso   1.00
H369   H     0.98589   0.41977   0.45179   0.00000  Uiso   1.00
H370   H     0.68076   0.58033   0.04824   0.00000  Uiso   1.00
H371   H     0.75398   0.44588   0.06781   0.00000  Uiso   1.00
H372   H     0.91266   0.55422   0.43220   0.00000  Uiso   1.00
N373   N     0.98173   0.51401   0.26212   0.00000  Uiso   1.00
N374   N     0.68494   0.48599   0.23788   0.00000  Uiso   1.00
O375   O     0.79482   0.57142   0.24686   0.00000  Uiso   1.00
O376   O     0.87185   0.42858   0.25314   0.00000  Uiso   1.00
O377   O     0.89496   0.58086   0.25502   0.00000  Uiso   1.00
O378   O     0.77171   0.41914   0.24497   0.00000  Uiso   1.00
O379   O     0.75518   0.49263   0.30854   0.00000  Uiso   1.00
O380   O     0.91149   0.50737   0.19145   0.00000  Uiso   1.00
O381   O     0.85532   0.50207   0.31671   0.00000  Uiso   1.00
O382   O     0.81134   0.49793   0.18329   0.00000  Uiso   1.00
C383   C     0.78439   0.53061   0.11470   0.00000  Uiso   1.00
H384   H     0.76588   0.54574   0.08988   0.00000  Uiso   1.00
H385   H     0.75037   0.49644   0.12901   0.00000  Uiso   1.00
H386   H     0.78938   0.56352   0.13976   0.00000  Uiso   1.00
C387   C     0.88228   0.46947   0.38533   0.00000  Uiso   1.00
H388   H     0.91629   0.50364   0.37100   0.00000  Uiso   1.00
H389   H     0.90080   0.45437   0.41015   0.00000  Uiso   1.00
H390   H     0.87730   0.43654   0.36029   0.00000  Uiso   1.00
C391   C     0.99245   0.57963   0.13519   0.00000  Uiso   1.00
H392   H     0.96701   0.60492   0.15964   0.00000  Uiso   1.00
H393   H     0.67495   0.55171   0.15205   0.00000  Uiso   1.00
H394   H     0.70009   0.60594   0.11738   0.00000  Uiso   1.00
C395   C     0.67420   0.42042   0.36483   0.00000  Uiso   1.00
H396   H     0.69963   0.39511   0.34039   0.00000  Uiso   1.00
H397   H     0.96655   0.39412   0.38265   0.00000  Uiso   1.00
H398   H     0.99171   0.44833   0.34796   0.00000  Uiso   1.00
F399   F     0.88946   0.34925   0.28453   0.00000  Uiso   1.00
F400   F     0.77721   0.65075   0.21547   0.00000  Uiso   1.00
C401   C     0.67289   0.56323   0.28318   0.00000  Uiso   1.00
H402   H     0.70502   0.55913   0.30344   0.00000  Uiso   1.00
H403   H     0.69257   0.59321   0.25906   0.00000  Uiso   1.00
H404   H     0.96779   0.57743   0.30585   0.00000  Uiso   1.00
C405   C     0.99377   0.43677   0.21682   0.00000  Uiso   1.00
H406   H     0.96165   0.44087   0.19656   0.00000  Uiso   1.00
H407   H     0.69888   0.42257   0.19414   0.00000  Uiso   1.00
H408   H     0.97410   0.40679   0.24094   0.00000  Uiso   1.00
C409   C     0.18079   0.93309   0.25230   0.00000  Uiso   1.00
C410   C     0.15255   0.73358   0.24770   0.00000  Uiso   1.00
C411   C     0.10006   0.79457   0.03611   0.00000  Uiso   1.00
C412   C     0.23325   0.87219   0.46391   0.00000  Uiso   1.00
C413   C     0.05708   0.78066   0.00958   0.00000  Uiso   1.00
C414   C     0.27623   0.88611   0.49044   0.00000  Uiso   1.00
C415   C     0.18500   0.98864   0.25831   0.00000  Uiso   1.00
C416   C     0.14833   0.67802   0.24169   0.00000  Uiso   1.00
C417   C     0.12939   0.82419   0.33197   0.00000  Uiso   1.00
C418   C     0.20395   0.84249   0.16803   0.00000  Uiso   1.00
C419   C     0.10936   0.81005   0.37777   0.00000  Uiso   1.00
C420   C     0.22397   0.85666   0.12224   0.00000  Uiso   1.00
C421   C     0.03152   0.77499   0.43886   0.00000  Uiso   1.00
C422   C     0.30180   0.89176   0.06116   0.00000  Uiso   1.00
C423   C     0.04903   0.78289   0.39448   0.00000  Uiso   1.00
C424   C     0.28430   0.88383   0.10554   0.00000  Uiso   1.00
C425   C     0.15373   0.81745   0.40425   0.00000  Uiso   1.00
C426   C     0.17959   0.84928   0.09577   0.00000  Uiso   1.00
C427   C     0.13427   0.81850   0.44949   0.00000  Uiso   1.00
C428   C     0.19904   0.84825   0.05053   0.00000  Uiso   1.00
C429   C     0.07332   0.79309   0.46637   0.00000  Uiso   1.00
C430   C     0.25999   0.87367   0.03364   0.00000  Uiso   1.00
C431   C     0.17548   0.83922   0.47800   0.00000  Uiso   1.00
C432   C     0.15783   0.82754   0.02201   0.00000  Uiso   1.00
Cu433  Cu    0.10737   0.82775   0.24516   0.00000  Uiso   1.00
Cu434  Cu    0.22596   0.83892   0.25483   0.00000  Uiso   1.00
H435   H     0.01203   0.75771   0.02235   0.00000  Uiso   1.00
H436   H     0.32128   0.90906   0.47767   0.00000  Uiso   1.00
H437   H     0.31922   0.75310   0.45179   0.00000  Uiso   1.00
H438   H     0.01409   0.91366   0.04824   0.00000  Uiso   1.00
H439   H     0.08732   0.77921   0.06781   0.00000  Uiso   1.00
H440   H     0.24599   0.88755   0.43220   0.00000  Uiso   1.00
N441   N     0.31506   0.84735   0.26212   0.00000  Uiso   1.00
N442   N     0.01827   0.81932   0.23788   0.00000  Uiso   1.00
O443   O     0.12815   0.90476   0.24686   0.00000  Uiso   1.00
O444   O     0.20518   0.76191   0.25314   0.00000  Uiso   1.00
O445   O     0.22829   0.91420   0.25502   0.00000  Uiso   1.00
O446   O     0.10504   0.75247   0.24497   0.00000  Uiso   1.00
O447   O     0.08851   0.82597   0.30854   0.00000  Uiso   1.00
O448   O     0.24482   0.84070   0.19145   0.00000  Uiso   1.00
O449   O     0.18866   0.83540   0.31671   0.00000  Uiso   1.00
O450   O     0.14468   0.83126   0.18329   0.00000  Uiso   1.00
C451   C     0.11772   0.86394   0.11470   0.00000  Uiso   1.00
H452   H     0.09921   0.87907   0.08988   0.00000  Uiso   1.00
H453   H     0.08371   0.82977   0.12901   0.00000  Uiso   1.00
H454   H     0.12272   0.89685   0.13976   0.00000  Uiso   1.00
C455   C     0.21562   0.80280   0.38533   0.00000  Uiso   1.00
H456   H     0.24962   0.83698   0.37100   0.00000  Uiso   1.00
H457   H     0.23413   0.78770   0.41015   0.00000  Uiso   1.00
H458   H     0.21063   0.76988   0.36029   0.00000  Uiso   1.00
C459   C     0.32578   0.91296   0.13519   0.00000  Uiso   1.00
H460   H     0.30034   0.93826   0.15964   0.00000  Uiso   1.00
H461   H     0.00828   0.88504   0.15205   0.00000  Uiso   1.00
H462   H     0.03342   0.93928   0.11738   0.00000  Uiso   1.00
C463   C     0.00754   0.75375   0.36483   0.00000  Uiso   1.00
H464   H     0.03296   0.72844   0.34039   0.00000  Uiso   1.00
H465   H     0.29988   0.72745   0.38265   0.00000  Uiso   1.00
H466   H     0.32504   0.78167   0.34796   0.00000  Uiso   1.00
F467   F     0.22279   0.68258   0.28453   0.00000  Uiso   1.00
F468   F     0.11054   0.98408   0.21547   0.00000  Uiso   1.00
C469   C     0.00623   0.89656   0.28318   0.00000  Uiso   1.00
H470   H     0.03835   0.89247   0.30344   0.00000  Uiso   1.00
H471   H     0.02590   0.92654   0.25906   0.00000  Uiso   1.00
H472   H     0.30112   0.91076   0.30585   0.00000  Uiso   1.00
C473   C     0.32711   0.77011   0.21682   0.00000  Uiso   1.00
H474   H     0.29498   0.77420   0.19656   0.00000  Uiso   1.00
H475   H     0.03221   0.75591   0.19414   0.00000  Uiso   1.00
H476   H     0.30743   0.74013   0.24094   0.00000  Uiso   1.00
C477   C     0.51412   0.93309   0.25230   0.00000  Uiso   1.00
C478   C     0.48588   0.73358   0.24770   0.00000  Uiso   1.00
C479   C     0.43339   0.79457   0.03611   0.00000  Uiso   1.00
C480   C     0.56659   0.87219   0.46391   0.00000  Uiso   1.00
C481   C     0.39041   0.78066   0.00958   0.00000  Uiso   1.00
C482   C     0.60957   0.88611   0.49044   0.00000  Uiso   1.00
C483   C     0.51834   0.98864   0.25831   0.00000  Uiso   1.00
C484   C     0.48167   0.67802   0.24169   0.00000  Uiso   1.00
C485   C     0.46272   0.82419   0.33197   0.00000  Uiso   1.00
C486   C     0.53728   0.84249   0.16803   0.00000  Uiso   1.00
C487   C     0.44269   0.81005   0.37777   0.00000  Uiso   1.00
C488   C     0.55731   0.85666   0.12224   0.00000  Uiso   1.00
C489   C     0.36485   0.77499   0.43886   0.00000  Uiso   1.00
C490   C     0.63513   0.89176   0.06116   0.00000  Uiso   1.00
C491   C     0.38236   0.78289   0.39448   0.00000  Uiso   1.00
C492   C     0.61763   0.88383   0.10554   0.00000  Uiso   1.00
C493   C     0.48707   0.81745   0.40425   0.00000  Uiso   1.00
C494   C     0.51292   0.84928   0.09577   0.00000  Uiso   1.00
C495   C     0.46760   0.81850   0.44949   0.00000  Uiso   1.00
C496   C     0.53238   0.84825   0.05053   0.00000  Uiso   1.00
C497   C     0.40665   0.79309   0.46637   0.00000  Uiso   1.00
C498   C     0.59333   0.87367   0.03364   0.00000  Uiso   1.00
C499   C     0.50881   0.83922   0.47800   0.00000  Uiso   1.00
C500   C     0.49117   0.82754   0.02201   0.00000  Uiso   1.00
Cu501  Cu    0.44071   0.82775   0.24516   0.00000  Uiso   1.00
Cu502  Cu    0.55929   0.83892   0.25483   0.00000  Uiso   1.00
H503   H     0.34536   0.75771   0.02235   0.00000  Uiso   1.00
H504   H     0.65461   0.90906   0.47767   0.00000  Uiso   1.00
H505   H     0.65255   0.75310   0.45179   0.00000  Uiso   1.00
H506   H     0.34742   0.91366   0.04824   0.00000  Uiso   1.00
H507   H     0.42065   0.77921   0.06781   0.00000  Uiso   1.00
H508   H     0.57933   0.88755   0.43220   0.00000  Uiso   1.00
N509   N     0.64839   0.84735   0.26212   0.00000  Uiso   1.00
N510   N     0.35161   0.81932   0.23788   0.00000  Uiso   1.00
O511   O     0.46148   0.90476   0.24686   0.00000  Uiso   1.00
O512   O     0.53852   0.76191   0.25314   0.00000  Uiso   1.00
O513   O     0.56163   0.91420   0.25502   0.00000  Uiso   1.00
O514   O     0.43837   0.75247   0.24497   0.00000  Uiso   1.00
O515   O     0.42185   0.82597   0.30854   0.00000  Uiso   1.00
O516   O     0.57815   0.84070   0.19145   0.00000  Uiso   1.00
O517   O     0.52199   0.83540   0.31671   0.00000  Uiso   1.00
O518   O     0.47801   0.83126   0.18329   0.00000  Uiso   1.00
C519   C     0.45105   0.86394   0.11470   0.00000  Uiso   1.00
H520   H     0.43255   0.87907   0.08988   0.00000  Uiso   1.00
H521   H     0.41704   0.82977   0.12901   0.00000  Uiso   1.00
H522   H     0.45605   0.89685   0.13976   0.00000  Uiso   1.00
C523   C     0.54895   0.80280   0.38533   0.00000  Uiso   1.00
H524   H     0.58295   0.83698   0.37100   0.00000  Uiso   1.00
H525   H     0.56746   0.78770   0.41015   0.00000  Uiso   1.00
H526   H     0.54396   0.76988   0.36029   0.00000  Uiso   1.00
C527   C     0.65911   0.91296   0.13519   0.00000  Uiso   1.00
H528   H     0.63367   0.93826   0.15964   0.00000  Uiso   1.00
H529   H     0.34161   0.88504   0.15205   0.00000  Uiso   1.00
H530   H     0.36676   0.93928   0.11738   0.00000  Uiso   1.00
C531   C     0.34087   0.75375   0.36483   0.00000  Uiso   1.00
H532   H     0.36630   0.72844   0.34039   0.00000  Uiso   1.00
H533   H     0.63322   0.72745   0.38265   0.00000  Uiso   1.00
H534   H     0.65837   0.78167   0.34796   0.00000  Uiso   1.00
F535   F     0.55612   0.68258   0.28453   0.00000  Uiso   1.00
F536   F     0.44388   0.98408   0.21547   0.00000  Uiso   1.00
C537   C     0.33956   0.89656   0.28318   0.00000  Uiso   1.00
H538   H     0.37168   0.89247   0.30344   0.00000  Uiso   1.00
H539   H     0.35924   0.92654   0.25906   0.00000  Uiso   1.00
H540   H     0.63445   0.91076   0.30585   0.00000  Uiso   1.00
C541   C     0.66044   0.77011   0.21682   0.00000  Uiso   1.00
H542   H     0.62832   0.77420   0.19656   0.00000  Uiso   1.00
H543   H     0.36555   0.75591   0.19414   0.00000  Uiso   1.00
H544   H     0.64076   0.74013   0.24094   0.00000  Uiso   1.00
C545   C     0.84745   0.93309   0.25230   0.00000  Uiso   1.00
C546   C     0.81921   0.73358   0.24770   0.00000  Uiso   1.00
C547   C     0.76672   0.79457   0.03611   0.00000  Uiso   1.00
C548   C     0.89992   0.87219   0.46391   0.00000  Uiso   1.00
C549   C     0.72374   0.78066   0.00958   0.00000  Uiso   1.00
C550   C     0.94290   0.88611   0.49044   0.00000  Uiso   1.00
C551   C     0.85167   0.98864   0.25831   0.00000  Uiso   1.00
C552   C     0.81500   0.67802   0.24169   0.00000  Uiso   1.00
C553   C     0.79605   0.82419   0.33197   0.00000  Uiso   1.00
C554   C     0.87061   0.84249   0.16803   0.00000  Uiso   1.00
C555   C     0.77602   0.81005   0.37777   0.00000  Uiso   1.00
C556   C     0.89064   0.85666   0.12224   0.00000  Uiso   1.00
C557   C     0.69818   0.77499   0.43886   0.00000  Uiso   1.00
C558   C     0.96846   0.89176   0.06116   0.00000  Uiso   1.00
C559   C     0.71569   0.78289   0.39448   0.00000  Uiso   1.00
C560   C     0.95096   0.88383   0.10554   0.00000  Uiso   1.00
C561   C     0.82040   0.81745   0.40425   0.00000  Uiso   1.00
C562   C     0.84626   0.84928   0.09577   0.00000  Uiso   1.00
C563   C     0.80094   0.81850   0.44949   0.00000  Uiso   1.00
C564   C     0.86571   0.84825   0.05053   0.00000  Uiso   1.00
C565   C     0.73999   0.79309   0.46637   0.00000  Uiso   1.00
C566   C     0.92666   0.87367   0.03364   0.00000  Uiso   1.00
C567   C     0.84215   0.83922   0.47800   0.00000  Uiso   1.00
C568   C     0.82450   0.82754   0.02201   0.00000  Uiso   1.00
Cu569  Cu    0.77404   0.82775   0.24516   0.00000  Uiso   1.00
Cu570  Cu    0.89263   0.83892   0.25483   0.00000  Uiso   1.00
H571   H     0.67869   0.75771   0.02235   0.00000  Uiso   1.00
H572   H     0.98795   0.90906   0.47767   0.00000  Uiso   1.00
H573   H     0.98589   0.75310   0.45179   0.00000  Uiso   1.00
H574   H     0.68076   0.91366   0.04824   0.00000  Uiso   1.00
H575   H     0.75398   0.77921   0.06781   0.00000  Uiso   1.00
H576   H     0.91266   0.88755   0.43220   0.00000  Uiso   1.00
N577   N     0.98173   0.84735   0.26212   0.00000  Uiso   1.00
N578   N     0.68494   0.81932   0.23788   0.00000  Uiso   1.00
O579   O     0.79482   0.90476   0.24686   0.00000  Uiso   1.00
O580   O     0.87185   0.76191   0.25314   0.00000  Uiso   1.00
O581   O     0.89496   0.91420   0.25502   0.00000  Uiso   1.00
O582   O     0.77171   0.75247   0.24497   0.00000  Uiso   1.00
O583   O     0.75518   0.82597   0.30854   0.00000  Uiso   1.00
O584   O     0.91149   0.84070   0.19145   0.00000  Uiso   1.00
O585   O     0.85532   0.83540   0.31671   0.00000  Uiso   1.00
O586   O     0.81134   0.83126   0.18329   0.00000  Uiso   1.00
C587   C     0.78439   0.86394   0.11470   0.00000  Uiso   1.00
H588   H     0.76588   0.87907   0.08988   0.00000  Uiso   1.00
H589   H     0.75037   0.82977   0.12901   0.00000  Uiso   1.00
H590   H     0.78938   0.89685   0.13976   0.00000  Uiso   1.00
C591   C     0.88228   0.80280   0.38533   0.00000  Uiso   1.00
H592   H     0.91629   0.83698   0.37100   0.00000  Uiso   1.00
H593   H     0.90080   0.78770   0.41015   0.00000  Uiso   1.00
H594   H     0.87730   0.76988   0.36029   0.00000  Uiso   1.00
C595   C     0.99245   0.91296   0.13519   0.00000  Uiso   1.00
H596   H     0.96701   0.93826   0.15964   0.00000  Uiso   1.00
H597   H     0.67495   0.88504   0.15205   0.00000  Uiso   1.00
H598   H     0.70009   0.93928   0.11738   0.00000  Uiso   1.00
C599   C     0.67420   0.75375   0.36483   0.00000  Uiso   1.00
H600   H     0.69963   0.72844   0.34039   0.00000  Uiso   1.00
H601   H     0.96655   0.72745   0.38265   0.00000  Uiso   1.00
H602   H     0.99171   0.78167   0.34796   0.00000  Uiso   1.00
F603   F     0.88946   0.68258   0.28453   0.00000  Uiso   1.00
F604   F     0.77721   0.98408   0.21547   0.00000  Uiso   1.00
C605   C     0.67289   0.89656   0.28318   0.00000  Uiso   1.00
H606   H     0.70502   0.89247   0.30344   0.00000  Uiso   1.00
H607   H     0.69257   0.92654   0.25906   0.00000  Uiso   1.00
H608   H     0.96779   0.91076   0.30585   0.00000  Uiso   1.00
C609   C     0.99377   0.77011   0.21682   0.00000  Uiso   1.00
H610   H     0.96165   0.77420   0.19656   0.00000  Uiso   1.00
H611   H     0.69888   0.75591   0.19414   0.00000  Uiso   1.00
H612   H     0.97410   0.74013   0.24094   0.00000  Uiso   1.00
C613   C     0.18079   0.26642   0.75230   0.00000  Uiso   1.00
C614   C     0.15255   0.06691   0.74770   0.00000  Uiso   1.00
C615   C     0.10006   0.12790   0.53611   0.00000  Uiso   1.00
C616   C     0.23325   0.20553   0.96391   0.00000  Uiso   1.00
C617   C     0.05708   0.11399   0.50958   0.00000  Uiso   1.00
C618   C     0.27623   0.21944   0.99044   0.00000  Uiso   1.00
C619   C     0.18500   0.32198   0.75831   0.00000  Uiso   1.00
C620   C     0.14833   0.01136   0.74169   0.00000  Uiso   1.00
C621   C     0.12939   0.15752   0.83197   0.00000  Uiso   1.00
C622   C     0.20395   0.17582   0.66803   0.00000  Uiso   1.00
C623   C     0.10936   0.14338   0.87777   0.00000  Uiso   1.00
C624   C     0.22397   0.18999   0.62224   0.00000  Uiso   1.00
C625   C     0.03152   0.10832   0.93886   0.00000  Uiso   1.00
C626   C     0.30180   0.22510   0.56116   0.00000  Uiso   1.00
C627   C     0.04903   0.11623   0.89448   0.00000  Uiso   1.00
C628   C     0.28430   0.21716   0.60554   0.00000  Uiso   1.00
C629   C     0.15373   0.15079   0.90425   0.00000  Uiso   1.00
C630   C     0.17959   0.18261   0.59577   0.00000  Uiso   1.00
C631   C     0.13427   0.15183   0.94949   0.00000  Uiso   1.00
C632   C     0.19904   0.18159   0.55053   0.00000  Uiso   1.00
C633   C     0.07332   0.12642   0.96637   0.00000  Uiso   1.00
C634   C     0.25999   0.20700   0.53364   0.00000  Uiso   1.00
C635   C     0.17548   0.17255   0.97800   0.00000  Uiso   1.00
C636   C     0.15783   0.16087   0.52201   0.00000  Uiso   1.00
Cu637  Cu    0.10737   0.16108   0.74516   0.00000  Uiso   1.00
Cu638  Cu    0.22596   0.17225   0.75483   0.00000  Uiso   1.00
H639   H     0.01203   0.09104   0.52235   0.00000  Uiso   1.00
H640   H     0.32128   0.24240   0.97767   0.00000  Uiso   1.00
H641   H     0.31922   0.08643   0.95179   0.00000  Uiso   1.00
H642   H     0.01409   0.24699   0.54824   0.00000  Uiso   1.00
H643   H     0.08732   0.11254   0.56781   0.00000  Uiso   1.00
H644   H     0.24599   0.22089   0.93220   0.00000  Uiso   1.00
N645   N     0.31506   0.18068   0.76212   0.00000  Uiso   1.00
N646   N     0.01827   0.15265   0.73788   0.00000  Uiso   1.00
O647   O     0.12815   0.23809   0.74686   0.00000  Uiso   1.00
O648   O     0.20518   0.09524   0.75314   0.00000  Uiso   1.00
O649   O     0.22829   0.24753   0.75502   0.00000  Uiso   1.00
O650   O     0.10504   0.08580   0.74497   0.00000  Uiso   1.00
O651   O     0.08851   0.15930   0.80854   0.00000  Uiso   1.00
O652   O     0.24482   0.17403   0.69145   0.00000  Uiso   1.00
O653   O     0.18866   0.16874   0.81671   0.00000  Uiso   1.00
O654   O     0.14468   0.16460   0.68329   0.00000  Uiso   1.00
C655   C     0.11772   0.19727   0.61470   0.00000  Uiso   1.00
H656   H     0.09921   0.21240   0.58988   0.00000  Uiso   1.00
H657   H     0.08371   0.16310   0.62901   0.00000  Uiso   1.00
H658   H     0.12272   0.23018   0.63976   0.00000  Uiso   1.00
C659   C     0.21562   0.13614   0.88533   0.00000  Uiso   1.00
H660   H     0.24962   0.17031   0.87100   0.00000  Uiso   1.00
H661   H     0.23413   0.12103   0.91015   0.00000  Uiso   1.00
H662   H     0.21063   0.10321   0.86029   0.00000  Uiso   1.00
C663   C     0.32578   0.24630   0.63519   0.00000  Uiso   1.00
H664   H     0.30034   0.27159   0.65964   0.00000  Uiso   1.00
H665   H     0.00828   0.21838   0.65205   0.00000  Uiso   1.00
H666   H     0.03342   0.27261   0.61738   0.00000  Uiso   1.00
C667   C     0.00754   0.08708   0.86483   0.00000  Uiso   1.00
H668   H     0.03296   0.06177   0.84039   0.00000  Uiso   1.00
H669   H     0.29988   0.06079   0.88265   0.00000  Uiso   1.00
H670   H     0.32504   0.11500   0.84796   0.00000  Uiso   1.00
F671   F     0.22279   0.01592   0.78453   0.00000  Uiso   1.00
F672   F     0.11054   0.31742   0.71547   0.00000  Uiso   1.00
C673   C     0.00623   0.22989   0.78318   0.00000  Uiso   1.00
H674   H     0.03835   0.22580   0.80344   0.00000  Uiso   1.00
H675   H     0.02590   0.25987   0.75906   0.00000  Uiso   1.00
H676   H     0.30112   0.24409   0.80585   0.00000  Uiso   1.00
C677   C     0.32711   0.10344   0.71682   0.00000  Uiso   1.00
H678   H     0.29498   0.10753   0.69656   0.00000  Uiso   1.00
H679   H     0.03221   0.08924   0.69414   0.00000  Uiso   1.00
H680   H     0.30743   0.07346   0.74094   0.00000  Uiso   1.00
C681   C     0.51412   0.26642   0.75230   0.00000  Uiso   1.00
C682   C     0.48588   0.06691   0.74770   0.00000  Uiso   1.00
C683   C     0.43339   0.12790   0.53611   0.00000  Uiso   1.00
C684   C     0.56659   0.20553   0.96391   0.00000  Uiso   1.00
C685   C     0.39041   0.11399   0.50958   0.00000  Uiso   1.00
C686   C     0.60957   0.21944   0.99044   0.00000  Uiso   1.00
C687   C     0.51834   0.32198   0.75831   0.00000  Uiso   1.00
C688   C     0.48167   0.01136   0.74169   0.00000  Uiso   1.00
C689   C     0.46272   0.15752   0.83197   0.00000  Uiso   1.00
C690   C     0.53728   0.17582   0.66803   0.00000  Uiso   1.00
C691   C     0.44269   0.14338   0.87777   0.00000  Uiso   1.00
C692   C     0.55731   0.18999   0.62224   0.00000  Uiso   1.00
C693   C     0.36485   0.10832   0.93886   0.00000  Uiso   1.00
C694   C     0.63513   0.22510   0.56116   0.00000  Uiso   1.00
C695   C     0.38236   0.11623   0.89448   0.00000  Uiso   1.00
C696   C     0.61763   0.21716   0.60554   0.00000  Uiso   1.00
C697   C     0.48707   0.15079   0.90425   0.00000  Uiso   1.00
C698   C     0.51292   0.18261   0.59577   0.00000  Uiso   1.00
C699   C     0.46760   0.15183   0.94949   0.00000  Uiso   1.00
C700   C     0.53238   0.18159   0.55053   0.00000  Uiso   1.00
C701   C     0.40665   0.12642   0.96637   0.00000  Uiso   1.00
C702   C     0.59333   0.20700   0.53364   0.00000  Uiso   1.00
C703   C     0.50881   0.17255   0.97800   0.00000  Uiso   1.00
C704   C     0.49117   0.16087   0.52201   0.00000  Uiso   1.00
Cu705  Cu    0.44071   0.16108   0.74516   0.00000  Uiso   1.00
Cu706  Cu    0.55929   0.17225   0.75483   0.00000  Uiso   1.00
H707   H     0.34536   0.09104   0.52235   0.00000  Uiso   1.00
H708   H     0.65461   0.24240   0.97767   0.00000  Uiso   1.00
H709   H     0.65255   0.08643   0.95179   0.00000  Uiso   1.00
H710   H     0.34742   0.24699   0.54824   0.00000  Uiso   1.00
H711   H     0.42065   0.11254   0.56781   0.00000  Uiso   1.00
H712   H     0.57933   0.22089   0.93220   0.00000  Uiso   1.00
N713   N     0.64839   0.18068   0.76212   0.00000  Uiso   1.00
N714   N     0.35161   0.15265   0.73788   0.00000  Uiso   1.00
O715   O     0.46148   0.23809   0.74686   0.00000  Uiso   1.00
O716   O     0.53852   0.09524   0.75314   0.00000  Uiso   1.00
O717   O     0.56163   0.24753   0.75502   0.00000  Uiso   1.00
O718   O     0.43837   0.08580   0.74497   0.00000  Uiso   1.00
O719   O     0.42185   0.15930   0.80854   0.00000  Uiso   1.00
O720   O     0.57815   0.17403   0.69145   0.00000  Uiso   1.00
O721   O     0.52199   0.16874   0.81671   0.00000  Uiso   1.00
O722   O     0.47801   0.16460   0.68329   0.00000  Uiso   1.00
C723   C     0.45105   0.19727   0.61470   0.00000  Uiso   1.00
H724   H     0.43255   0.21240   0.58988   0.00000  Uiso   1.00
H725   H     0.41704   0.16310   0.62901   0.00000  Uiso   1.00
H726   H     0.45605   0.23018   0.63976   0.00000  Uiso   1.00
C727   C     0.54895   0.13614   0.88533   0.00000  Uiso   1.00
H728   H     0.58295   0.17031   0.87100   0.00000  Uiso   1.00
H729   H     0.56746   0.12103   0.91015   0.00000  Uiso   1.00
H730   H     0.54396   0.10321   0.86029   0.00000  Uiso   1.00
C731   C     0.65911   0.24630   0.63519   0.00000  Uiso   1.00
H732   H     0.63367   0.27159   0.65964   0.00000  Uiso   1.00
H733   H     0.34161   0.21838   0.65205   0.00000  Uiso   1.00
H734   H     0.36676   0.27261   0.61738   0.00000  Uiso   1.00
C735   C     0.34087   0.08708   0.86483   0.00000  Uiso   1.00
H736   H     0.36630   0.06177   0.84039   0.00000  Uiso   1.00
H737   H     0.63322   0.06079   0.88265   0.00000  Uiso   1.00
H738   H     0.65837   0.11500   0.84796   0.00000  Uiso   1.00
F739   F     0.55612   0.01592   0.78453   0.00000  Uiso   1.00
F740   F     0.44388   0.31742   0.71547   0.00000  Uiso   1.00
C741   C     0.33956   0.22989   0.78318   0.00000  Uiso   1.00
H742   H     0.37168   0.22580   0.80344   0.00000  Uiso   1.00
H743   H     0.35924   0.25987   0.75906   0.00000  Uiso   1.00
H744   H     0.63445   0.24409   0.80585   0.00000  Uiso   1.00
C745   C     0.66044   0.10344   0.71682   0.00000  Uiso   1.00
H746   H     0.62832   0.10753   0.69656   0.00000  Uiso   1.00
H747   H     0.36555   0.08924   0.69414   0.00000  Uiso   1.00
H748   H     0.64076   0.07346   0.74094   0.00000  Uiso   1.00
C749   C     0.84745   0.26642   0.75230   0.00000  Uiso   1.00
C750   C     0.81921   0.06691   0.74770   0.00000  Uiso   1.00
C751   C     0.76672   0.12790   0.53611   0.00000  Uiso   1.00
C752   C     0.89992   0.20553   0.96391   0.00000  Uiso   1.00
C753   C     0.72374   0.11399   0.50958   0.00000  Uiso   1.00
C754   C     0.94290   0.21944   0.99044   0.00000  Uiso   1.00
C755   C     0.85167   0.32198   0.75831   0.00000  Uiso   1.00
C756   C     0.81500   0.01136   0.74169   0.00000  Uiso   1.00
C757   C     0.79605   0.15752   0.83197   0.00000  Uiso   1.00
C758   C     0.87061   0.17582   0.66803   0.00000  Uiso   1.00
C759   C     0.77602   0.14338   0.87777   0.00000  Uiso   1.00
C760   C     0.89064   0.18999   0.62224   0.00000  Uiso   1.00
C761   C     0.69818   0.10832   0.93886   0.00000  Uiso   1.00
C762   C     0.96846   0.22510   0.56116   0.00000  Uiso   1.00
C763   C     0.71569   0.11623   0.89448   0.00000  Uiso   1.00
C764   C     0.95096   0.21716   0.60554   0.00000  Uiso   1.00
C765   C     0.82040   0.15079   0.90425   0.00000  Uiso   1.00
C766   C     0.84626   0.18261   0.59577   0.00000  Uiso   1.00
C767   C     0.80094   0.15183   0.94949   0.00000  Uiso   1.00
C768   C     0.86571   0.18159   0.55053   0.00000  Uiso   1.00
C769   C     0.73999   0.12642   0.96637   0.00000  Uiso   1.00
C770   C     0.92666   0.20700   0.53364   0.00000  Uiso   1.00
C771   C     0.84215   0.17255   0.97800   0.00000  Uiso   1.00
C772   C     0.82450   0.16087   0.52201   0.00000  Uiso   1.00
Cu773  Cu    0.77404   0.16108   0.74516   0.00000  Uiso   1.00
Cu774  Cu    0.89263   0.17225   0.75483   0.00000  Uiso   1.00
H775   H     0.67869   0.09104   0.52235   0.00000  Uiso   1.00
H776   H     0.98795   0.24240   0.97767   0.00000  Uiso   1.00
H777   H     0.98589   0.08643   0.95179   0.00000  Uiso   1.00
H778   H     0.68076   0.24699   0.54824   0.00000  Uiso   1.00
H779   H     0.75398   0.11254   0.56781   0.00000  Uiso   1.00
H780   H     0.91266   0.22089   0.93220   0.00000  Uiso   1.00
N781   N     0.98173   0.18068   0.76212   0.00000  Uiso   1.00
N782   N     0.68494   0.15265   0.73788   0.00000  Uiso   1.00
O783   O     0.79482   0.23809   0.74686   0.00000  Uiso   1.00
O784   O     0.87185   0.09524   0.75314   0.00000  Uiso   1.00
O785   O     0.89496   0.24753   0.75502   0.00000  Uiso   1.00
O786   O     0.77171   0.08580   0.74497   0.00000  Uiso   1.00
O787   O     0.75518   0.15930   0.80854   0.00000  Uiso   1.00
O788   O     0.91149   0.17403   0.69145   0.00000  Uiso   1.00
O789   O     0.85532   0.16874   0.81671   0.00000  Uiso   1.00
O790   O     0.81134   0.16460   0.68329   0.00000  Uiso   1.00
C791   C     0.78439   0.19727   0.61470   0.00000  Uiso   1.00
H792   H     0.76588   0.21240   0.58988   0.00000  Uiso   1.00
H793   H     0.75037   0.16310   0.62901   0.00000  Uiso   1.00
H794   H     0.78938   0.23018   0.63976   0.00000  Uiso   1.00
C795   C     0.88228   0.13614   0.88533   0.00000  Uiso   1.00
H796   H     0.91629   0.17031   0.87100   0.00000  Uiso   1.00
H797   H     0.90080   0.12103   0.91015   0.00000  Uiso   1.00
H798   H     0.87730   0.10321   0.86029   0.00000  Uiso   1.00
C799   C     0.99245   0.24630   0.63519   0.00000  Uiso   1.00
H800   H     0.96701   0.27159   0.65964   0.00000  Uiso   1.00
H801   H     0.67495   0.21838   0.65205   0.00000  Uiso   1.00
H802   H     0.70009   0.27261   0.61738   0.00000  Uiso   1.00
C803   C     0.67420   0.08708   0.86483   0.00000  Uiso   1.00
H804   H     0.69963   0.06177   0.84039   0.00000  Uiso   1.00
H805   H     0.96655   0.06079   0.88265   0.00000  Uiso   1.00
H806   H     0.99171   0.11500   0.84796   0.00000  Uiso   1.00
F807   F     0.88946   0.01592   0.78453   0.00000  Uiso   1.00
F808   F     0.77721   0.31742   0.71547   0.00000  Uiso   1.00
C809   C     0.67289   0.22989   0.78318   0.00000  Uiso   1.00
H810   H     0.70502   0.22580   0.80344   0.00000  Uiso   1.00
H811   H     0.69257   0.25987   0.75906   0.00000  Uiso   1.00
H812   H     0.96779   0.24409   0.80585   0.00000  Uiso   1.00
C813   C     0.99377   0.10344   0.71682   0.00000  Uiso   1.00
H814   H     0.96165   0.10753   0.69656   0.00000  Uiso   1.00
H815   H     0.69888   0.08924   0.69414   0.00000  Uiso   1.00
H816   H     0.97410   0.07346   0.74094   0.00000  Uiso   1.00
C817   C     0.18079   0.59975   0.75230   0.00000  Uiso   1.00
C818   C     0.15255   0.40025   0.74770   0.00000  Uiso   1.00
C819   C     0.10006   0.46124   0.53611   0.00000  Uiso   1.00
C820   C     0.23325   0.53886   0.96391   0.00000  Uiso   1.00
C821   C     0.05708   0.44733   0.50958   0.00000  Uiso   1.00
C822   C     0.27623   0.55277   0.99044   0.00000  Uiso   1.00
C823   C     0.18500   0.65531   0.75831   0.00000  Uiso   1.00
C824   C     0.14833   0.34469   0.74169   0.00000  Uiso   1.00
C825   C     0.12939   0.49086   0.83197   0.00000  Uiso   1.00
C826   C     0.20395   0.50915   0.66803   0.00000  Uiso   1.00
C827   C     0.10936   0.47671   0.87777   0.00000  Uiso   1.00
C828   C     0.22397   0.52333   0.62224   0.00000  Uiso   1.00
C829   C     0.03152   0.44165   0.93886   0.00000  Uiso   1.00
C830   C     0.30180   0.55843   0.56116   0.00000  Uiso   1.00
C831   C     0.04903   0.44956   0.89448   0.00000  Uiso   1.00
C832   C     0.28430   0.55050   0.60554   0.00000  Uiso   1.00
C833   C     0.15373   0.48412   0.90425   0.00000  Uiso   1.00
C834   C     0.17959   0.51594   0.59577   0.00000  Uiso   1.00
C835   C     0.13427   0.48516   0.94949   0.00000  Uiso   1.00
C836   C     0.19904   0.51492   0.55053   0.00000  Uiso   1.00
C837   C     0.07332   0.45976   0.96637   0.00000  Uiso   1.00
C838   C     0.25999   0.54033   0.53364   0.00000  Uiso   1.00
C839   C     0.17548   0.50589   0.97800   0.00000  Uiso   1.00
C840   C     0.15783   0.49421   0.52201   0.00000  Uiso   1.00
Cu841  Cu    0.10737   0.49441   0.74516   0.00000  Uiso   1.00
Cu842  Cu    0.22596   0.50559   0.75483   0.00000  Uiso   1.00
H843   H     0.01203   0.42437   0.52235   0.00000  Uiso   1.00
H844   H     0.32128   0.57573   0.97767   0.00000  Uiso   1.00
H845   H     0.31922   0.41977   0.95179   0.00000  Uiso   1.00
H846   H     0.01409   0.58033   0.54824   0.00000  Uiso   1.00
H847   H     0.08732   0.44588   0.56781   0.00000  Uiso   1.00
H848   H     0.24599   0.55422   0.93220   0.00000  Uiso   1.00
N849   N     0.31506   0.51401   0.76212   0.00000  Uiso   1.00
N850   N     0.01827   0.48599   0.73788   0.00000  Uiso   1.00
O851   O     0.12815   0.57142   0.74686   0.00000  Uiso   1.00
O852   O     0.20518   0.42858   0.75314   0.00000  Uiso   1.00
O853   O     0.22829   0.58086   0.75502   0.00000  Uiso   1.00
O854   O     0.10504   0.41914   0.74497   0.00000  Uiso   1.00
O855   O     0.08851   0.49263   0.80854   0.00000  Uiso   1.00
O856   O     0.24482   0.50737   0.69145   0.00000  Uiso   1.00
O857   O     0.18866   0.50207   0.81671   0.00000  Uiso   1.00
O858   O     0.14468   0.49793   0.68329   0.00000  Uiso   1.00
C859   C     0.11772   0.53061   0.61470   0.00000  Uiso   1.00
H860   H     0.09921   0.54574   0.58988   0.00000  Uiso   1.00
H861   H     0.08371   0.49644   0.62901   0.00000  Uiso   1.00
H862   H     0.12272   0.56352   0.63976   0.00000  Uiso   1.00
C863   C     0.21562   0.46947   0.88533   0.00000  Uiso   1.00
H864   H     0.24962   0.50364   0.87100   0.00000  Uiso   1.00
H865   H     0.23413   0.45437   0.91015   0.00000  Uiso   1.00
H866   H     0.21063   0.43654   0.86029   0.00000  Uiso   1.00
C867   C     0.32578   0.57963   0.63519   0.00000  Uiso   1.00
H868   H     0.30034   0.60492   0.65964   0.00000  Uiso   1.00
H869   H     0.00828   0.55171   0.65205   0.00000  Uiso   1.00
H870   H     0.03342   0.60594   0.61738   0.00000  Uiso   1.00
C871   C     0.00754   0.42042   0.86483   0.00000  Uiso   1.00
H872   H     0.03296   0.39511   0.84039   0.00000  Uiso   1.00
H873   H     0.29988   0.39412   0.88265   0.00000  Uiso   1.00
H874   H     0.32504   0.44833   0.84796   0.00000  Uiso   1.00
F875   F     0.22279   0.34925   0.78453   0.00000  Uiso   1.00
F876   F     0.11054   0.65075   0.71547   0.00000  Uiso   1.00
C877   C     0.00623   0.56323   0.78318   0.00000  Uiso   1.00
H878   H     0.03835   0.55913   0.80344   0.00000  Uiso   1.00
H879   H     0.02590   0.59321   0.75906   0.00000  Uiso   1.00
H880   H     0.30112   0.57743   0.80585   0.00000  Uiso   1.00
C881   C     0.32711   0.43677   0.71682   0.00000  Uiso   1.00
H882   H     0.29498   0.44087   0.69656   0.00000  Uiso   1.00
H883   H     0.03221   0.42257   0.69414   0.00000  Uiso   1.00
H884   H     0.30743   0.40679   0.74094   0.00000  Uiso   1.00
C885   C     0.51412   0.59975   0.75230   0.00000  Uiso   1.00
C886   C     0.48588   0.40025   0.74770   0.00000  Uiso   1.00
C887   C     0.43339   0.46124   0.53611   0.00000  Uiso   1.00
C888   C     0.56659   0.53886   0.96391   0.00000  Uiso   1.00
C889   C     0.39041   0.44733   0.50958   0.00000  Uiso   1.00
C890   C     0.60957   0.55277   0.99044   0.00000  Uiso   1.00
C891   C     0.51834   0.65531   0.75831   0.00000  Uiso   1.00
C892   C     0.48167   0.34469   0.74169   0.00000  Uiso   1.00
C893   C     0.46272   0.49086   0.83197   0.00000  Uiso   1.00
C894   C     0.53728   0.50915   0.66803   0.00000  Uiso   1.00
C895   C     0.44269   0.47671   0.87777   0.00000  Uiso   1.00
C896   C     0.55731   0.52333   0.62224   0.00000  Uiso   1.00
C897   C     0.36485   0.44165   0.93886   0.00000  Uiso   1.00
C898   C     0.63513   0.55843   0.56116   0.00000  Uiso   1.00
C899   C     0.38236   0.44956   0.89448   0.00000  Uiso   1.00
C900   C     0.61763   0.55050   0.60554   0.00000  Uiso   1.00
C901   C     0.48707   0.48412   0.90425   0.00000  Uiso   1.00
C902   C     0.51292   0.51594   0.59577   0.00000  Uiso   1.00
C903   C     0.46760   0.48516   0.94949   0.00000  Uiso   1.00
C904   C     0.53238   0.51492   0.55053   0.00000  Uiso   1.00
C905   C     0.40665   0.45976   0.96637   0.00000  Uiso   1.00
C906   C     0.59333   0.54033   0.53364   0.00000  Uiso   1.00
C907   C     0.50881   0.50589   0.97800   0.00000  Uiso   1.00
C908   C     0.49117   0.49421   0.52201   0.00000  Uiso   1.00
Cu909  Cu    0.44071   0.49441   0.74516   0.00000  Uiso   1.00
Cu910  Cu    0.55929   0.50559   0.75483   0.00000  Uiso   1.00
H911   H     0.34536   0.42437   0.52235   0.00000  Uiso   1.00
H912   H     0.65461   0.57573   0.97767   0.00000  Uiso   1.00
H913   H     0.65255   0.41977   0.95179   0.00000  Uiso   1.00
H914   H     0.34742   0.58033   0.54824   0.00000  Uiso   1.00
H915   H     0.42065   0.44588   0.56781   0.00000  Uiso   1.00
H916   H     0.57933   0.55422   0.93220   0.00000  Uiso   1.00
N917   N     0.64839   0.51401   0.76212   0.00000  Uiso   1.00
N918   N     0.35161   0.48599   0.73788   0.00000  Uiso   1.00
O919   O     0.46148   0.57142   0.74686   0.00000  Uiso   1.00
O920   O     0.53852   0.42858   0.75314   0.00000  Uiso   1.00
O921   O     0.56163   0.58086   0.75502   0.00000  Uiso   1.00
O922   O     0.43837   0.41914   0.74497   0.00000  Uiso   1.00
O923   O     0.42185   0.49263   0.80854   0.00000  Uiso   1.00
O924   O     0.57815   0.50737   0.69145   0.00000  Uiso   1.00
O925   O     0.52199   0.50207   0.81671   0.00000  Uiso   1.00
O926   O     0.47801   0.49793   0.68329   0.00000  Uiso   1.00
C927   C     0.45105   0.53061   0.61470   0.00000  Uiso   1.00
H928   H     0.43255   0.54574   0.58988   0.00000  Uiso   1.00
H929   H     0.41704   0.49644   0.62901   0.00000  Uiso   1.00
H930   H     0.45605   0.56352   0.63976   0.00000  Uiso   1.00
C931   C     0.54895   0.46947   0.88533   0.00000  Uiso   1.00
H932   H     0.58295   0.50364   0.87100   0.00000  Uiso   1.00
H933   H     0.56746   0.45437   0.91015   0.00000  Uiso   1.00
H934   H     0.54396   0.43654   0.86029   0.00000  Uiso   1.00
C935   C     0.65911   0.57963   0.63519   0.00000  Uiso   1.00
H936   H     0.63367   0.60492   0.65964   0.00000  Uiso   1.00
H937   H     0.34161   0.55171   0.65205   0.00000  Uiso   1.00
H938   H     0.36676   0.60594   0.61738   0.00000  Uiso   1.00
C939   C     0.34087   0.42042   0.86483   0.00000  Uiso   1.00
H940   H     0.36630   0.39511   0.84039   0.00000  Uiso   1.00
H941   H     0.63322   0.39412   0.88265   0.00000  Uiso   1.00
H942   H     0.65837   0.44833   0.84796   0.00000  Uiso   1.00
F943   F     0.55612   0.34925   0.78453   0.00000  Uiso   1.00
F944   F     0.44388   0.65075   0.71547   0.00000  Uiso   1.00
C945   C     0.33956   0.56323   0.78318   0.00000  Uiso   1.00
H946   H     0.37168   0.55913   0.80344   0.00000  Uiso   1.00
H947   H     0.35924   0.59321   0.75906   0.00000  Uiso   1.00
H948   H     0.63445   0.57743   0.80585   0.00000  Uiso   1.00
C949   C     0.66044   0.43677   0.71682   0.00000  Uiso   1.00
H950   H     0.62832   0.44087   0.69656   0.00000  Uiso   1.00
H951   H     0.36555   0.42257   0.69414   0.00000  Uiso   1.00
H952   H     0.64076   0.40679   0.74094   0.00000  Uiso   1.00
C953   C     0.84745   0.59975   0.75230   0.00000  Uiso   1.00
C954   C     0.81921   0.40025   0.74770   0.00000  Uiso   1.00
C955   C     0.76672   0.46124   0.53611   0.00000  Uiso   1.00
C956   C     0.89992   0.53886   0.96391   0.00000  Uiso   1.00
C957   C     0.72374   0.44733   0.50958   0.00000  Uiso   1.00
C958   C     0.94290   0.55277   0.99044   0.00000  Uiso   1.00
C959   C     0.85167   0.65531   0.75831   0.00000  Uiso   1.00
C960   C     0.81500   0.34469   0.74169   0.00000  Uiso   1.00
C961   C     0.79605   0.49086   0.83197   0.00000  Uiso   1.00
C962   C     0.87061   0.50915   0.66803   0.00000  Uiso   1.00
C963   C     0.77602   0.47671   0.87777   0.00000  Uiso   1.00
C964   C     0.89064   0.52333   0.62224   0.00000  Uiso   1.00
C965   C     0.69818   0.44165   0.93886   0.00000  Uiso   1.00
C966   C     0.96846   0.55843   0.56116   0.00000  Uiso   1.00
C967   C     0.71569   0.44956   0.89448   0.00000  Uiso   1.00
C968   C     0.95096   0.55050   0.60554   0.00000  Uiso   1.00
C969   C     0.82040   0.48412   0.90425   0.00000  Uiso   1.00
C970   C     0.84626   0.51594   0.59577   0.00000  Uiso   1.00
C971   C     0.80094   0.48516   0.94949   0.00000  Uiso   1.00
C972   C     0.86571   0.51492   0.55053   0.00000  Uiso   1.00
C973   C     0.73999   0.45976   0.96637   0.00000  Uiso   1.00
C974   C     0.92666   0.54033   0.53364   0.00000  Uiso   1.00
C975   C     0.84215   0.50589   0.97800   0.00000  Uiso   1.00
C976   C     0.82450   0.49421   0.52201   0.00000  Uiso   1.00
Cu977  Cu    0.77404   0.49441   0.74516   0.00000  Uiso   1.00
Cu978  Cu    0.89263   0.50559   0.75483   0.00000  Uiso   1.00
H979   H     0.67869   0.42437   0.52235   0.00000  Uiso   1.00
H980   H     0.98795   0.57573   0.97767   0.00000  Uiso   1.00
H981   H     0.98589   0.41977   0.95179   0.00000  Uiso   1.00
H982   H     0.68076   0.58033   0.54824   0.00000  Uiso   1.00
H983   H     0.75398   0.44588   0.56781   0.00000  Uiso   1.00
H984   H     0.91266   0.55422   0.93220   0.00000  Uiso   1.00
N985   N     0.98173   0.51401   0.76212   0.00000  Uiso   1.00
N986   N     0.68494   0.48599   0.73788   0.00000  Uiso   1.00
O987   O     0.79482   0.57142   0.74686   0.00000  Uiso   1.00
O988   O     0.87185   0.42858   0.75314   0.00000  Uiso   1.00
O989   O     0.89496   0.58086   0.75502   0.00000  Uiso   1.00
O990   O     0.77171   0.41914   0.74497   0.00000  Uiso   1.00
O991   O     0.75518   0.49263   0.80854   0.00000  Uiso   1.00
O992   O     0.91149   0.50737   0.69145   0.00000  Uiso   1.00
O993   O     0.85532   0.50207   0.81671   0.00000  Uiso   1.00
O994   O     0.81134   0.49793   0.68329   0.00000  Uiso   1.00
C995   C     0.78439   0.53061   0.61470   0.00000  Uiso   1.00
H996   H     0.76588   0.54574   0.58988   0.00000  Uiso   1.00
H997   H     0.75037   0.49644   0.62901   0.00000  Uiso   1.00
H998   H     0.78938   0.56352   0.63976   0.00000  Uiso   1.00
C999   C     0.88228   0.46947   0.88533   0.00000  Uiso   1.00
H1000  H     0.91629   0.50364   0.87100   0.00000  Uiso   1.00
H1001  H     0.90080   0.45437   0.91015   0.00000  Uiso   1.00
H1002  H     0.87730   0.43654   0.86029   0.00000  Uiso   1.00
C1003  C     0.99245   0.57963   0.63519   0.00000  Uiso   1.00
H1004  H     0.96701   0.60492   0.65964   0.00000  Uiso   1.00
H1005  H     0.67495   0.55171   0.65205   0.00000  Uiso   1.00
H1006  H     0.70009   0.60594   0.61738   0.00000  Uiso   1.00
C1007  C     0.67420   0.42042   0.86483   0.00000  Uiso   1.00
H1008  H     0.69963   0.39511   0.84039   0.00000  Uiso   1.00
H1009  H     0.96655   0.39412   0.88265   0.00000  Uiso   1.00
H1010  H     0.99171   0.44833   0.84796   0.00000  Uiso   1.00
F1011  F     0.88946   0.34925   0.78453   0.00000  Uiso   1.00
F1012  F     0.77721   0.65075   0.71547   0.00000  Uiso   1.00
C1013  C     0.67289   0.56323   0.78318   0.00000  Uiso   1.00
H1014  H     0.70502   0.55913   0.80344   0.00000  Uiso   1.00
H1015  H     0.69257   0.59321   0.75906   0.00000  Uiso   1.00
H1016  H     0.96779   0.57743   0.80585   0.00000  Uiso   1.00
C1017  C     0.99377   0.43677   0.71682   0.00000  Uiso   1.00
H1018  H     0.96165   0.44087   0.69656   0.00000  Uiso   1.00
H1019  H     0.69888   0.42257   0.69414   0.00000  Uiso   1.00
H1020  H     0.97410   0.40679   0.74094   0.00000  Uiso   1.00
C1021  C     0.18079   0.93309   0.75230   0.00000  Uiso   1.00
C1022  C     0.15255   0.73358   0.74770   0.00000  Uiso   1.00
C1023  C     0.10006   0.79457   0.53611   0.00000  Uiso   1.00
C1024  C     0.23325   0.87219   0.96391   0.00000  Uiso   1.00
C1025  C     0.05708   0.78066   0.50958   0.00000  Uiso   1.00
C1026  C     0.27623   0.88611   0.99044   0.00000  Uiso   1.00
C1027  C     0.18500   0.98864   0.75831   0.00000  Uiso   1.00
C1028  C     0.14833   0.67802   0.74169   0.00000  Uiso   1.00
C1029  C     0.12939   0.82419   0.83197   0.00000  Uiso   1.00
C1030  C     0.20395   0.84249   0.66803   0.00000  Uiso   1.00
C1031  C     0.10936   0.81005   0.87777   0.00000  Uiso   1.00
C1032  C     0.22397   0.85666   0.62224   0.00000  Uiso   1.00
C1033  C     0.03152   0.77499   0.93886   0.00000  Uiso   1.00
C1034  C     0.30180   0.89176   0.56116   0.00000  Uiso   1.00
C1035  C     0.04903   0.78289   0.89448   0.00000  Uiso   1.00
C1036  C     0.28430   0.88383   0.60554   0.00000  Uiso   1.00
C1037  C     0.15373   0.81745   0.90425   0.00000  Uiso   1.00
C1038  C     0.17959   0.84928   0.59577   0.00000  Uiso   1.00
C1039  C     0.13427   0.81850   0.94949   0.00000  Uiso   1.00
C1040  C     0.19904   0.84825   0.55053   0.00000  Uiso   1.00
C1041  C     0.07332   0.79309   0.96637   0.00000  Uiso   1.00
C1042  C     0.25999   0.87367   0.53364   0.00000  Uiso   1.00
C1043  C     0.17548   0.83922   0.97800   0.00000  Uiso   1.00
C1044  C     0.15783   0.82754   0.52201   0.00000  Uiso   1.00
Cu1045 Cu    0.10737   0.82775   0.74516   0.00000  Uiso   1.00
Cu1046 Cu    0.22596   0.83892   0.75483   0.00000  Uiso   1.00
H1047  H     0.01203   0.75771   0.52235   0.00000  Uiso   1.00
H1048  H     0.32128   0.90906   0.97767   0.00000  Uiso   1.00
H1049  H     0.31922   0.75310   0.95179   0.00000  Uiso   1.00
H1050  H     0.01409   0.91366   0.54824   0.00000  Uiso   1.00
H1051  H     0.08732   0.77921   0.56781   0.00000  Uiso   1.00
H1052  H     0.24599   0.88755   0.93220   0.00000  Uiso   1.00
N1053  N     0.31506   0.84735   0.76212   0.00000  Uiso   1.00
N1054  N     0.01827   0.81932   0.73788   0.00000  Uiso   1.00
O1055  O     0.12815   0.90476   0.74686   0.00000  Uiso   1.00
O1056  O     0.20518   0.76191   0.75314   0.00000  Uiso   1.00
O1057  O     0.22829   0.91420   0.75502   0.00000  Uiso   1.00
O1058  O     0.10504   0.75247   0.74497   0.00000  Uiso   1.00
O1059  O     0.08851   0.82597   0.80854   0.00000  Uiso   1.00
O1060  O     0.24482   0.84070   0.69145   0.00000  Uiso   1.00
O1061  O     0.18866   0.83540   0.81671   0.00000  Uiso   1.00
O1062  O     0.14468   0.83126   0.68329   0.00000  Uiso   1.00
C1063  C     0.11772   0.86394   0.61470   0.00000  Uiso   1.00
H1064  H     0.09921   0.87907   0.58988   0.00000  Uiso   1.00
H1065  H     0.08371   0.82977   0.62901   0.00000  Uiso   1.00
H1066  H     0.12272   0.89685   0.63976   0.00000  Uiso   1.00
C1067  C     0.21562   0.80280   0.88533   0.00000  Uiso   1.00
H1068  H     0.24962   0.83698   0.87100   0.00000  Uiso   1.00
H1069  H     0.23413   0.78770   0.91015   0.00000  Uiso   1.00
H1070  H     0.21063   0.76988   0.86029   0.00000  Uiso   1.00
C1071  C     0.32578   0.91296   0.63519   0.00000  Uiso   1.00
H1072  H     0.30034   0.93826   0.65964   0.00000  Uiso   1.00
H1073  H     0.00828   0.88504   0.65205   0.00000  Uiso   1.00
H1074  H     0.03342   0.93928   0.61738   0.00000  Uiso   1.00
C1075  C     0.00754   0.75375   0.86483   0.00000  Uiso   1.00
H1076  H     0.03296   0.72844   0.84039   0.00000  Uiso   1.00
H1077  H     0.29988   0.72745   0.88265   0.00000  Uiso   1.00
H1078  H     0.32504   0.78167   0.84796   0.00000  Uiso   1.00
F1079  F     0.22279   0.68258   0.78453   0.00000  Uiso   1.00
F1080  F     0.11054   0.98408   0.71547   0.00000  Uiso   1.00
C1081  C     0.00623   0.89656   0.78318   0.00000  Uiso   1.00
H1082  H     0.03835   0.89247   0.80344   0.00000  Uiso   1.00
H1083  H     0.02590   0.92654   0.75906   0.00000  Uiso   1.00
H1084  H     0.30112   0.91076   0.80585   0.00000  Uiso   1.00
C1085  C     0.32711   0.77011   0.71682   0.00000  Uiso   1.00
H1086  H     0.29498   0.77420   0.69656   0.00000  Uiso   1.00
H1087  H     0.03221   0.75591   0.69414   0.00000  Uiso   1.00
H1088  H     0.30743   0.74013   0.74094   0.00000  Uiso   1.00
C1089  C     0.51412   0.93309   0.75230   0.00000  Uiso   1.00
C1090  C     0.48588   0.73358   0.74770   0.00000  Uiso   1.00
C1091  C     0.43339   0.79457   0.53611   0.00000  Uiso   1.00
C1092  C     0.56659   0.87219   0.96391   0.00000  Uiso   1.00
C1093  C     0.39041   0.78066   0.50958   0.00000  Uiso   1.00
C1094  C     0.60957   0.88611   0.99044   0.00000  Uiso   1.00
C1095  C     0.51834   0.98864   0.75831   0.00000  Uiso   1.00
C1096  C     0.48167   0.67802   0.74169   0.00000  Uiso   1.00
C1097  C     0.46272   0.82419   0.83197   0.00000  Uiso   1.00
C1098  C     0.53728   0.84249   0.66803   0.00000  Uiso   1.00
C1099  C     0.44269   0.81005   0.87777   0.00000  Uiso   1.00
C1100  C     0.55731   0.85666   0.62224   0.00000  Uiso   1.00
C1101  C     0.36485   0.77499   0.93886   0.00000  Uiso   1.00
C1102  C     0.63513   0.89176   0.56116   0.00000  Uiso   1.00
C1103  C     0.38236   0.78289   0.89448   0.00000  Uiso   1.00
C1104  C     0.61763   0.88383   0.60554   0.00000  Uiso   1.00
C1105  C     0.48707   0.81745   0.90425   0.00000  Uiso   1.00
C1106  C     0.51292   0.84928   0.59577   0.00000  Uiso   1.00
C1107  C     0.46760   0.81850   0.94949   0.00000  Uiso   1.00
C1108  C     0.53238   0.84825   0.55053   0.00000  Uiso   1.00
C1109  C     0.40665   0.79309   0.96637   0.00000  Uiso   1.00
C1110  C     0.59333   0.87367   0.53364   0.00000  Uiso   1.00
C1111  C     0.50881   0.83922   0.97800   0.00000  Uiso   1.00
C1112  C     0.49117   0.82754   0.52201   0.00000  Uiso   1.00
Cu1113 Cu    0.44071   0.82775   0.74516   0.00000  Uiso   1.00
Cu1114 Cu    0.55929   0.83892   0.75483   0.00000  Uiso   1.00
H1115  H     0.34536   0.75771   0.52235   0.00000  Uiso   1.00
H1116  H     0.65461   0.90906   0.97767   0.00000  Uiso   1.00
H1117  H     0.65255   0.75310   0.95179   0.00000  Uiso   1.00
H1118  H     0.34742   0.91366   0.54824   0.00000  Uiso   1.00
H1119  H     0.42065   0.77921   0.56781   0.00000  Uiso   1.00
H1120  H     0.57933   0.88755   0.93220   0.00000  Uiso   1.00
N1121  N     0.64839   0.84735   0.76212   0.00000  Uiso   1.00
N1122  N     0.35161   0.81932   0.73788   0.00000  Uiso   1.00
O1123  O     0.46148   0.90476   0.74686   0.00000  Uiso   1.00
O1124  O     0.53852   0.76191   0.75314   0.00000  Uiso   1.00
O1125  O     0.56163   0.91420   0.75502   0.00000  Uiso   1.00
O1126  O     0.43837   0.75247   0.74497   0.00000  Uiso   1.00
O1127  O     0.42185   0.82597   0.80854   0.00000  Uiso   1.00
O1128  O     0.57815   0.84070   0.69145   0.00000  Uiso   1.00
O1129  O     0.52199   0.83540   0.81671   0.00000  Uiso   1.00
O1130  O     0.47801   0.83126   0.68329   0.00000  Uiso   1.00
C1131  C     0.45105   0.86394   0.61470   0.00000  Uiso   1.00
H1132  H     0.43255   0.87907   0.58988   0.00000  Uiso   1.00
H1133  H     0.41704   0.82977   0.62901   0.00000  Uiso   1.00
H1134  H     0.45605   0.89685   0.63976   0.00000  Uiso   1.00
C1135  C     0.54895   0.80280   0.88533   0.00000  Uiso   1.00
H1136  H     0.58295   0.83698   0.87100   0.00000  Uiso   1.00
H1137  H     0.56746   0.78770   0.91015   0.00000  Uiso   1.00
H1138  H     0.54396   0.76988   0.86029   0.00000  Uiso   1.00
C1139  C     0.65911   0.91296   0.63519   0.00000  Uiso   1.00
H1140  H     0.63367   0.93826   0.65964   0.00000  Uiso   1.00
H1141  H     0.34161   0.88504   0.65205   0.00000  Uiso   1.00
H1142  H     0.36676   0.93928   0.61738   0.00000  Uiso   1.00
C1143  C     0.34087   0.75375   0.86483   0.00000  Uiso   1.00
H1144  H     0.36630   0.72844   0.84039   0.00000  Uiso   1.00
H1145  H     0.63322   0.72745   0.88265   0.00000  Uiso   1.00
H1146  H     0.65837   0.78167   0.84796   0.00000  Uiso   1.00
F1147  F     0.55612   0.68258   0.78453   0.00000  Uiso   1.00
F1148  F     0.44388   0.98408   0.71547   0.00000  Uiso   1.00
C1149  C     0.33956   0.89656   0.78318   0.00000  Uiso   1.00
H1150  H     0.37168   0.89247   0.80344   0.00000  Uiso   1.00
H1151  H     0.35924   0.92654   0.75906   0.00000  Uiso   1.00
H1152  H     0.63445   0.91076   0.80585   0.00000  Uiso   1.00
C1153  C     0.66044   0.77011   0.71682   0.00000  Uiso   1.00
H1154  H     0.62832   0.77420   0.69656   0.00000  Uiso   1.00
H1155  H     0.36555   0.75591   0.69414   0.00000  Uiso   1.00
H1156  H     0.64076   0.74013   0.74094   0.00000  Uiso   1.00
C1157  C     0.84745   0.93309   0.75230   0.00000  Uiso   1.00
C1158  C     0.81921   0.73358   0.74770   0.00000  Uiso   1.00
C1159  C     0.76672   0.79457   0.53611   0.00000  Uiso   1.00
C1160  C     0.89992   0.87219   0.96391   0.00000  Uiso   1.00
C1161  C     0.72374   0.78066   0.50958   0.00000  Uiso   1.00
C1162  C     0.94290   0.88611   0.99044   0.00000  Uiso   1.00
C1163  C     0.85167   0.98864   0.75831   0.00000  Uiso   1.00
C1164  C     0.81500   0.67802   0.74169   0.00000  Uiso   1.00
C1165  C     0.79605   0.82419   0.83197   0.00000  Uiso   1.00
C1166  C     0.87061   0.84249   0.66803   0.00000  Uiso   1.00
C1167  C     0.77602   0.81005   0.87777   0.00000  Uiso   1.00
C1168  C     0.89064   0.85666   0.62224   0.00000  Uiso   1.00
C1169  C     0.69818   0.77499   0.93886   0.00000  Uiso   1.00
C1170  C     0.96846   0.89176   0.56116   0.00000  Uiso   1.00
C1171  C     0.71569   0.78289   0.89448   0.00000  Uiso   1.00
C1172  C     0.95096   0.88383   0.60554   0.00000  Uiso   1.00
C1173  C     0.82040   0.81745   0.90425   0.00000  Uiso   1.00
C1174  C     0.84626   0.84928   0.59577   0.00000  Uiso   1.00
C1175  C     0.80094   0.81850   0.94949   0.00000  Uiso   1.00
C1176  C     0.86571   0.84825   0.55053   0.00000  Uiso   1.00
C1177  C     0.73999   0.79309   0.96637   0.00000  Uiso   1.00
C1178  C     0.92666   0.87367   0.53364   0.00000  Uiso   1.00
C1179  C     0.84215   0.83922   0.97800   0.00000  Uiso   1.00
C1180  C     0.82450   0.82754   0.52201   0.00000  Uiso   1.00
Cu1181 Cu    0.77404   0.82775   0.74516   0.00000  Uiso   1.00
Cu1182 Cu    0.89263   0.83892   0.75483   0.00000  Uiso   1.00
H1183  H     0.67869   0.75771   0.52235   0.00000  Uiso   1.00
H1184  H     0.98795   0.90906   0.97767   0.00000  Uiso   1.00
H1185  H     0.98589   0.75310   0.95179   0.00000  Uiso   1.00
H1186  H     0.68076   0.91366   0.54824   0.00000  Uiso   1.00
H1187  H     0.75398   0.77921   0.56781   0.00000  Uiso   1.00
H1188  H     0.91266   0.88755   0.93220   0.00000  Uiso   1.00
N1189  N     0.98173   0.84735   0.76212   0.00000  Uiso   1.00
N1190  N     0.68494   0.81932   0.73788   0.00000  Uiso   1.00
O1191  O     0.79482   0.90476   0.74686   0.00000  Uiso   1.00
O1192  O     0.87185   0.76191   0.75314   0.00000  Uiso   1.00
O1193  O     0.89496   0.91420   0.75502   0.00000  Uiso   1.00
O1194  O     0.77171   0.75247   0.74497   0.00000  Uiso   1.00
O1195  O     0.75518   0.82597   0.80854   0.00000  Uiso   1.00
O1196  O     0.91149   0.84070   0.69145   0.00000  Uiso   1.00
O1197  O     0.85532   0.83540   0.81671   0.00000  Uiso   1.00
O1198  O     0.81134   0.83126   0.68329   0.00000  Uiso   1.00
C1199  C     0.78439   0.86394   0.61470   0.00000  Uiso   1.00
H1200  H     0.76588   0.87907   0.58988   0.00000  Uiso   1.00
H1201  H     0.75037   0.82977   0.62901   0.00000  Uiso   1.00
H1202  H     0.78938   0.89685   0.63976   0.00000  Uiso   1.00
C1203  C     0.88228   0.80280   0.88533   0.00000  Uiso   1.00
H1204  H     0.91629   0.83698   0.87100   0.00000  Uiso   1.00
H1205  H     0.90080   0.78770   0.91015   0.00000  Uiso   1.00
H1206  H     0.87730   0.76988   0.86029   0.00000  Uiso   1.00
C1207  C     0.99245   0.91296   0.63519   0.00000  Uiso   1.00
H1208  H     0.96701   0.93826   0.65964   0.00000  Uiso   1.00
H1209  H     0.67495   0.88504   0.65205   0.00000  Uiso   1.00
H1210  H     0.70009   0.93928   0.61738   0.00000  Uiso   1.00
C1211  C     0.67420   0.75375   0.86483   0.00000  Uiso   1.00
H1212  H     0.69963   0.72844   0.84039   0.00000  Uiso   1.00
H1213  H     0.96655   0.72745   0.88265   0.00000  Uiso   1.00
H1214  H     0.99171   0.78167   0.84796   0.00000  Uiso   1.00
F1215  F     0.88946   0.68258   0.78453   0.00000  Uiso   1.00
F1216  F     0.77721   0.98408   0.71547   0.00000  Uiso   1.00
C1217  C     0.67289   0.89656   0.78318   0.00000  Uiso   1.00
H1218  H     0.70502   0.89247   0.80344   0.00000  Uiso   1.00
H1219  H     0.69257   0.92654   0.75906   0.00000  Uiso   1.00
H1220  H     0.96779   0.91076   0.80585   0.00000  Uiso   1.00
C1221  C     0.99377   0.77011   0.71682   0.00000  Uiso   1.00
H1222  H     0.96165   0.77420   0.69656   0.00000  Uiso   1.00
H1223  H     0.69888   0.75591   0.69414   0.00000  Uiso   1.00
H1224  H     0.97410   0.74013   0.74094   0.00000  Uiso   1.00
loop_
_geom_bond_atom_site_label_1
_geom_bond_atom_site_label_2
_geom_bond_distance
_geom_bond_site_symmetry_2
_ccdc_geom_bond_type
C1     O37     1.300   .     A
C1     C7      1.425   .     S
C1     O35     1.298   .     A
C2     O38     1.300   .     A
C2     C8      1.425   .     S
C2     O36     1.298   .     A
C3     C5      1.389   .     A
C3     H31     1.079   .     S
C3     C24     1.414   .     A
C4     H32     1.079   .     S
C4     C6      1.389   .     A
C4     C23     1.414   .     A
C5     H27     1.084   .     S
C5     C633    1.394   1_554 S
C6     H28     1.084   .     S
C6     C634    1.394   .     S
C7     C212    1.337   .     S
C7     F263    1.362   .     S
C8     C415    1.337   1_545 S
C8     F468    1.362   1_545 S
C9     C11     1.486   .     S
C9     O41     1.307   .     A
C9     O39     1.319   .     A
C10    O42     1.307   .     A
C10    C12     1.486   .     S
C10    O40     1.319   .     A
C11    C17     1.416   .     A
C11    C15     1.415   .     A
C12    C16     1.415   .     A
C12    C18     1.416   .     A
C13    C15     1.402   .     A
C13    C21     1.401   .     A
C13    H165    1.085   1_455 S
C14    C22     1.401   .     A
C14    C16     1.402   .     A
C14    H98     1.085   .     S
C15    C55     1.508   .     S
C16    C51     1.508   .     S
C17    C19     1.407   .     A
C17    C47     1.516   .     S
C18    C43     1.516   .     S
C18    C20     1.407   .     A
C19    C23     1.425   .     A
C19    C21     1.414   .     A
C20    C24     1.425   .     A
C20    C22     1.414   .     A
C21    C617    1.394   .     S
C22    C618    1.394   1_554 S
C23    C636    1.413   .     S
C24    C635    1.413   1_554 S
Cu25   O42     1.966   .     S
Cu25   O38     1.950   .     S
Cu25   N34     2.047   .     S
Cu25   O39     1.967   .     S
Cu25   O35     1.957   .     S
Cu25   Cu26    2.725   .     S
Cu26   O37     1.950   .     S
Cu26   N33     2.047   .     S
Cu26   O40     1.967   .     S
Cu26   O41     1.966   .     S
Cu26   O36     1.957   .     S
H29    C81     1.085   .     S
H30    C150    1.085   1_455 S
N33    N102    1.297   .     S
N33    C129    1.441   .     S
N34    N169    1.297   1_455 S
N34    C201    1.441   1_455 S
C43    H44     1.109   .     S
C43    H45     1.110   .     S
C43    H46     1.112   .     S
C47    H48     1.110   .     S
C47    H49     1.109   .     S
C47    H50     1.112   .     S
C51    H52     1.111   .     S
C51    H121    1.105   .     S
C51    H122    1.110   .     S
H53    C187    1.105   1_455 S
H54    C187    1.110   1_455 S
C55    H56     1.111   .     S
C55    H193    1.110   1_455 S
C55    H194    1.105   1_455 S
H57    C123    1.110   .     S
H58    C123    1.105   .     S
F59    C415    1.362   1_545 S
F60    C212    1.362   .     S
C61    H62     1.098   .     S
C61    H63     1.105   .     S
C61    N169    1.441   1_455 S
C61    H200    1.108   1_455 S
H64    C129    1.108   .     S
C65    H68     1.105   .     S
C65    H66     1.098   .     S
C65    N102    1.441   .     S
C65    H135    1.108   .     S
H67    C201    1.108   1_455 S
C69    O105    1.300   .     A
C69    C75     1.425   .     S
C69    O103    1.298   .     A
C70    O106    1.300   .     A
C70    C76     1.425   .     S
C70    O104    1.298   .     A
C71    C73     1.389   .     A
C71    H99     1.079   .     S
C71    C92     1.414   .     A
C72    H100    1.079   .     S
C72    C74     1.389   .     A
C72    C91     1.414   .     A
C73    H95     1.084   .     S
C73    C701    1.394   1_554 S
C74    H96     1.084   .     S
C74    C702    1.394   .     S
C75    C280    1.337   .     S
C75    F331    1.362   .     S
C76    C483    1.337   1_545 S
C76    F536    1.362   1_545 S
C77    C79     1.486   .     S
C77    O109    1.307   .     A
C77    O107    1.319   .     A
C78    O110    1.307   .     A
C78    C80     1.486   .     S
C78    O108    1.319   .     A
C79    C85     1.416   .     A
C79    C83     1.415   .     A
C80    C84     1.415   .     A
C80    C86     1.416   .     A
C81    C83     1.402   .     A
C81    C89     1.401   .     A
C82    C90     1.401   .     A
C82    C84     1.402   .     A
C82    H166    1.085   .     S
C83    C123    1.508   .     S
C84    C119    1.508   .     S
C85    C87     1.407   .     A
C85    C115    1.516   .     S
C86    C111    1.516   .     S
C86    C88     1.407   .     A
C87    C91     1.425   .     A
C87    C89     1.414   .     A
C88    C92     1.425   .     A
C88    C90     1.414   .     A
C89    C685    1.394   .     S
C90    C686    1.394   1_554 S
C91    C704    1.413   .     S
C92    C703    1.413   1_554 S
Cu93   O110    1.966   .     S
Cu93   O106    1.950   .     S
Cu93   N102    2.047   .     S
Cu93   O107    1.967   .     S
Cu93   O103    1.957   .     S
Cu93   Cu94    2.725   .     S
Cu94   O105    1.950   .     S
Cu94   N101    2.047   .     S
Cu94   O108    1.967   .     S
Cu94   O109    1.966   .     S
Cu94   O104    1.957   .     S
H97    C149    1.085   .     S
N101   N170    1.297   .     S
N101   C197    1.441   .     S
C111   H112    1.109   .     S
C111   H113    1.110   .     S
C111   H114    1.112   .     S
C115   H116    1.110   .     S
C115   H117    1.109   .     S
C115   H118    1.112   .     S
C119   H120    1.111   .     S
C119   H189    1.105   .     S
C119   H190    1.110   .     S
C123   H124    1.111   .     S
H125   C191    1.110   .     S
H126   C191    1.105   .     S
F127   C483    1.362   1_545 S
F128   C280    1.362   .     S
C129   H130    1.098   .     S
C129   H131    1.105   .     S
H132   C197    1.108   .     S
C133   H136    1.105   .     S
C133   H134    1.098   .     S
C133   N170    1.441   .     S
C133   H203    1.108   .     S
C137   O173    1.300   .     A
C137   C143    1.425   .     S
C137   O171    1.298   .     A
C138   O174    1.300   .     A
C138   C144    1.425   .     S
C138   O172    1.298   .     A
C139   C141    1.389   .     A
C139   H167    1.079   .     S
C139   C160    1.414   .     A
C140   H168    1.079   .     S
C140   C142    1.389   .     A
C140   C159    1.414   .     A
C141   H163    1.084   .     S
C141   C769    1.394   1_554 S
C142   H164    1.084   .     S
C142   C770    1.394   .     S
C143   C348    1.337   .     S
C143   F399    1.362   .     S
C144   C551    1.337   1_545 S
C144   F604    1.362   1_545 S
C145   C147    1.486   .     S
C145   O177    1.307   .     A
C145   O175    1.319   .     A
C146   O178    1.307   .     A
C146   C148    1.486   .     S
C146   O176    1.319   .     A
C147   C153    1.416   .     A
C147   C151    1.415   .     A
C148   C152    1.415   .     A
C148   C154    1.416   .     A
C149   C151    1.402   .     A
C149   C157    1.401   .     A
C150   C158    1.401   .     A
C150   C152    1.402   .     A
C150   H30     1.085   1_655 S
C151   C191    1.508   .     S
C152   C187    1.508   .     S
C153   C155    1.407   .     A
C153   C183    1.516   .     S
C154   C179    1.516   .     S
C154   C156    1.407   .     A
C155   C159    1.425   .     A
C155   C157    1.414   .     A
C156   C160    1.425   .     A
C156   C158    1.414   .     A
C157   C753    1.394   .     S
C158   C754    1.394   1_554 S
C159   C772    1.413   .     S
C160   C771    1.413   1_554 S
Cu161  O178    1.966   .     S
Cu161  O174    1.950   .     S
Cu161  N170    2.047   .     S
Cu161  O175    1.967   .     S
Cu161  O171    1.957   .     S
Cu161  Cu162   2.725   .     S
Cu162  O173    1.950   .     S
Cu162  N169    2.047   .     S
Cu162  O176    1.967   .     S
Cu162  O177    1.966   .     S
Cu162  O172    1.957   .     S
H165   C13     1.085   1_655 S
N169   N34     1.297   1_655 S
N169   C61     1.441   1_655 S
C179   H180    1.109   .     S
C179   H181    1.110   .     S
C179   H182    1.112   .     S
C183   H184    1.110   .     S
C183   H185    1.109   .     S
C183   H186    1.112   .     S
C187   H188    1.111   .     S
C187   H53     1.105   1_655 S
C187   H54     1.110   1_655 S
C191   H192    1.111   .     S
H193   C55     1.110   1_655 S
H194   C55     1.105   1_655 S
F195   C551    1.362   1_545 S
F196   C348    1.362   .     S
C197   H198    1.098   .     S
C197   H199    1.105   .     S
H200   C61     1.108   1_655 S
C201   H204    1.105   .     S
C201   H202    1.098   .     S
C201   N34     1.441   1_655 S
C201   H67     1.108   1_655 S
C205   O241    1.300   .     A
C205   C211    1.425   .     S
C205   O239    1.298   .     A
C206   O242    1.300   .     A
C206   C212    1.425   .     S
C206   O240    1.298   .     A
C207   C209    1.389   .     A
C207   H235    1.079   .     S
C207   C228    1.414   .     A
C208   H236    1.079   .     S
C208   C210    1.389   .     A
C208   C227    1.414   .     A
C209   H231    1.084   .     S
C209   C837    1.394   1_554 S
C210   H232    1.084   .     S
C210   C838    1.394   .     S
C211   C416    1.337   .     S
C211   F467    1.362   .     S
C213   C215    1.486   .     S
C213   O245    1.307   .     A
C213   O243    1.319   .     A
C214   O246    1.307   .     A
C214   C216    1.486   .     S
C214   O244    1.319   .     A
C215   C221    1.416   .     A
C215   C219    1.415   .     A
C216   C220    1.415   .     A
C216   C222    1.416   .     A
C217   C219    1.402   .     A
C217   C225    1.401   .     A
C217   H369    1.085   1_455 S
C218   C226    1.401   .     A
C218   C220    1.402   .     A
C218   H302    1.085   .     S
C219   C259    1.508   .     S
C220   C255    1.508   .     S
C221   C223    1.407   .     A
C221   C251    1.516   .     S
C222   C247    1.516   .     S
C222   C224    1.407   .     A
C223   C227    1.425   .     A
C223   C225    1.414   .     A
C224   C228    1.425   .     A
C224   C226    1.414   .     A
C225   C821    1.394   .     S
C226   C822    1.394   1_554 S
C227   C840    1.413   .     S
C228   C839    1.413   1_554 S
Cu229  O246    1.966   .     S
Cu229  O242    1.950   .     S
Cu229  N238    2.047   .     S
Cu229  O243    1.967   .     S
Cu229  O239    1.957   .     S
Cu229  Cu230   2.725   .     S
Cu230  O241    1.950   .     S
Cu230  N237    2.047   .     S
Cu230  O244    1.967   .     S
Cu230  O245    1.966   .     S
Cu230  O240    1.957   .     S
H233   C285    1.085   .     S
H234   C354    1.085   1_455 S
N237   N306    1.297   .     S
N237   C333    1.441   .     S
N238   N373    1.297   1_455 S
N238   C405    1.441   1_455 S
C247   H248    1.109   .     S
C247   H249    1.110   .     S
C247   H250    1.112   .     S
C251   H252    1.110   .     S
C251   H253    1.109   .     S
C251   H254    1.112   .     S
C255   H256    1.111   .     S
C255   H325    1.105   .     S
C255   H326    1.110   .     S
H257   C391    1.105   1_455 S
H258   C391    1.110   1_455 S
C259   H260    1.111   .     S
C259   H397    1.110   1_455 S
C259   H398    1.105   1_455 S
H261   C327    1.110   .     S
H262   C327    1.105   .     S
F264   C416    1.362   .     S
C265   H266    1.098   .     S
C265   H267    1.105   .     S
C265   N373    1.441   1_455 S
C265   H404    1.108   1_455 S
H268   C333    1.108   .     S
C269   H272    1.105   .     S
C269   H270    1.098   .     S
C269   N306    1.441   .     S
C269   H339    1.108   .     S
H271   C405    1.108   1_455 S
C273   O309    1.300   .     A
C273   C279    1.425   .     S
C273   O307    1.298   .     A
C274   O310    1.300   .     A
C274   C280    1.425   .     S
C274   O308    1.298   .     A
C275   C277    1.389   .     A
C275   H303    1.079   .     S
C275   C296    1.414   .     A
C276   H304    1.079   .     S
C276   C278    1.389   .     A
C276   C295    1.414   .     A
C277   H299    1.084   .     S
C277   C905    1.394   1_554 S
C278   H300    1.084   .     S
C278   C906    1.394   .     S
C279   C484    1.337   .     S
C279   F535    1.362   .     S
C281   C283    1.486   .     S
C281   O313    1.307   .     A
C281   O311    1.319   .     A
C282   O314    1.307   .     A
C282   C284    1.486   .     S
C282   O312    1.319   .     A
C283   C289    1.416   .     A
C283   C287    1.415   .     A
C284   C288    1.415   .     A
C284   C290    1.416   .     A
C285   C287    1.402   .     A
C285   C293    1.401   .     A
C286   C294    1.401   .     A
C286   C288    1.402   .     A
C286   H370    1.085   .     S
C287   C327    1.508   .     S
C288   C323    1.508   .     S
C289   C291    1.407   .     A
C289   C319    1.516   .     S
C290   C315    1.516   .     S
C290   C292    1.407   .     A
C291   C295    1.425   .     A
C291   C293    1.414   .     A
C292   C296    1.425   .     A
C292   C294    1.414   .     A
C293   C889    1.394   .     S
C294   C890    1.394   1_554 S
C295   C908    1.413   .     S
C296   C907    1.413   1_554 S
Cu297  O314    1.966   .     S
Cu297  O310    1.950   .     S
Cu297  N306    2.047   .     S
Cu297  O311    1.967   .     S
Cu297  O307    1.957   .     S
Cu297  Cu298   2.725   .     S
Cu298  O309    1.950   .     S
Cu298  N305    2.047   .     S
Cu298  O312    1.967   .     S
Cu298  O313    1.966   .     S
Cu298  O308    1.957   .     S
H301   C353    1.085   .     S
N305   N374    1.297   .     S
N305   C401    1.441   .     S
C315   H316    1.109   .     S
C315   H317    1.110   .     S
C315   H318    1.112   .     S
C319   H320    1.110   .     S
C319   H321    1.109   .     S
C319   H322    1.112   .     S
C323   H324    1.111   .     S
C323   H393    1.105   .     S
C323   H394    1.110   .     S
C327   H328    1.111   .     S
H329   C395    1.110   .     S
H330   C395    1.105   .     S
F332   C484    1.362   .     S
C333   H334    1.098   .     S
C333   H335    1.105   .     S
H336   C401    1.108   .     S
C337   H340    1.105   .     S
C337   H338    1.098   .     S
C337   N374    1.441   .     S
C337   H407    1.108   .     S
C341   O377    1.300   .     A
C341   C347    1.425   .     S
C341   O375    1.298   .     A
C342   O378    1.300   .     A
C342   C348    1.425   .     S
C342   O376    1.298   .     A
C343   C345    1.389   .     A
C343   H371    1.079   .     S
C343   C364    1.414   .     A
C344   H372    1.079   .     S
C344   C346    1.389   .     A
C344   C363    1.414   .     A
C345   H367    1.084   .     S
C345   C973    1.394   1_554 S
C346   H368    1.084   .     S
C346   C974    1.394   .     S
C347   C552    1.337   .     S
C347   F603    1.362   .     S
C349   C351    1.486   .     S
C349   O381    1.307   .     A
C349   O379    1.319   .     A
C350   O382    1.307   .     A
C350   C352    1.486   .     S
C350   O380    1.319   .     A
C351   C357    1.416   .     A
C351   C355    1.415   .     A
C352   C356    1.415   .     A
C352   C358    1.416   .     A
C353   C355    1.402   .     A
C353   C361    1.401   .     A
C354   C362    1.401   .     A
C354   C356    1.402   .     A
C354   H234    1.085   1_655 S
C355   C395    1.508   .     S
C356   C391    1.508   .     S
C357   C359    1.407   .     A
C357   C387    1.516   .     S
C358   C383    1.516   .     S
C358   C360    1.407   .     A
C359   C363    1.425   .     A
C359   C361    1.414   .     A
C360   C364    1.425   .     A
C360   C362    1.414   .     A
C361   C957    1.394   .     S
C362   C958    1.394   1_554 S
C363   C976    1.413   .     S
C364   C975    1.413   1_554 S
Cu365  O382    1.966   .     S
Cu365  O378    1.950   .     S
Cu365  N374    2.047   .     S
Cu365  O379    1.967   .     S
Cu365  O375    1.957   .     S
Cu365  Cu366   2.725   .     S
Cu366  O377    1.950   .     S
Cu366  N373    2.047   .     S
Cu366  O380    1.967   .     S
Cu366  O381    1.966   .     S
Cu366  O376    1.957   .     S
H369   C217    1.085   1_655 S
N373   N238    1.297   1_655 S
N373   C265    1.441   1_655 S
C383   H384    1.109   .     S
C383   H385    1.110   .     S
C383   H386    1.112   .     S
C387   H388    1.110   .     S
C387   H389    1.109   .     S
C387   H390    1.112   .     S
C391   H392    1.111   .     S
C391   H257    1.105   1_655 S
C391   H258    1.110   1_655 S
C395   H396    1.111   .     S
H397   C259    1.110   1_655 S
H398   C259    1.105   1_655 S
F400   C552    1.362   .     S
C401   H402    1.098   .     S
C401   H403    1.105   .     S
H404   C265    1.108   1_655 S
C405   H408    1.105   .     S
C405   H406    1.098   .     S
C405   N238    1.441   1_655 S
C405   H271    1.108   1_655 S
C409   O445    1.300   .     A
C409   C415    1.425   .     S
C409   O443    1.298   .     A
C410   O446    1.300   .     A
C410   C416    1.425   .     S
C410   O444    1.298   .     A
C411   C413    1.389   .     A
C411   H439    1.079   .     S
C411   C432    1.414   .     A
C412   H440    1.079   .     S
C412   C414    1.389   .     A
C412   C431    1.414   .     A
C413   H435    1.084   .     S
C413   C1041   1.394   1_554 S
C414   H436    1.084   .     S
C414   C1042   1.394   .     S
C415   C8      1.337   1_565 S
C415   F59     1.362   1_565 S
C417   C419    1.486   .     S
C417   O449    1.307   .     A
C417   O447    1.319   .     A
C418   O450    1.307   .     A
C418   C420    1.486   .     S
C418   O448    1.319   .     A
C419   C425    1.416   .     A
C419   C423    1.415   .     A
C420   C424    1.415   .     A
C420   C426    1.416   .     A
C421   C423    1.402   .     A
C421   C429    1.401   .     A
C421   H573    1.085   1_455 S
C422   C430    1.401   .     A
C422   C424    1.402   .     A
C422   H506    1.085   .     S
C423   C463    1.508   .     S
C424   C459    1.508   .     S
C425   C427    1.407   .     A
C425   C455    1.516   .     S
C426   C451    1.516   .     S
C426   C428    1.407   .     A
C427   C431    1.425   .     A
C427   C429    1.414   .     A
C428   C432    1.425   .     A
C428   C430    1.414   .     A
C429   C1025   1.394   .     S
C430   C1026   1.394   1_554 S
C431   C1044   1.413   .     S
C432   C1043   1.413   1_554 S
Cu433  O450    1.966   .     S
Cu433  O446    1.950   .     S
Cu433  N442    2.047   .     S
Cu433  O447    1.967   .     S
Cu433  O443    1.957   .     S
Cu433  Cu434   2.725   .     S
Cu434  O445    1.950   .     S
Cu434  N441    2.047   .     S
Cu434  O448    1.967   .     S
Cu434  O449    1.966   .     S
Cu434  O444    1.957   .     S
H437   C489    1.085   .     S
H438   C558    1.085   1_455 S
N441   N510    1.297   .     S
N441   C537    1.441   .     S
N442   N577    1.297   1_455 S
N442   C609    1.441   1_455 S
C451   H452    1.109   .     S
C451   H453    1.110   .     S
C451   H454    1.112   .     S
C455   H456    1.110   .     S
C455   H457    1.109   .     S
C455   H458    1.112   .     S
C459   H460    1.111   .     S
C459   H529    1.105   .     S
C459   H530    1.110   .     S
H461   C595    1.105   1_455 S
H462   C595    1.110   1_455 S
C463   H464    1.111   .     S
C463   H601    1.110   1_455 S
C463   H602    1.105   1_455 S
H465   C531    1.110   .     S
H466   C531    1.105   .     S
F468   C8      1.362   1_565 S
C469   H470    1.098   .     S
C469   H471    1.105   .     S
C469   N577    1.441   1_455 S
C469   H608    1.108   1_455 S
H472   C537    1.108   .     S
C473   H476    1.105   .     S
C473   H474    1.098   .     S
C473   N510    1.441   .     S
C473   H543    1.108   .     S
H475   C609    1.108   1_455 S
C477   O513    1.300   .     A
C477   C483    1.425   .     S
C477   O511    1.298   .     A
C478   O514    1.300   .     A
C478   C484    1.425   .     S
C478   O512    1.298   .     A
C479   C481    1.389   .     A
C479   H507    1.079   .     S
C479   C500    1.414   .     A
C480   H508    1.079   .     S
C480   C482    1.389   .     A
C480   C499    1.414   .     A
C481   H503    1.084   .     S
C481   C1109   1.394   1_554 S
C482   H504    1.084   .     S
C482   C1110   1.394   .     S
C483   C76     1.337   1_565 S
C483   F127    1.362   1_565 S
C485   C487    1.486   .     S
C485   O517    1.307   .     A
C485   O515    1.319   .     A
C486   O518    1.307   .     A
C486   C488    1.486   .     S
C486   O516    1.319   .     A
C487   C493    1.416   .     A
C487   C491    1.415   .     A
C488   C492    1.415   .     A
C488   C494    1.416   .     A
C489   C491    1.402   .     A
C489   C497    1.401   .     A
C490   C498    1.401   .     A
C490   C492    1.402   .     A
C490   H574    1.085   .     S
C491   C531    1.508   .     S
C492   C527    1.508   .     S
C493   C495    1.407   .     A
C493   C523    1.516   .     S
C494   C519    1.516   .     S
C494   C496    1.407   .     A
C495   C499    1.425   .     A
C495   C497    1.414   .     A
C496   C500    1.425   .     A
C496   C498    1.414   .     A
C497   C1093   1.394   .     S
C498   C1094   1.394   1_554 S
C499   C1112   1.413   .     S
C500   C1111   1.413   1_554 S
Cu501  O518    1.966   .     S
Cu501  O514    1.950   .     S
Cu501  N510    2.047   .     S
Cu501  O515    1.967   .     S
Cu501  O511    1.957   .     S
Cu501  Cu502   2.725   .     S
Cu502  O513    1.950   .     S
Cu502  N509    2.047   .     S
Cu502  O516    1.967   .     S
Cu502  O517    1.966   .     S
Cu502  O512    1.957   .     S
H505   C557    1.085   .     S
N509   N578    1.297   .     S
N509   C605    1.441   .     S
C519   H520    1.109   .     S
C519   H521    1.110   .     S
C519   H522    1.112   .     S
C523   H524    1.110   .     S
C523   H525    1.109   .     S
C523   H526    1.112   .     S
C527   H528    1.111   .     S
C527   H597    1.105   .     S
C527   H598    1.110   .     S
C531   H532    1.111   .     S
H533   C599    1.110   .     S
H534   C599    1.105   .     S
F536   C76     1.362   1_565 S
C537   H538    1.098   .     S
C537   H539    1.105   .     S
H540   C605    1.108   .     S
C541   H544    1.105   .     S
C541   H542    1.098   .     S
C541   N578    1.441   .     S
C541   H611    1.108   .     S
C545   O581    1.300   .     A
C545   C551    1.425   .     S
C545   O579    1.298   .     A
C546   O582    1.300   .     A
C546   C552    1.425   .     S
C546   O580    1.298   .     A
C547   C549    1.389   .     A
C547   H575    1.079   .     S
C547   C568    1.414   .     A
C548   H576    1.079   .     S
C548   C550    1.389   .     A
C548   C567    1.414   .     A
C549   H571    1.084   .     S
C549   C1177   1.394   1_554 S
C550   H572    1.084   .     S
C550   C1178   1.394   .     S
C551   C144    1.337   1_565 S
C551   F195    1.362   1_565 S
C553   C555    1.486   .     S
C553   O585    1.307   .     A
C553   O583    1.319   .     A
C554   O586    1.307   .     A
C554   C556    1.486   .     S
C554   O584    1.319   .     A
C555   C561    1.416   .     A
C555   C559    1.415   .     A
C556   C560    1.415   .     A
C556   C562    1.416   .     A
C557   C559    1.402   .     A
C557   C565    1.401   .     A
C558   C566    1.401   .     A
C558   C560    1.402   .     A
C558   H438    1.085   1_655 S
C559   C599    1.508   .     S
C560   C595    1.508   .     S
C561   C563    1.407   .     A
C561   C591    1.516   .     S
C562   C587    1.516   .     S
C562   C564    1.407   .     A
C563   C567    1.425   .     A
C563   C565    1.414   .     A
C564   C568    1.425   .     A
C564   C566    1.414   .     A
C565   C1161   1.394   .     S
C566   C1162   1.394   1_554 S
C567   C1180   1.413   .     S
C568   C1179   1.413   1_554 S
Cu569  O586    1.966   .     S
Cu569  O582    1.950   .     S
Cu569  N578    2.047   .     S
Cu569  O583    1.967   .     S
Cu569  O579    1.957   .     S
Cu569  Cu570   2.725   .     S
Cu570  O581    1.950   .     S
Cu570  N577    2.047   .     S
Cu570  O584    1.967   .     S
Cu570  O585    1.966   .     S
Cu570  O580    1.957   .     S
H573   C421    1.085   1_655 S
N577   N442    1.297   1_655 S
N577   C469    1.441   1_655 S
C587   H588    1.109   .     S
C587   H589    1.110   .     S
C587   H590    1.112   .     S
C591   H592    1.110   .     S
C591   H593    1.109   .     S
C591   H594    1.112   .     S
C595   H596    1.111   .     S
C595   H461    1.105   1_655 S
C595   H462    1.110   1_655 S
C599   H600    1.111   .     S
H601   C463    1.110   1_655 S
H602   C463    1.105   1_655 S
F604   C144    1.362   1_565 S
C605   H606    1.098   .     S
C605   H607    1.105   .     S
H608   C469    1.108   1_655 S
C609   H612    1.105   .     S
C609   H610    1.098   .     S
C609   N442    1.441   1_655 S
C609   H475    1.108   1_655 S
C613   O649    1.300   .     A
C613   C619    1.425   .     S
C613   O647    1.298   .     A
C614   O650    1.300   .     A
C614   C620    1.425   .     S
C614   O648    1.298   .     A
C615   C617    1.389   .     A
C615   H643    1.079   .     S
C615   C636    1.414   .     A
C616   H644    1.079   .     S
C616   C618    1.389   .     A
C616   C635    1.414   .     A
C617   H639    1.084   .     S
C618   H640    1.084   .     S
C618   C22     1.394   1_556 S
C619   C824    1.337   .     S
C619   F875    1.362   .     S
C620   C1027   1.337   1_545 S
C620   F1080   1.362   1_545 S
C621   C623    1.486   .     S
C621   O653    1.307   .     A
C621   O651    1.319   .     A
C622   O654    1.307   .     A
C622   C624    1.486   .     S
C622   O652    1.319   .     A
C623   C629    1.416   .     A
C623   C627    1.415   .     A
C624   C628    1.415   .     A
C624   C630    1.416   .     A
C625   C627    1.402   .     A
C625   C633    1.401   .     A
C625   H777    1.085   1_455 S
C626   C634    1.401   .     A
C626   C628    1.402   .     A
C626   H710    1.085   .     S
C627   C667    1.508   .     S
C628   C663    1.508   .     S
C629   C631    1.407   .     A
C629   C659    1.516   .     S
C630   C655    1.516   .     S
C630   C632    1.407   .     A
C631   C635    1.425   .     A
C631   C633    1.414   .     A
C632   C636    1.425   .     A
C632   C634    1.414   .     A
C633   C5      1.394   1_556 S
C635   C24     1.413   1_556 S
Cu637  O654    1.966   .     S
Cu637  O650    1.950   .     S
Cu637  N646    2.047   .     S
Cu637  O651    1.967   .     S
Cu637  O647    1.957   .     S
Cu637  Cu638   2.725   .     S
Cu638  O649    1.950   .     S
Cu638  N645    2.047   .     S
Cu638  O652    1.967   .     S
Cu638  O653    1.966   .     S
Cu638  O648    1.957   .     S
H641   C693    1.085   .     S
H642   C762    1.085   1_455 S
N645   N714    1.297   .     S
N645   C741    1.441   .     S
N646   N781    1.297   1_455 S
N646   C813    1.441   1_455 S
C655   H656    1.109   .     S
C655   H657    1.110   .     S
C655   H658    1.112   .     S
C659   H660    1.110   .     S
C659   H661    1.109   .     S
C659   H662    1.112   .     S
C663   H664    1.111   .     S
C663   H733    1.105   .     S
C663   H734    1.110   .     S
H665   C799    1.105   1_455 S
H666   C799    1.110   1_455 S
C667   H668    1.111   .     S
C667   H805    1.110   1_455 S
C667   H806    1.105   1_455 S
H669   C735    1.110   .     S
H670   C735    1.105   .     S
F671   C1027   1.362   1_545 S
F672   C824    1.362   .     S
C673   H674    1.098   .     S
C673   H675    1.105   .     S
C673   N781    1.441   1_455 S
C673   H812    1.108   1_455 S
H676   C741    1.108   .     S
C677   H680    1.105   .     S
C677   H678    1.098   .     S
C677   N714    1.441   .     S
C677   H747    1.108   .     S
H679   C813    1.108   1_455 S
C681   O717    1.300   .     A
C681   C687    1.425   .     S
C681   O715    1.298   .     A
C682   O718    1.300   .     A
C682   C688    1.425   .     S
C682   O716    1.298   .     A
C683   C685    1.389   .     A
C683   H711    1.079   .     S
C683   C704    1.414   .     A
C684   H712    1.079   .     S
C684   C686    1.389   .     A
C684   C703    1.414   .     A
C685   H707    1.084   .     S
C686   H708    1.084   .     S
C686   C90     1.394   1_556 S
C687   C892    1.337   .     S
C687   F943    1.362   .     S
C688   C1095   1.337   1_545 S
C688   F1148   1.362   1_545 S
C689   C691    1.486   .     S
C689   O721    1.307   .     A
C689   O719    1.319   .     A
C690   O722    1.307   .     A
C690   C692    1.486   .     S
C690   O720    1.319   .     A
C691   C697    1.416   .     A
C691   C695    1.415   .     A
C692   C696    1.415   .     A
C692   C698    1.416   .     A
C693   C695    1.402   .     A
C693   C701    1.401   .     A
C694   C702    1.401   .     A
C694   C696    1.402   .     A
C694   H778    1.085   .     S
C695   C735    1.508   .     S
C696   C731    1.508   .     S
C697   C699    1.407   .     A
C697   C727    1.516   .     S
C698   C723    1.516   .     S
C698   C700    1.407   .     A
C699   C703    1.425   .     A
C699   C701    1.414   .     A
C700   C704    1.425   .     A
C700   C702    1.414   .     A
C701   C73     1.394   1_556 S
C703   C92     1.413   1_556 S
Cu705  O722    1.966   .     S
Cu705  O718    1.950   .     S
Cu705  N714    2.047   .     S
Cu705  O719    1.967   .     S
Cu705  O715    1.957   .     S
Cu705  Cu706   2.725   .     S
Cu706  O717    1.950   .     S
Cu706  N713    2.047   .     S
Cu706  O720    1.967   .     S
Cu706  O721    1.966   .     S
Cu706  O716    1.957   .     S
H709   C761    1.085   .     S
N713   N782    1.297   .     S
N713   C809    1.441   .     S
C723   H724    1.109   .     S
C723   H725    1.110   .     S
C723   H726    1.112   .     S
C727   H728    1.110   .     S
C727   H729    1.109   .     S
C727   H730    1.112   .     S
C731   H732    1.111   .     S
C731   H801    1.105   .     S
C731   H802    1.110   .     S
C735   H736    1.111   .     S
H737   C803    1.110   .     S
H738   C803    1.105   .     S
F739   C1095   1.362   1_545 S
F740   C892    1.362   .     S
C741   H742    1.098   .     S
C741   H743    1.105   .     S
H744   C809    1.108   .     S
C745   H748    1.105   .     S
C745   H746    1.098   .     S
C745   N782    1.441   .     S
C745   H815    1.108   .     S
C749   O785    1.300   .     A
C749   C755    1.425   .     S
C749   O783    1.298   .     A
C750   O786    1.300   .     A
C750   C756    1.425   .     S
C750   O784    1.298   .     A
C751   C753    1.389   .     A
C751   H779    1.079   .     S
C751   C772    1.414   .     A
C752   H780    1.079   .     S
C752   C754    1.389   .     A
C752   C771    1.414   .     A
C753   H775    1.084   .     S
C754   H776    1.084   .     S
C754   C158    1.394   1_556 S
C755   C960    1.337   .     S
C755   F1011   1.362   .     S
C756   C1163   1.337   1_545 S
C756   F1216   1.362   1_545 S
C757   C759    1.486   .     S
C757   O789    1.307   .     A
C757   O787    1.319   .     A
C758   O790    1.307   .     A
C758   C760    1.486   .     S
C758   O788    1.319   .     A
C759   C765    1.416   .     A
C759   C763    1.415   .     A
C760   C764    1.415   .     A
C760   C766    1.416   .     A
C761   C763    1.402   .     A
C761   C769    1.401   .     A
C762   C770    1.401   .     A
C762   C764    1.402   .     A
C762   H642    1.085   1_655 S
C763   C803    1.508   .     S
C764   C799    1.508   .     S
C765   C767    1.407   .     A
C765   C795    1.516   .     S
C766   C791    1.516   .     S
C766   C768    1.407   .     A
C767   C771    1.425   .     A
C767   C769    1.414   .     A
C768   C772    1.425   .     A
C768   C770    1.414   .     A
C769   C141    1.394   1_556 S
C771   C160    1.413   1_556 S
Cu773  O790    1.966   .     S
Cu773  O786    1.950   .     S
Cu773  N782    2.047   .     S
Cu773  O787    1.967   .     S
Cu773  O783    1.957   .     S
Cu773  Cu774   2.725   .     S
Cu774  O785    1.950   .     S
Cu774  N781    2.047   .     S
Cu774  O788    1.967   .     S
Cu774  O789    1.966   .     S
Cu774  O784    1.957   .     S
H777   C625    1.085   1_655 S
N781   N646    1.297   1_655 S
N781   C673    1.441   1_655 S
C791   H792    1.109   .     S
C791   H793    1.110   .     S
C791   H794    1.112   .     S
C795   H796    1.110   .     S
C795   H797    1.109   .     S
C795   H798    1.112   .     S
C799   H800    1.111   .     S
C799   H665    1.105   1_655 S
C799   H666    1.110   1_655 S
C803   H804    1.111   .     S
H805   C667    1.110   1_655 S
H806   C667    1.105   1_655 S
F807   C1163   1.362   1_545 S
F808   C960    1.362   .     S
C809   H810    1.098   .     S
C809   H811    1.105   .     S
H812   C673    1.108   1_655 S
C813   H816    1.105   .     S
C813   H814    1.098   .     S
C813   N646    1.441   1_655 S
C813   H679    1.108   1_655 S
C817   O853    1.300   .     A
C817   C823    1.425   .     S
C817   O851    1.298   .     A
C818   O854    1.300   .     A
C818   C824    1.425   .     S
C818   O852    1.298   .     A
C819   C821    1.389   .     A
C819   H847    1.079   .     S
C819   C840    1.414   .     A
C820   H848    1.079   .     S
C820   C822    1.389   .     A
C820   C839    1.414   .     A
C821   H843    1.084   .     S
C822   H844    1.084   .     S
C822   C226    1.394   1_556 S
C823   C1028   1.337   .     S
C823   F1079   1.362   .     S
C825   C827    1.486   .     S
C825   O857    1.307   .     A
C825   O855    1.319   .     A
C826   O858    1.307   .     A
C826   C828    1.486   .     S
C826   O856    1.319   .     A
C827   C833    1.416   .     A
C827   C831    1.415   .     A
C828   C832    1.415   .     A
C828   C834    1.416   .     A
C829   C831    1.402   .     A
C829   C837    1.401   .     A
C829   H981    1.085   1_455 S
C830   C838    1.401   .     A
C830   C832    1.402   .     A
C830   H914    1.085   .     S
C831   C871    1.508   .     S
C832   C867    1.508   .     S
C833   C835    1.407   .     A
C833   C863    1.516   .     S
C834   C859    1.516   .     S
C834   C836    1.407   .     A
C835   C839    1.425   .     A
C835   C837    1.414   .     A
C836   C840    1.425   .     A
C836   C838    1.414   .     A
C837   C209    1.394   1_556 S
C839   C228    1.413   1_556 S
Cu841  O858    1.966   .     S
Cu841  O854    1.950   .     S
Cu841  N850    2.047   .     S
Cu841  O855    1.967   .     S
Cu841  O851    1.957   .     S
Cu841  Cu842   2.725   .     S
Cu842  O853    1.950   .     S
Cu842  N849    2.047   .     S
Cu842  O856    1.967   .     S
Cu842  O857    1.966   .     S
Cu842  O852    1.957   .     S
H845   C897    1.085   .     S
H846   C966    1.085   1_455 S
N849   N918    1.297   .     S
N849   C945    1.441   .     S
N850   N985    1.297   1_455 S
N850   C1017   1.441   1_455 S
C859   H860    1.109   .     S
C859   H861    1.110   .     S
C859   H862    1.112   .     S
C863   H864    1.110   .     S
C863   H865    1.109   .     S
C863   H866    1.112   .     S
C867   H868    1.111   .     S
C867   H937    1.105   .     S
C867   H938    1.110   .     S
H869   C1003   1.105   1_455 S
H870   C1003   1.110   1_455 S
C871   H872    1.111   .     S
C871   H1009   1.110   1_455 S
C871   H1010   1.105   1_455 S
H873   C939    1.110   .     S
H874   C939    1.105   .     S
F876   C1028   1.362   .     S
C877   H878    1.098   .     S
C877   H879    1.105   .     S
C877   N985    1.441   1_455 S
C877   H1016   1.108   1_455 S
H880   C945    1.108   .     S
C881   H884    1.105   .     S
C881   H882    1.098   .     S
C881   N918    1.441   .     S
C881   H951    1.108   .     S
H883   C1017   1.108   1_455 S
C885   O921    1.300   .     A
C885   C891    1.425   .     S
C885   O919    1.298   .     A
C886   O922    1.300   .     A
C886   C892    1.425   .     S
C886   O920    1.298   .     A
C887   C889    1.389   .     A
C887   H915    1.079   .     S
C887   C908    1.414   .     A
C888   H916    1.079   .     S
C888   C890    1.389   .     A
C888   C907    1.414   .     A
C889   H911    1.084   .     S
C890   H912    1.084   .     S
C890   C294    1.394   1_556 S
C891   C1096   1.337   .     S
C891   F1147   1.362   .     S
C893   C895    1.486   .     S
C893   O925    1.307   .     A
C893   O923    1.319   .     A
C894   O926    1.307   .     A
C894   C896    1.486   .     S
C894   O924    1.319   .     A
C895   C901    1.416   .     A
C895   C899    1.415   .     A
C896   C900    1.415   .     A
C896   C902    1.416   .     A
C897   C899    1.402   .     A
C897   C905    1.401   .     A
C898   C906    1.401   .     A
C898   C900    1.402   .     A
C898   H982    1.085   .     S
C899   C939    1.508   .     S
C900   C935    1.508   .     S
C901   C903    1.407   .     A
C901   C931    1.516   .     S
C902   C927    1.516   .     S
C902   C904    1.407   .     A
C903   C907    1.425   .     A
C903   C905    1.414   .     A
C904   C908    1.425   .     A
C904   C906    1.414   .     A
C905   C277    1.394   1_556 S
C907   C296    1.413   1_556 S
Cu909  O926    1.966   .     S
Cu909  O922    1.950   .     S
Cu909  N918    2.047   .     S
Cu909  O923    1.967   .     S
Cu909  O919    1.957   .     S
Cu909  Cu910   2.725   .     S
Cu910  O921    1.950   .     S
Cu910  N917    2.047   .     S
Cu910  O924    1.967   .     S
Cu910  O925    1.966   .     S
Cu910  O920    1.957   .     S
H913   C965    1.085   .     S
N917   N986    1.297   .     S
N917   C1013   1.441   .     S
C927   H928    1.109   .     S
C927   H929    1.110   .     S
C927   H930    1.112   .     S
C931   H932    1.110   .     S
C931   H933    1.109   .     S
C931   H934    1.112   .     S
C935   H936    1.111   .     S
C935   H1005   1.105   .     S
C935   H1006   1.110   .     S
C939   H940    1.111   .     S
H941   C1007   1.110   .     S
H942   C1007   1.105   .     S
F944   C1096   1.362   .     S
C945   H946    1.098   .     S
C945   H947    1.105   .     S
H948   C1013   1.108   .     S
C949   H952    1.105   .     S
C949   H950    1.098   .     S
C949   N986    1.441   .     S
C949   H1019   1.108   .     S
C953   O989    1.300   .     A
C953   C959    1.425   .     S
C953   O987    1.298   .     A
C954   O990    1.300   .     A
C954   C960    1.425   .     S
C954   O988    1.298   .     A
C955   C957    1.389   .     A
C955   H983    1.079   .     S
C955   C976    1.414   .     A
C956   H984    1.079   .     S
C956   C958    1.389   .     A
C956   C975    1.414   .     A
C957   H979    1.084   .     S
C958   H980    1.084   .     S
C958   C362    1.394   1_556 S
C959   C1164   1.337   .     S
C959   F1215   1.362   .     S
C961   C963    1.486   .     S
C961   O993    1.307   .     A
C961   O991    1.319   .     A
C962   O994    1.307   .     A
C962   C964    1.486   .     S
C962   O992    1.319   .     A
C963   C969    1.416   .     A
C963   C967    1.415   .     A
C964   C968    1.415   .     A
C964   C970    1.416   .     A
C965   C967    1.402   .     A
C965   C973    1.401   .     A
C966   C974    1.401   .     A
C966   C968    1.402   .     A
C966   H846    1.085   1_655 S
C967   C1007   1.508   .     S
C968   C1003   1.508   .     S
C969   C971    1.407   .     A
C969   C999    1.516   .     S
C970   C995    1.516   .     S
C970   C972    1.407   .     A
C971   C975    1.425   .     A
C971   C973    1.414   .     A
C972   C976    1.425   .     A
C972   C974    1.414   .     A
C973   C345    1.394   1_556 S
C975   C364    1.413   1_556 S
Cu977  O994    1.966   .     S
Cu977  O990    1.950   .     S
Cu977  N986    2.047   .     S
Cu977  O991    1.967   .     S
Cu977  O987    1.957   .     S
Cu977  Cu978   2.725   .     S
Cu978  O989    1.950   .     S
Cu978  N985    2.047   .     S
Cu978  O992    1.967   .     S
Cu978  O993    1.966   .     S
Cu978  O988    1.957   .     S
H981   C829    1.085   1_655 S
N985   N850    1.297   1_655 S
N985   C877    1.441   1_655 S
C995   H996    1.109   .     S
C995   H997    1.110   .     S
C995   H998    1.112   .     S
C999   H1000   1.110   .     S
C999   H1001   1.109   .     S
C999   H1002   1.112   .     S
C1003  H1004   1.111   .     S
C1003  H869    1.105   1_655 S
C1003  H870    1.110   1_655 S
C1007  H1008   1.111   .     S
H1009  C871    1.110   1_655 S
H1010  C871    1.105   1_655 S
F1012  C1164   1.362   .     S
C1013  H1014   1.098   .     S
C1013  H1015   1.105   .     S
H1016  C877    1.108   1_655 S
C1017  H1020   1.105   .     S
C1017  H1018   1.098   .     S
C1017  N850    1.441   1_655 S
C1017  H883    1.108   1_655 S
C1021  O1057   1.300   .     A
C1021  C1027   1.425   .     S
C1021  O1055   1.298   .     A
C1022  O1058   1.300   .     A
C1022  C1028   1.425   .     S
C1022  O1056   1.298   .     A
C1023  C1025   1.389   .     A
C1023  H1051   1.079   .     S
C1023  C1044   1.414   .     A
C1024  H1052   1.079   .     S
C1024  C1026   1.389   .     A
C1024  C1043   1.414   .     A
C1025  H1047   1.084   .     S
C1026  H1048   1.084   .     S
C1026  C430    1.394   1_556 S
C1027  C620    1.337   1_565 S
C1027  F671    1.362   1_565 S
C1029  C1031   1.486   .     S
C1029  O1061   1.307   .     A
C1029  O1059   1.319   .     A
C1030  O1062   1.307   .     A
C1030  C1032   1.486   .     S
C1030  O1060   1.319   .     A
C1031  C1037   1.416   .     A
C1031  C1035   1.415   .     A
C1032  C1036   1.415   .     A
C1032  C1038   1.416   .     A
C1033  C1035   1.402   .     A
C1033  C1041   1.401   .     A
C1033  H1185   1.085   1_455 S
C1034  C1042   1.401   .     A
C1034  C1036   1.402   .     A
C1034  H1118   1.085   .     S
C1035  C1075   1.508   .     S
C1036  C1071   1.508   .     S
C1037  C1039   1.407   .     A
C1037  C1067   1.516   .     S
C1038  C1063   1.516   .     S
C1038  C1040   1.407   .     A
C1039  C1043   1.425   .     A
C1039  C1041   1.414   .     A
C1040  C1044   1.425   .     A
C1040  C1042   1.414   .     A
C1041  C413    1.394   1_556 S
C1043  C432    1.413   1_556 S
Cu1045 O1062   1.966   .     S
Cu1045 O1058   1.950   .     S
Cu1045 N1054   2.047   .     S
Cu1045 O1059   1.967   .     S
Cu1045 O1055   1.957   .     S
Cu1045 Cu1046  2.725   .     S
Cu1046 O1057   1.950   .     S
Cu1046 N1053   2.047   .     S
Cu1046 O1060   1.967   .     S
Cu1046 O1061   1.966   .     S
Cu1046 O1056   1.957   .     S
H1049  C1101   1.085   .     S
H1050  C1170   1.085   1_455 S
N1053  N1122   1.297   .     S
N1053  C1149   1.441   .     S
N1054  N1189   1.297   1_455 S
N1054  C1221   1.441   1_455 S
C1063  H1064   1.109   .     S
C1063  H1065   1.110   .     S
C1063  H1066   1.112   .     S
C1067  H1068   1.110   .     S
C1067  H1069   1.109   .     S
C1067  H1070   1.112   .     S
C1071  H1072   1.111   .     S
C1071  H1141   1.105   .     S
C1071  H1142   1.110   .     S
H1073  C1207   1.105   1_455 S
H1074  C1207   1.110   1_455 S
C1075  H1076   1.111   .     S
C1075  H1213   1.110   1_455 S
C1075  H1214   1.105   1_455 S
H1077  C1143   1.110   .     S
H1078  C1143   1.105   .     S
F1080  C620    1.362   1_565 S
C1081  H1082   1.098   .     S
C1081  H1083   1.105   .     S
C1081  N1189   1.441   1_455 S
C1081  H1220   1.108   1_455 S
H1084  C1149   1.108   .     S
C1085  H1088   1.105   .     S
C1085  H1086   1.098   .     S
C1085  N1122   1.441   .     S
C1085  H1155   1.108   .     S
H1087  C1221   1.108   1_455 S
C1089  O1125   1.300   .     A
C1089  C1095   1.425   .     S
C1089  O1123   1.298   .     A
C1090  O1126   1.300   .     A
C1090  C1096   1.425   .     S
C1090  O1124   1.298   .     A
C1091  C1093   1.389   .     A
C1091  H1119   1.079   .     S
C1091  C1112   1.414   .     A
C1092  H1120   1.079   .     S
C1092  C1094   1.389   .     A
C1092  C1111   1.414   .     A
C1093  H1115   1.084   .     S
C1094  H1116   1.084   .     S
C1094  C498    1.394   1_556 S
C1095  C688    1.337   1_565 S
C1095  F739    1.362   1_565 S
C1097  C1099   1.486   .     S
C1097  O1129   1.307   .     A
C1097  O1127   1.319   .     A
C1098  O1130   1.307   .     A
C1098  C1100   1.486   .     S
C1098  O1128   1.319   .     A
C1099  C1105   1.416   .     A
C1099  C1103   1.415   .     A
C1100  C1104   1.415   .     A
C1100  C1106   1.416   .     A
C1101  C1103   1.402   .     A
C1101  C1109   1.401   .     A
C1102  C1110   1.401   .     A
C1102  C1104   1.402   .     A
C1102  H1186   1.085   .     S
C1103  C1143   1.508   .     S
C1104  C1139   1.508   .     S
C1105  C1107   1.407   .     A
C1105  C1135   1.516   .     S
C1106  C1131   1.516   .     S
C1106  C1108   1.407   .     A
C1107  C1111   1.425   .     A
C1107  C1109   1.414   .     A
C1108  C1112   1.425   .     A
C1108  C1110   1.414   .     A
C1109  C481    1.394   1_556 S
C1111  C500    1.413   1_556 S
Cu1113 O1130   1.966   .     S
Cu1113 O1126   1.950   .     S
Cu1113 N1122   2.047   .     S
Cu1113 O1127   1.967   .     S
Cu1113 O1123   1.957   .     S
Cu1113 Cu1114  2.725   .     S
Cu1114 O1125   1.950   .     S
Cu1114 N1121   2.047   .     S
Cu1114 O1128   1.967   .     S
Cu1114 O1129   1.966   .     S
Cu1114 O1124   1.957   .     S
H1117  C1169   1.085   .     S
N1121  N1190   1.297   .     S
N1121  C1217   1.441   .     S
C1131  H1132   1.109   .     S
C1131  H1133   1.110   .     S
C1131  H1134   1.112   .     S
C1135  H1136   1.110   .     S
C1135  H1137   1.109   .     S
C1135  H1138   1.112   .     S
C1139  H1140   1.111   .     S
C1139  H1209   1.105   .     S
C1139  H1210   1.110   .     S
C1143  H1144   1.111   .     S
H1145  C1211   1.110   .     S
H1146  C1211   1.105   .     S
F1148  C688    1.362   1_565 S
C1149  H1150   1.098   .     S
C1149  H1151   1.105   .     S
H1152  C1217   1.108   .     S
C1153  H1156   1.105   .     S
C1153  H1154   1.098   .     S
C1153  N1190   1.441   .     S
C1153  H1223   1.108   .     S
C1157  O1193   1.300   .     A
C1157  C1163   1.425   .     S
C1157  O1191   1.298   .     A
C1158  O1194   1.300   .     A
C1158  C1164   1.425   .     S
C1158  O1192   1.298   .     A
C1159  C1161   1.389   .     A
C1159  H1187   1.079   .     S
C1159  C1180   1.414   .     A
C1160  H1188   1.079   .     S
C1160  C1162   1.389   .     A
C1160  C1179   1.414   .     A
C1161  H1183   1.084   .     S
C1162  H1184   1.084   .     S
C1162  C566    1.394   1_556 S
C1163  C756    1.337   1_565 S
C1163  F807    1.362   1_565 S
C1165  C1167   1.486   .     S
C1165  O1197   1.307   .     A
C1165  O1195   1.319   .     A
C1166  O1198   1.307   .     A
C1166  C1168   1.486   .     S
C1166  O1196   1.319   .     A
C1167  C1173   1.416   .     A
C1167  C1171   1.415   .     A
C1168  C1172   1.415   .     A
C1168  C1174   1.416   .     A
C1169  C1171   1.402   .     A
C1169  C1177   1.401   .     A
C1170  C1178   1.401   .     A
C1170  C1172   1.402   .     A
C1170  H1050   1.085   1_655 S
C1171  C1211   1.508   .     S
C1172  C1207   1.508   .     S
C1173  C1175   1.407   .     A
C1173  C1203   1.516   .     S
C1174  C1199   1.516   .     S
C1174  C1176   1.407   .     A
C1175  C1179   1.425   .     A
C1175  C1177   1.414   .     A
C1176  C1180   1.425   .     A
C1176  C1178   1.414   .     A
C1177  C549    1.394   1_556 S
C1179  C568    1.413   1_556 S
Cu1181 O1198   1.966   .     S
Cu1181 O1194   1.950   .     S
Cu1181 N1190   2.047   .     S
Cu1181 O1195   1.967   .     S
Cu1181 O1191   1.957   .     S
Cu1181 Cu1182  2.725   .     S
Cu1182 O1193   1.950   .     S
Cu1182 N1189   2.047   .     S
Cu1182 O1196   1.967   .     S
Cu1182 O1197   1.966   .     S
Cu1182 O1192   1.957   .     S
H1185  C1033   1.085   1_655 S
N1189  N1054   1.297   1_655 S
N1189  C1081   1.441   1_655 S
C1199  H1200   1.109   .     S
C1199  H1201   1.110   .     S
C1199  H1202   1.112   .     S
C1203  H1204   1.110   .     S
C1203  H1205   1.109   .     S
C1203  H1206   1.112   .     S
C1207  H1208   1.111   .     S
C1207  H1073   1.105   1_655 S
C1207  H1074   1.110   1_655 S
C1211  H1212   1.111   .     S
H1213  C1075   1.110   1_655 S
H1214  C1075   1.105   1_655 S
F1216  C756    1.362   1_565 S
C1217  H1218   1.098   .     S
C1217  H1219   1.105   .     S
H1220  C1081   1.108   1_655 S
C1221  H1224   1.105   .     S
C1221  H1222   1.098   .     S
C1221  N1054   1.441   1_655 S
C1221  H1087   1.108   1_655 S
