data_str_m2_o10_o17_pcu_sym.211
_audit_creation_date              2020-01-03
_audit_creation_method            'Materials Studio'
_symmetry_space_group_name_H-M    'P1'
_symmetry_Int_Tables_number       1
_symmetry_cell_setting            triclinic
loop_
_symmetry_equiv_pos_as_xyz
  x,y,z
_cell_length_a                    29.9303
_cell_length_b                    26.0619
_cell_length_c                    22.8943
_cell_angle_alpha                 103.7413
_cell_angle_beta                  96.2017
_cell_angle_gamma                 96.1644
loop_
_atom_site_label
_atom_site_type_symbol
_atom_site_fract_x
_atom_site_fract_y
_atom_site_fract_z
_atom_site_U_iso_or_equiv
_atom_site_adp_type
_atom_site_occupancy
C1     C     0.24858   0.06660   0.15084   0.00000  Uiso   1.00
C2     C     0.25142   0.26674   0.18249   0.00000  Uiso   1.00
C3     C     0.00990   0.07017   0.11778   0.00000  Uiso   1.00
C4     C     0.49010   0.26316   0.21555   0.00000  Uiso   1.00
C5     C     0.24797   0.01023   0.14246   0.00000  Uiso   1.00
C6     C     0.25203   0.32310   0.19087   0.00000  Uiso   1.00
C7     C     0.16470   0.16661   0.16635   0.00000  Uiso   1.00
C8     C     0.33530   0.16672   0.16698   0.00000  Uiso   1.00
C9     C     0.41293   0.21330   0.19424   0.00000  Uiso   1.00
C10    C     0.08707   0.12003   0.13909   0.00000  Uiso   1.00
C11    C     0.38353   0.16646   0.16731   0.00000  Uiso   1.00
C12    C     0.11647   0.16688   0.16603   0.00000  Uiso   1.00
C13    C     0.39976   0.11991   0.13936   0.00000  Uiso   1.00
C14    C     0.10024   0.21342   0.19397   0.00000  Uiso   1.00
C15    C     0.44641   0.11952   0.13991   0.00000  Uiso   1.00
C16    C     0.05359   0.21382   0.19342   0.00000  Uiso   1.00
C17    C     0.47655   0.16703   0.16633   0.00000  Uiso   1.00
C18    C     0.02345   0.16630   0.16700   0.00000  Uiso   1.00
C19    C     0.45967   0.21518   0.19188   0.00000  Uiso   1.00
C20    C     0.04033   0.11815   0.14145   0.00000  Uiso   1.00
C21    C     0.46322   0.07205   0.11565   0.00000  Uiso   1.00
C22    C     0.03678   0.26128   0.21768   0.00000  Uiso   1.00
Cu23   Cu    0.25500   0.17246   0.22813   0.00000  Uiso   1.00
Cu24   Cu    0.24499   0.16087   0.10521   0.00000  Uiso   1.00
H25    H     0.39863   0.24772   0.21702   0.00000  Uiso   1.00
H26    H     0.10137   0.08561   0.11631   0.00000  Uiso   1.00
H27    H     0.43984   0.03556   0.09702   0.00000  Uiso   1.00
H28    H     0.06016   0.29777   0.23631   0.00000  Uiso   1.00
H29    H     0.24421   0.31888   0.09624   0.00000  Uiso   1.00
H30    H     0.25579   0.01446   0.23709   0.00000  Uiso   1.00
N31    N     0.23744   0.15214   0.01284   0.00000  Uiso   1.00
N32    N     0.26255   0.18119   0.32049   0.00000  Uiso   1.00
O33    O     0.25325   0.09538   0.20659   0.00000  Uiso   1.00
O34    O     0.24674   0.23796   0.12674   0.00000  Uiso   1.00
O35    O     0.24480   0.08559   0.10279   0.00000  Uiso   1.00
O36    O     0.25520   0.24774   0.23055   0.00000  Uiso   1.00
O37    O     0.18935   0.17155   0.21857   0.00000  Uiso   1.00
O38    O     0.31064   0.16179   0.11476   0.00000  Uiso   1.00
O39    O     0.18090   0.16176   0.11477   0.00000  Uiso   1.00
O40    O     0.31910   0.17157   0.21857   0.00000  Uiso   1.00
F41    F     0.37010   0.07479   0.11360   0.00000  Uiso   1.00
F42    F     0.12990   0.25855   0.21974   0.00000  Uiso   1.00
C43    C     0.02514   0.01693   0.09817   0.00000  Uiso   1.00
O44    O     0.00246   0.31588   0.05653   0.00000  Uiso   1.00
O45    O     0.06381   0.00482   0.12937   0.00000  Uiso   1.00
H46    H     0.07016   0.30051   0.11200   0.00000  Uiso   1.00
C47    C     0.47485   0.31640   0.23516   0.00000  Uiso   1.00
O48    O     0.49754   0.01745   0.27679   0.00000  Uiso   1.00
O49    O     0.43619   0.32851   0.20396   0.00000  Uiso   1.00
H50    H     0.42984   0.03283   0.22133   0.00000  Uiso   1.00
C51    C     0.20084   0.11016   0.31682   0.00000  Uiso   1.00
O52    O     0.18044   0.08735   0.01549   0.00000  Uiso   1.00
O53    O     0.18696   0.09315   0.25488   0.00000  Uiso   1.00
H54    H     0.16067   0.06300   0.24302   0.00000  Uiso   1.00
C55    C     0.29916   0.22318   0.01652   0.00000  Uiso   1.00
O56    O     0.31956   0.24599   0.31784   0.00000  Uiso   1.00
O57    O     0.31304   0.24018   0.07845   0.00000  Uiso   1.00
H58    H     0.33933   0.27033   0.09031   0.00000  Uiso   1.00
C59    C     0.74858   0.06660   0.15084   0.00000  Uiso   1.00
C60    C     0.75142   0.26674   0.18249   0.00000  Uiso   1.00
C61    C     0.50990   0.07017   0.11778   0.00000  Uiso   1.00
C62    C     0.99010   0.26316   0.21555   0.00000  Uiso   1.00
C63    C     0.74797   0.01023   0.14246   0.00000  Uiso   1.00
C64    C     0.75203   0.32310   0.19087   0.00000  Uiso   1.00
C65    C     0.66470   0.16661   0.16635   0.00000  Uiso   1.00
C66    C     0.83530   0.16672   0.16698   0.00000  Uiso   1.00
C67    C     0.91293   0.21330   0.19424   0.00000  Uiso   1.00
C68    C     0.58707   0.12003   0.13909   0.00000  Uiso   1.00
C69    C     0.88353   0.16646   0.16731   0.00000  Uiso   1.00
C70    C     0.61647   0.16688   0.16603   0.00000  Uiso   1.00
C71    C     0.89976   0.11991   0.13936   0.00000  Uiso   1.00
C72    C     0.60024   0.21342   0.19397   0.00000  Uiso   1.00
C73    C     0.94641   0.11952   0.13991   0.00000  Uiso   1.00
C74    C     0.55359   0.21382   0.19342   0.00000  Uiso   1.00
C75    C     0.97655   0.16703   0.16633   0.00000  Uiso   1.00
C76    C     0.52345   0.16630   0.16700   0.00000  Uiso   1.00
C77    C     0.95967   0.21518   0.19188   0.00000  Uiso   1.00
C78    C     0.54033   0.11815   0.14145   0.00000  Uiso   1.00
C79    C     0.96322   0.07205   0.11565   0.00000  Uiso   1.00
C80    C     0.53678   0.26128   0.21768   0.00000  Uiso   1.00
Cu81   Cu    0.75500   0.17246   0.22813   0.00000  Uiso   1.00
Cu82   Cu    0.74499   0.16087   0.10521   0.00000  Uiso   1.00
H83    H     0.89863   0.24772   0.21702   0.00000  Uiso   1.00
H84    H     0.60137   0.08561   0.11631   0.00000  Uiso   1.00
H85    H     0.93984   0.03556   0.09702   0.00000  Uiso   1.00
H86    H     0.56016   0.29777   0.23631   0.00000  Uiso   1.00
H87    H     0.74421   0.31888   0.09624   0.00000  Uiso   1.00
H88    H     0.75579   0.01446   0.23709   0.00000  Uiso   1.00
N89    N     0.73744   0.15214   0.01284   0.00000  Uiso   1.00
N90    N     0.76255   0.18119   0.32049   0.00000  Uiso   1.00
O91    O     0.75325   0.09538   0.20659   0.00000  Uiso   1.00
O92    O     0.74674   0.23796   0.12674   0.00000  Uiso   1.00
O93    O     0.74480   0.08559   0.10279   0.00000  Uiso   1.00
O94    O     0.75520   0.24774   0.23055   0.00000  Uiso   1.00
O95    O     0.68935   0.17155   0.21857   0.00000  Uiso   1.00
O96    O     0.81064   0.16179   0.11476   0.00000  Uiso   1.00
O97    O     0.68090   0.16176   0.11477   0.00000  Uiso   1.00
O98    O     0.81910   0.17157   0.21857   0.00000  Uiso   1.00
F99    F     0.87010   0.07479   0.11360   0.00000  Uiso   1.00
F100   F     0.62990   0.25855   0.21974   0.00000  Uiso   1.00
C101   C     0.52514   0.01693   0.09817   0.00000  Uiso   1.00
O102   O     0.50246   0.31588   0.05653   0.00000  Uiso   1.00
O103   O     0.56381   0.00482   0.12937   0.00000  Uiso   1.00
H104   H     0.57016   0.30051   0.11200   0.00000  Uiso   1.00
C105   C     0.97485   0.31640   0.23516   0.00000  Uiso   1.00
O106   O     0.99754   0.01745   0.27679   0.00000  Uiso   1.00
O107   O     0.93619   0.32851   0.20396   0.00000  Uiso   1.00
H108   H     0.92984   0.03283   0.22133   0.00000  Uiso   1.00
C109   C     0.70084   0.11016   0.31682   0.00000  Uiso   1.00
O110   O     0.68044   0.08735   0.01549   0.00000  Uiso   1.00
O111   O     0.68696   0.09315   0.25488   0.00000  Uiso   1.00
H112   H     0.66067   0.06300   0.24302   0.00000  Uiso   1.00
C113   C     0.79916   0.22318   0.01652   0.00000  Uiso   1.00
O114   O     0.81956   0.24599   0.31784   0.00000  Uiso   1.00
O115   O     0.81304   0.24018   0.07845   0.00000  Uiso   1.00
H116   H     0.83933   0.27033   0.09031   0.00000  Uiso   1.00
C117   C     0.24858   0.39993   0.15084   0.00000  Uiso   1.00
C118   C     0.25142   0.60007   0.18249   0.00000  Uiso   1.00
C119   C     0.00990   0.40351   0.11778   0.00000  Uiso   1.00
C120   C     0.49010   0.59649   0.21555   0.00000  Uiso   1.00
C121   C     0.24797   0.34357   0.14246   0.00000  Uiso   1.00
C122   C     0.25203   0.65643   0.19087   0.00000  Uiso   1.00
C123   C     0.16470   0.49994   0.16635   0.00000  Uiso   1.00
C124   C     0.33530   0.50006   0.16698   0.00000  Uiso   1.00
C125   C     0.41293   0.54664   0.19424   0.00000  Uiso   1.00
C126   C     0.08707   0.45336   0.13909   0.00000  Uiso   1.00
C127   C     0.38353   0.49979   0.16731   0.00000  Uiso   1.00
C128   C     0.11647   0.50021   0.16603   0.00000  Uiso   1.00
C129   C     0.39976   0.45324   0.13936   0.00000  Uiso   1.00
C130   C     0.10024   0.54676   0.19397   0.00000  Uiso   1.00
C131   C     0.44641   0.45285   0.13991   0.00000  Uiso   1.00
C132   C     0.05359   0.54715   0.19342   0.00000  Uiso   1.00
C133   C     0.47655   0.50037   0.16633   0.00000  Uiso   1.00
C134   C     0.02345   0.49964   0.16700   0.00000  Uiso   1.00
C135   C     0.45967   0.54851   0.19188   0.00000  Uiso   1.00
C136   C     0.04033   0.45149   0.14145   0.00000  Uiso   1.00
C137   C     0.46322   0.40538   0.11565   0.00000  Uiso   1.00
C138   C     0.03678   0.59462   0.21768   0.00000  Uiso   1.00
Cu139  Cu    0.25500   0.50579   0.22813   0.00000  Uiso   1.00
Cu140  Cu    0.24499   0.49421   0.10521   0.00000  Uiso   1.00
H141   H     0.39863   0.58105   0.21702   0.00000  Uiso   1.00
H142   H     0.10137   0.41895   0.11631   0.00000  Uiso   1.00
H143   H     0.43984   0.36889   0.09702   0.00000  Uiso   1.00
H144   H     0.06016   0.63111   0.23631   0.00000  Uiso   1.00
H145   H     0.24421   0.65221   0.09624   0.00000  Uiso   1.00
H146   H     0.25579   0.34779   0.23709   0.00000  Uiso   1.00
N147   N     0.23744   0.48547   0.01284   0.00000  Uiso   1.00
N148   N     0.26255   0.51453   0.32049   0.00000  Uiso   1.00
O149   O     0.25325   0.42871   0.20659   0.00000  Uiso   1.00
O150   O     0.24674   0.57129   0.12674   0.00000  Uiso   1.00
O151   O     0.24480   0.41892   0.10279   0.00000  Uiso   1.00
O152   O     0.25520   0.58108   0.23055   0.00000  Uiso   1.00
O153   O     0.18935   0.50488   0.21857   0.00000  Uiso   1.00
O154   O     0.31064   0.49512   0.11476   0.00000  Uiso   1.00
O155   O     0.18090   0.49510   0.11477   0.00000  Uiso   1.00
O156   O     0.31910   0.50490   0.21857   0.00000  Uiso   1.00
F157   F     0.37010   0.40812   0.11360   0.00000  Uiso   1.00
F158   F     0.12990   0.59188   0.21974   0.00000  Uiso   1.00
C159   C     0.02514   0.35026   0.09817   0.00000  Uiso   1.00
O160   O     0.00246   0.64922   0.05653   0.00000  Uiso   1.00
O161   O     0.06381   0.33816   0.12937   0.00000  Uiso   1.00
H162   H     0.07016   0.63384   0.11200   0.00000  Uiso   1.00
C163   C     0.47485   0.64974   0.23516   0.00000  Uiso   1.00
O164   O     0.49754   0.35079   0.27679   0.00000  Uiso   1.00
O165   O     0.43619   0.66184   0.20396   0.00000  Uiso   1.00
H166   H     0.42984   0.36616   0.22133   0.00000  Uiso   1.00
C167   C     0.20084   0.44349   0.31682   0.00000  Uiso   1.00
O168   O     0.18044   0.42068   0.01549   0.00000  Uiso   1.00
O169   O     0.18696   0.42648   0.25488   0.00000  Uiso   1.00
H170   H     0.16067   0.39633   0.24302   0.00000  Uiso   1.00
C171   C     0.29916   0.55651   0.01652   0.00000  Uiso   1.00
O172   O     0.31956   0.57932   0.31784   0.00000  Uiso   1.00
O173   O     0.31304   0.57352   0.07845   0.00000  Uiso   1.00
H174   H     0.33933   0.60367   0.09031   0.00000  Uiso   1.00
C175   C     0.74858   0.39993   0.15084   0.00000  Uiso   1.00
C176   C     0.75142   0.60007   0.18249   0.00000  Uiso   1.00
C177   C     0.50990   0.40351   0.11778   0.00000  Uiso   1.00
C178   C     0.99010   0.59649   0.21555   0.00000  Uiso   1.00
C179   C     0.74797   0.34357   0.14246   0.00000  Uiso   1.00
C180   C     0.75203   0.65643   0.19087   0.00000  Uiso   1.00
C181   C     0.66470   0.49994   0.16635   0.00000  Uiso   1.00
C182   C     0.83530   0.50006   0.16698   0.00000  Uiso   1.00
C183   C     0.91293   0.54664   0.19424   0.00000  Uiso   1.00
C184   C     0.58707   0.45336   0.13909   0.00000  Uiso   1.00
C185   C     0.88353   0.49979   0.16731   0.00000  Uiso   1.00
C186   C     0.61647   0.50021   0.16603   0.00000  Uiso   1.00
C187   C     0.89976   0.45324   0.13936   0.00000  Uiso   1.00
C188   C     0.60024   0.54676   0.19397   0.00000  Uiso   1.00
C189   C     0.94641   0.45285   0.13991   0.00000  Uiso   1.00
C190   C     0.55359   0.54715   0.19342   0.00000  Uiso   1.00
C191   C     0.97655   0.50037   0.16633   0.00000  Uiso   1.00
C192   C     0.52345   0.49964   0.16700   0.00000  Uiso   1.00
C193   C     0.95967   0.54851   0.19188   0.00000  Uiso   1.00
C194   C     0.54033   0.45149   0.14145   0.00000  Uiso   1.00
C195   C     0.96322   0.40538   0.11565   0.00000  Uiso   1.00
C196   C     0.53678   0.59462   0.21768   0.00000  Uiso   1.00
Cu197  Cu    0.75500   0.50579   0.22813   0.00000  Uiso   1.00
Cu198  Cu    0.74499   0.49421   0.10521   0.00000  Uiso   1.00
H199   H     0.89863   0.58105   0.21702   0.00000  Uiso   1.00
H200   H     0.60137   0.41895   0.11631   0.00000  Uiso   1.00
H201   H     0.93984   0.36889   0.09702   0.00000  Uiso   1.00
H202   H     0.56016   0.63111   0.23631   0.00000  Uiso   1.00
H203   H     0.74421   0.65221   0.09624   0.00000  Uiso   1.00
H204   H     0.75579   0.34779   0.23709   0.00000  Uiso   1.00
N205   N     0.73744   0.48547   0.01284   0.00000  Uiso   1.00
N206   N     0.76255   0.51453   0.32049   0.00000  Uiso   1.00
O207   O     0.75325   0.42871   0.20659   0.00000  Uiso   1.00
O208   O     0.74674   0.57129   0.12674   0.00000  Uiso   1.00
O209   O     0.74480   0.41892   0.10279   0.00000  Uiso   1.00
O210   O     0.75520   0.58108   0.23055   0.00000  Uiso   1.00
O211   O     0.68935   0.50488   0.21857   0.00000  Uiso   1.00
O212   O     0.81064   0.49512   0.11476   0.00000  Uiso   1.00
O213   O     0.68090   0.49510   0.11477   0.00000  Uiso   1.00
O214   O     0.81910   0.50490   0.21857   0.00000  Uiso   1.00
F215   F     0.87010   0.40812   0.11360   0.00000  Uiso   1.00
F216   F     0.62990   0.59188   0.21974   0.00000  Uiso   1.00
C217   C     0.52514   0.35026   0.09817   0.00000  Uiso   1.00
O218   O     0.50246   0.64922   0.05653   0.00000  Uiso   1.00
O219   O     0.56381   0.33816   0.12937   0.00000  Uiso   1.00
H220   H     0.57016   0.63384   0.11200   0.00000  Uiso   1.00
C221   C     0.97485   0.64974   0.23516   0.00000  Uiso   1.00
O222   O     0.99754   0.35079   0.27679   0.00000  Uiso   1.00
O223   O     0.93619   0.66184   0.20396   0.00000  Uiso   1.00
H224   H     0.92984   0.36616   0.22133   0.00000  Uiso   1.00
C225   C     0.70084   0.44349   0.31682   0.00000  Uiso   1.00
O226   O     0.68044   0.42068   0.01549   0.00000  Uiso   1.00
O227   O     0.68696   0.42648   0.25488   0.00000  Uiso   1.00
H228   H     0.66067   0.39633   0.24302   0.00000  Uiso   1.00
C229   C     0.79916   0.55651   0.01652   0.00000  Uiso   1.00
O230   O     0.81956   0.57932   0.31784   0.00000  Uiso   1.00
O231   O     0.81304   0.57352   0.07845   0.00000  Uiso   1.00
H232   H     0.83933   0.60367   0.09031   0.00000  Uiso   1.00
C233   C     0.24858   0.73326   0.15084   0.00000  Uiso   1.00
C234   C     0.25142   0.93340   0.18249   0.00000  Uiso   1.00
C235   C     0.00990   0.73684   0.11778   0.00000  Uiso   1.00
C236   C     0.49010   0.92983   0.21555   0.00000  Uiso   1.00
C237   C     0.24797   0.67690   0.14246   0.00000  Uiso   1.00
C238   C     0.25203   0.98977   0.19087   0.00000  Uiso   1.00
C239   C     0.16470   0.83328   0.16635   0.00000  Uiso   1.00
C240   C     0.33530   0.83339   0.16698   0.00000  Uiso   1.00
C241   C     0.41293   0.87997   0.19424   0.00000  Uiso   1.00
C242   C     0.08707   0.78670   0.13909   0.00000  Uiso   1.00
C243   C     0.38353   0.83312   0.16731   0.00000  Uiso   1.00
C244   C     0.11647   0.83354   0.16603   0.00000  Uiso   1.00
C245   C     0.39976   0.78658   0.13936   0.00000  Uiso   1.00
C246   C     0.10024   0.88009   0.19397   0.00000  Uiso   1.00
C247   C     0.44641   0.78618   0.13991   0.00000  Uiso   1.00
C248   C     0.05359   0.88048   0.19342   0.00000  Uiso   1.00
C249   C     0.47655   0.83370   0.16633   0.00000  Uiso   1.00
C250   C     0.02345   0.83297   0.16700   0.00000  Uiso   1.00
C251   C     0.45967   0.88185   0.19188   0.00000  Uiso   1.00
C252   C     0.04033   0.78482   0.14145   0.00000  Uiso   1.00
C253   C     0.46322   0.73872   0.11565   0.00000  Uiso   1.00
C254   C     0.03678   0.92795   0.21768   0.00000  Uiso   1.00
Cu255  Cu    0.25500   0.83913   0.22813   0.00000  Uiso   1.00
Cu256  Cu    0.24499   0.82754   0.10521   0.00000  Uiso   1.00
H257   H     0.39863   0.91439   0.21702   0.00000  Uiso   1.00
H258   H     0.10137   0.75228   0.11631   0.00000  Uiso   1.00
H259   H     0.43984   0.70223   0.09702   0.00000  Uiso   1.00
H260   H     0.06016   0.96444   0.23631   0.00000  Uiso   1.00
H261   H     0.24421   0.98554   0.09624   0.00000  Uiso   1.00
H262   H     0.25579   0.68112   0.23709   0.00000  Uiso   1.00
N263   N     0.23744   0.81881   0.01284   0.00000  Uiso   1.00
N264   N     0.26255   0.84786   0.32049   0.00000  Uiso   1.00
O265   O     0.25325   0.76204   0.20659   0.00000  Uiso   1.00
O266   O     0.24674   0.90462   0.12674   0.00000  Uiso   1.00
O267   O     0.24480   0.75226   0.10279   0.00000  Uiso   1.00
O268   O     0.25520   0.91441   0.23055   0.00000  Uiso   1.00
O269   O     0.18935   0.83821   0.21857   0.00000  Uiso   1.00
O270   O     0.31064   0.82845   0.11476   0.00000  Uiso   1.00
O271   O     0.18090   0.82843   0.11477   0.00000  Uiso   1.00
O272   O     0.31910   0.83824   0.21857   0.00000  Uiso   1.00
F273   F     0.37010   0.74145   0.11360   0.00000  Uiso   1.00
F274   F     0.12990   0.92522   0.21974   0.00000  Uiso   1.00
C275   C     0.02514   0.68360   0.09817   0.00000  Uiso   1.00
O276   O     0.00246   0.98255   0.05653   0.00000  Uiso   1.00
O277   O     0.06381   0.67149   0.12937   0.00000  Uiso   1.00
H278   H     0.07016   0.96717   0.11200   0.00000  Uiso   1.00
C279   C     0.47485   0.98307   0.23516   0.00000  Uiso   1.00
O280   O     0.49754   0.68412   0.27679   0.00000  Uiso   1.00
O281   O     0.43619   0.99518   0.20396   0.00000  Uiso   1.00
H282   H     0.42984   0.69949   0.22133   0.00000  Uiso   1.00
C283   C     0.20084   0.77682   0.31682   0.00000  Uiso   1.00
O284   O     0.18044   0.75401   0.01549   0.00000  Uiso   1.00
O285   O     0.18696   0.75982   0.25488   0.00000  Uiso   1.00
H286   H     0.16067   0.72967   0.24302   0.00000  Uiso   1.00
C287   C     0.29916   0.88984   0.01652   0.00000  Uiso   1.00
O288   O     0.31956   0.91265   0.31784   0.00000  Uiso   1.00
O289   O     0.31304   0.90685   0.07845   0.00000  Uiso   1.00
H290   H     0.33933   0.93700   0.09031   0.00000  Uiso   1.00
C291   C     0.74858   0.73326   0.15084   0.00000  Uiso   1.00
C292   C     0.75142   0.93340   0.18249   0.00000  Uiso   1.00
C293   C     0.50990   0.73684   0.11778   0.00000  Uiso   1.00
C294   C     0.99010   0.92983   0.21555   0.00000  Uiso   1.00
C295   C     0.74797   0.67690   0.14246   0.00000  Uiso   1.00
C296   C     0.75203   0.98977   0.19087   0.00000  Uiso   1.00
C297   C     0.66470   0.83328   0.16635   0.00000  Uiso   1.00
C298   C     0.83530   0.83339   0.16698   0.00000  Uiso   1.00
C299   C     0.91293   0.87997   0.19424   0.00000  Uiso   1.00
C300   C     0.58707   0.78670   0.13909   0.00000  Uiso   1.00
C301   C     0.88353   0.83312   0.16731   0.00000  Uiso   1.00
C302   C     0.61647   0.83354   0.16603   0.00000  Uiso   1.00
C303   C     0.89976   0.78658   0.13936   0.00000  Uiso   1.00
C304   C     0.60024   0.88009   0.19397   0.00000  Uiso   1.00
C305   C     0.94641   0.78618   0.13991   0.00000  Uiso   1.00
C306   C     0.55359   0.88048   0.19342   0.00000  Uiso   1.00
C307   C     0.97655   0.83370   0.16633   0.00000  Uiso   1.00
C308   C     0.52345   0.83297   0.16700   0.00000  Uiso   1.00
C309   C     0.95967   0.88185   0.19188   0.00000  Uiso   1.00
C310   C     0.54033   0.78482   0.14145   0.00000  Uiso   1.00
C311   C     0.96322   0.73872   0.11565   0.00000  Uiso   1.00
C312   C     0.53678   0.92795   0.21768   0.00000  Uiso   1.00
Cu313  Cu    0.75500   0.83913   0.22813   0.00000  Uiso   1.00
Cu314  Cu    0.74499   0.82754   0.10521   0.00000  Uiso   1.00
H315   H     0.89863   0.91439   0.21702   0.00000  Uiso   1.00
H316   H     0.60137   0.75228   0.11631   0.00000  Uiso   1.00
H317   H     0.93984   0.70223   0.09702   0.00000  Uiso   1.00
H318   H     0.56016   0.96444   0.23631   0.00000  Uiso   1.00
H319   H     0.74421   0.98554   0.09624   0.00000  Uiso   1.00
H320   H     0.75579   0.68112   0.23709   0.00000  Uiso   1.00
N321   N     0.73744   0.81881   0.01284   0.00000  Uiso   1.00
N322   N     0.76255   0.84786   0.32049   0.00000  Uiso   1.00
O323   O     0.75325   0.76204   0.20659   0.00000  Uiso   1.00
O324   O     0.74674   0.90462   0.12674   0.00000  Uiso   1.00
O325   O     0.74480   0.75226   0.10279   0.00000  Uiso   1.00
O326   O     0.75520   0.91441   0.23055   0.00000  Uiso   1.00
O327   O     0.68935   0.83821   0.21857   0.00000  Uiso   1.00
O328   O     0.81064   0.82845   0.11476   0.00000  Uiso   1.00
O329   O     0.68090   0.82843   0.11477   0.00000  Uiso   1.00
O330   O     0.81910   0.83824   0.21857   0.00000  Uiso   1.00
F331   F     0.87010   0.74145   0.11360   0.00000  Uiso   1.00
F332   F     0.62990   0.92522   0.21974   0.00000  Uiso   1.00
C333   C     0.52514   0.68360   0.09817   0.00000  Uiso   1.00
O334   O     0.50246   0.98255   0.05653   0.00000  Uiso   1.00
O335   O     0.56381   0.67149   0.12937   0.00000  Uiso   1.00
H336   H     0.57016   0.96717   0.11200   0.00000  Uiso   1.00
C337   C     0.97485   0.98307   0.23516   0.00000  Uiso   1.00
O338   O     0.99754   0.68412   0.27679   0.00000  Uiso   1.00
O339   O     0.93619   0.99518   0.20396   0.00000  Uiso   1.00
H340   H     0.92984   0.69949   0.22133   0.00000  Uiso   1.00
C341   C     0.70084   0.77682   0.31682   0.00000  Uiso   1.00
O342   O     0.68044   0.75401   0.01549   0.00000  Uiso   1.00
O343   O     0.68696   0.75982   0.25488   0.00000  Uiso   1.00
H344   H     0.66067   0.72967   0.24302   0.00000  Uiso   1.00
C345   C     0.79916   0.88984   0.01652   0.00000  Uiso   1.00
O346   O     0.81956   0.91265   0.31784   0.00000  Uiso   1.00
O347   O     0.81304   0.90685   0.07845   0.00000  Uiso   1.00
H348   H     0.83933   0.93700   0.09031   0.00000  Uiso   1.00
C349   C     0.24858   0.06660   0.48417   0.00000  Uiso   1.00
C350   C     0.25142   0.26674   0.51583   0.00000  Uiso   1.00
C351   C     0.00990   0.07017   0.45111   0.00000  Uiso   1.00
C352   C     0.49010   0.26316   0.54889   0.00000  Uiso   1.00
C353   C     0.24797   0.01023   0.47580   0.00000  Uiso   1.00
C354   C     0.25203   0.32310   0.52420   0.00000  Uiso   1.00
C355   C     0.16470   0.16661   0.49968   0.00000  Uiso   1.00
C356   C     0.33530   0.16672   0.50032   0.00000  Uiso   1.00
C357   C     0.41293   0.21330   0.52757   0.00000  Uiso   1.00
C358   C     0.08707   0.12003   0.47243   0.00000  Uiso   1.00
C359   C     0.38353   0.16646   0.50064   0.00000  Uiso   1.00
C360   C     0.11647   0.16688   0.49936   0.00000  Uiso   1.00
C361   C     0.39976   0.11991   0.47270   0.00000  Uiso   1.00
C362   C     0.10024   0.21342   0.52730   0.00000  Uiso   1.00
C363   C     0.44641   0.11952   0.47325   0.00000  Uiso   1.00
C364   C     0.05359   0.21382   0.52675   0.00000  Uiso   1.00
C365   C     0.47655   0.16703   0.49966   0.00000  Uiso   1.00
C366   C     0.02345   0.16630   0.50033   0.00000  Uiso   1.00
C367   C     0.45967   0.21518   0.52521   0.00000  Uiso   1.00
C368   C     0.04033   0.11815   0.47479   0.00000  Uiso   1.00
C369   C     0.46322   0.07205   0.44898   0.00000  Uiso   1.00
C370   C     0.03678   0.26128   0.55101   0.00000  Uiso   1.00
Cu371  Cu    0.25500   0.17246   0.56146   0.00000  Uiso   1.00
Cu372  Cu    0.24499   0.16087   0.43854   0.00000  Uiso   1.00
H373   H     0.39863   0.24772   0.55036   0.00000  Uiso   1.00
H374   H     0.10137   0.08561   0.44964   0.00000  Uiso   1.00
H375   H     0.43984   0.03556   0.43035   0.00000  Uiso   1.00
H376   H     0.06016   0.29777   0.56964   0.00000  Uiso   1.00
H377   H     0.24421   0.31888   0.42957   0.00000  Uiso   1.00
H378   H     0.25579   0.01446   0.57042   0.00000  Uiso   1.00
N379   N     0.23744   0.15214   0.34617   0.00000  Uiso   1.00
N380   N     0.26255   0.18119   0.65383   0.00000  Uiso   1.00
O381   O     0.25325   0.09538   0.53992   0.00000  Uiso   1.00
O382   O     0.24674   0.23796   0.46008   0.00000  Uiso   1.00
O383   O     0.24480   0.08559   0.43612   0.00000  Uiso   1.00
O384   O     0.25520   0.24774   0.56388   0.00000  Uiso   1.00
O385   O     0.18935   0.17155   0.55191   0.00000  Uiso   1.00
O386   O     0.31064   0.16179   0.44809   0.00000  Uiso   1.00
O387   O     0.18090   0.16176   0.44810   0.00000  Uiso   1.00
O388   O     0.31910   0.17157   0.55190   0.00000  Uiso   1.00
F389   F     0.37010   0.07479   0.44693   0.00000  Uiso   1.00
F390   F     0.12990   0.25855   0.55307   0.00000  Uiso   1.00
C391   C     0.02514   0.01693   0.43150   0.00000  Uiso   1.00
O392   O     0.00246   0.31588   0.38986   0.00000  Uiso   1.00
O393   O     0.06381   0.00482   0.46270   0.00000  Uiso   1.00
H394   H     0.07016   0.30051   0.44533   0.00000  Uiso   1.00
C395   C     0.47485   0.31640   0.56849   0.00000  Uiso   1.00
O396   O     0.49754   0.01745   0.61013   0.00000  Uiso   1.00
O397   O     0.43619   0.32851   0.53730   0.00000  Uiso   1.00
H398   H     0.42984   0.03283   0.55466   0.00000  Uiso   1.00
C399   C     0.20084   0.11016   0.65015   0.00000  Uiso   1.00
O400   O     0.18044   0.08735   0.34882   0.00000  Uiso   1.00
O401   O     0.18696   0.09315   0.58822   0.00000  Uiso   1.00
H402   H     0.16067   0.06300   0.57635   0.00000  Uiso   1.00
C403   C     0.29916   0.22318   0.34985   0.00000  Uiso   1.00
O404   O     0.31956   0.24599   0.65118   0.00000  Uiso   1.00
O405   O     0.31304   0.24018   0.41178   0.00000  Uiso   1.00
H406   H     0.33933   0.27033   0.42365   0.00000  Uiso   1.00
C407   C     0.74858   0.06660   0.48417   0.00000  Uiso   1.00
C408   C     0.75142   0.26674   0.51583   0.00000  Uiso   1.00
C409   C     0.50990   0.07017   0.45111   0.00000  Uiso   1.00
C410   C     0.99010   0.26316   0.54889   0.00000  Uiso   1.00
C411   C     0.74797   0.01023   0.47580   0.00000  Uiso   1.00
C412   C     0.75203   0.32310   0.52420   0.00000  Uiso   1.00
C413   C     0.66470   0.16661   0.49968   0.00000  Uiso   1.00
C414   C     0.83530   0.16672   0.50032   0.00000  Uiso   1.00
C415   C     0.91293   0.21330   0.52757   0.00000  Uiso   1.00
C416   C     0.58707   0.12003   0.47243   0.00000  Uiso   1.00
C417   C     0.88353   0.16646   0.50064   0.00000  Uiso   1.00
C418   C     0.61647   0.16688   0.49936   0.00000  Uiso   1.00
C419   C     0.89976   0.11991   0.47270   0.00000  Uiso   1.00
C420   C     0.60024   0.21342   0.52730   0.00000  Uiso   1.00
C421   C     0.94641   0.11952   0.47325   0.00000  Uiso   1.00
C422   C     0.55359   0.21382   0.52675   0.00000  Uiso   1.00
C423   C     0.97655   0.16703   0.49966   0.00000  Uiso   1.00
C424   C     0.52345   0.16630   0.50033   0.00000  Uiso   1.00
C425   C     0.95967   0.21518   0.52521   0.00000  Uiso   1.00
C426   C     0.54033   0.11815   0.47479   0.00000  Uiso   1.00
C427   C     0.96322   0.07205   0.44898   0.00000  Uiso   1.00
C428   C     0.53678   0.26128   0.55101   0.00000  Uiso   1.00
Cu429  Cu    0.75500   0.17246   0.56146   0.00000  Uiso   1.00
Cu430  Cu    0.74499   0.16087   0.43854   0.00000  Uiso   1.00
H431   H     0.89863   0.24772   0.55036   0.00000  Uiso   1.00
H432   H     0.60137   0.08561   0.44964   0.00000  Uiso   1.00
H433   H     0.93984   0.03556   0.43035   0.00000  Uiso   1.00
H434   H     0.56016   0.29777   0.56964   0.00000  Uiso   1.00
H435   H     0.74421   0.31888   0.42957   0.00000  Uiso   1.00
H436   H     0.75579   0.01446   0.57042   0.00000  Uiso   1.00
N437   N     0.73744   0.15214   0.34617   0.00000  Uiso   1.00
N438   N     0.76255   0.18119   0.65383   0.00000  Uiso   1.00
O439   O     0.75325   0.09538   0.53992   0.00000  Uiso   1.00
O440   O     0.74674   0.23796   0.46008   0.00000  Uiso   1.00
O441   O     0.74480   0.08559   0.43612   0.00000  Uiso   1.00
O442   O     0.75520   0.24774   0.56388   0.00000  Uiso   1.00
O443   O     0.68935   0.17155   0.55191   0.00000  Uiso   1.00
O444   O     0.81064   0.16179   0.44809   0.00000  Uiso   1.00
O445   O     0.68090   0.16176   0.44810   0.00000  Uiso   1.00
O446   O     0.81910   0.17157   0.55190   0.00000  Uiso   1.00
F447   F     0.87010   0.07479   0.44693   0.00000  Uiso   1.00
F448   F     0.62990   0.25855   0.55307   0.00000  Uiso   1.00
C449   C     0.52514   0.01693   0.43150   0.00000  Uiso   1.00
O450   O     0.50246   0.31588   0.38986   0.00000  Uiso   1.00
O451   O     0.56381   0.00482   0.46270   0.00000  Uiso   1.00
H452   H     0.57016   0.30051   0.44533   0.00000  Uiso   1.00
C453   C     0.97485   0.31640   0.56849   0.00000  Uiso   1.00
O454   O     0.99754   0.01745   0.61013   0.00000  Uiso   1.00
O455   O     0.93619   0.32851   0.53730   0.00000  Uiso   1.00
H456   H     0.92984   0.03283   0.55466   0.00000  Uiso   1.00
C457   C     0.70084   0.11016   0.65015   0.00000  Uiso   1.00
O458   O     0.68044   0.08735   0.34882   0.00000  Uiso   1.00
O459   O     0.68696   0.09315   0.58822   0.00000  Uiso   1.00
H460   H     0.66067   0.06300   0.57635   0.00000  Uiso   1.00
C461   C     0.79916   0.22318   0.34985   0.00000  Uiso   1.00
O462   O     0.81956   0.24599   0.65118   0.00000  Uiso   1.00
O463   O     0.81304   0.24018   0.41178   0.00000  Uiso   1.00
H464   H     0.83933   0.27033   0.42365   0.00000  Uiso   1.00
C465   C     0.24858   0.39993   0.48417   0.00000  Uiso   1.00
C466   C     0.25142   0.60007   0.51583   0.00000  Uiso   1.00
C467   C     0.00990   0.40351   0.45111   0.00000  Uiso   1.00
C468   C     0.49010   0.59649   0.54889   0.00000  Uiso   1.00
C469   C     0.24797   0.34357   0.47580   0.00000  Uiso   1.00
C470   C     0.25203   0.65643   0.52420   0.00000  Uiso   1.00
C471   C     0.16470   0.49994   0.49968   0.00000  Uiso   1.00
C472   C     0.33530   0.50006   0.50032   0.00000  Uiso   1.00
C473   C     0.41293   0.54664   0.52757   0.00000  Uiso   1.00
C474   C     0.08707   0.45336   0.47243   0.00000  Uiso   1.00
C475   C     0.38353   0.49979   0.50064   0.00000  Uiso   1.00
C476   C     0.11647   0.50021   0.49936   0.00000  Uiso   1.00
C477   C     0.39976   0.45324   0.47270   0.00000  Uiso   1.00
C478   C     0.10024   0.54676   0.52730   0.00000  Uiso   1.00
C479   C     0.44641   0.45285   0.47325   0.00000  Uiso   1.00
C480   C     0.05359   0.54715   0.52675   0.00000  Uiso   1.00
C481   C     0.47655   0.50037   0.49966   0.00000  Uiso   1.00
C482   C     0.02345   0.49964   0.50033   0.00000  Uiso   1.00
C483   C     0.45967   0.54851   0.52521   0.00000  Uiso   1.00
C484   C     0.04033   0.45149   0.47479   0.00000  Uiso   1.00
C485   C     0.46322   0.40538   0.44898   0.00000  Uiso   1.00
C486   C     0.03678   0.59462   0.55101   0.00000  Uiso   1.00
Cu487  Cu    0.25500   0.50579   0.56146   0.00000  Uiso   1.00
Cu488  Cu    0.24499   0.49421   0.43854   0.00000  Uiso   1.00
H489   H     0.39863   0.58105   0.55036   0.00000  Uiso   1.00
H490   H     0.10137   0.41895   0.44964   0.00000  Uiso   1.00
H491   H     0.43984   0.36889   0.43035   0.00000  Uiso   1.00
H492   H     0.06016   0.63111   0.56964   0.00000  Uiso   1.00
H493   H     0.24421   0.65221   0.42957   0.00000  Uiso   1.00
H494   H     0.25579   0.34779   0.57042   0.00000  Uiso   1.00
N495   N     0.23744   0.48547   0.34617   0.00000  Uiso   1.00
N496   N     0.26255   0.51453   0.65383   0.00000  Uiso   1.00
O497   O     0.25325   0.42871   0.53992   0.00000  Uiso   1.00
O498   O     0.24674   0.57129   0.46008   0.00000  Uiso   1.00
O499   O     0.24480   0.41892   0.43612   0.00000  Uiso   1.00
O500   O     0.25520   0.58108   0.56388   0.00000  Uiso   1.00
O501   O     0.18935   0.50488   0.55191   0.00000  Uiso   1.00
O502   O     0.31064   0.49512   0.44809   0.00000  Uiso   1.00
O503   O     0.18090   0.49510   0.44810   0.00000  Uiso   1.00
O504   O     0.31910   0.50490   0.55190   0.00000  Uiso   1.00
F505   F     0.37010   0.40812   0.44693   0.00000  Uiso   1.00
F506   F     0.12990   0.59188   0.55307   0.00000  Uiso   1.00
C507   C     0.02514   0.35026   0.43150   0.00000  Uiso   1.00
O508   O     0.00246   0.64922   0.38986   0.00000  Uiso   1.00
O509   O     0.06381   0.33816   0.46270   0.00000  Uiso   1.00
H510   H     0.07016   0.63384   0.44533   0.00000  Uiso   1.00
C511   C     0.47485   0.64974   0.56849   0.00000  Uiso   1.00
O512   O     0.49754   0.35079   0.61013   0.00000  Uiso   1.00
O513   O     0.43619   0.66184   0.53730   0.00000  Uiso   1.00
H514   H     0.42984   0.36616   0.55466   0.00000  Uiso   1.00
C515   C     0.20084   0.44349   0.65015   0.00000  Uiso   1.00
O516   O     0.18044   0.42068   0.34882   0.00000  Uiso   1.00
O517   O     0.18696   0.42648   0.58822   0.00000  Uiso   1.00
H518   H     0.16067   0.39633   0.57635   0.00000  Uiso   1.00
C519   C     0.29916   0.55651   0.34985   0.00000  Uiso   1.00
O520   O     0.31956   0.57932   0.65118   0.00000  Uiso   1.00
O521   O     0.31304   0.57352   0.41178   0.00000  Uiso   1.00
H522   H     0.33933   0.60367   0.42365   0.00000  Uiso   1.00
C523   C     0.74858   0.39993   0.48417   0.00000  Uiso   1.00
C524   C     0.75142   0.60007   0.51583   0.00000  Uiso   1.00
C525   C     0.50990   0.40351   0.45111   0.00000  Uiso   1.00
C526   C     0.99010   0.59649   0.54889   0.00000  Uiso   1.00
C527   C     0.74797   0.34357   0.47580   0.00000  Uiso   1.00
C528   C     0.75203   0.65643   0.52420   0.00000  Uiso   1.00
C529   C     0.66470   0.49994   0.49968   0.00000  Uiso   1.00
C530   C     0.83530   0.50006   0.50032   0.00000  Uiso   1.00
C531   C     0.91293   0.54664   0.52757   0.00000  Uiso   1.00
C532   C     0.58707   0.45336   0.47243   0.00000  Uiso   1.00
C533   C     0.88353   0.49979   0.50064   0.00000  Uiso   1.00
C534   C     0.61647   0.50021   0.49936   0.00000  Uiso   1.00
C535   C     0.89976   0.45324   0.47270   0.00000  Uiso   1.00
C536   C     0.60024   0.54676   0.52730   0.00000  Uiso   1.00
C537   C     0.94641   0.45285   0.47325   0.00000  Uiso   1.00
C538   C     0.55359   0.54715   0.52675   0.00000  Uiso   1.00
C539   C     0.97655   0.50037   0.49966   0.00000  Uiso   1.00
C540   C     0.52345   0.49964   0.50033   0.00000  Uiso   1.00
C541   C     0.95967   0.54851   0.52521   0.00000  Uiso   1.00
C542   C     0.54033   0.45149   0.47479   0.00000  Uiso   1.00
C543   C     0.96322   0.40538   0.44898   0.00000  Uiso   1.00
C544   C     0.53678   0.59462   0.55101   0.00000  Uiso   1.00
Cu545  Cu    0.75500   0.50579   0.56146   0.00000  Uiso   1.00
Cu546  Cu    0.74499   0.49421   0.43854   0.00000  Uiso   1.00
H547   H     0.89863   0.58105   0.55036   0.00000  Uiso   1.00
H548   H     0.60137   0.41895   0.44964   0.00000  Uiso   1.00
H549   H     0.93984   0.36889   0.43035   0.00000  Uiso   1.00
H550   H     0.56016   0.63111   0.56964   0.00000  Uiso   1.00
H551   H     0.74421   0.65221   0.42957   0.00000  Uiso   1.00
H552   H     0.75579   0.34779   0.57042   0.00000  Uiso   1.00
N553   N     0.73744   0.48547   0.34617   0.00000  Uiso   1.00
N554   N     0.76255   0.51453   0.65383   0.00000  Uiso   1.00
O555   O     0.75325   0.42871   0.53992   0.00000  Uiso   1.00
O556   O     0.74674   0.57129   0.46008   0.00000  Uiso   1.00
O557   O     0.74480   0.41892   0.43612   0.00000  Uiso   1.00
O558   O     0.75520   0.58108   0.56388   0.00000  Uiso   1.00
O559   O     0.68935   0.50488   0.55191   0.00000  Uiso   1.00
O560   O     0.81064   0.49512   0.44809   0.00000  Uiso   1.00
O561   O     0.68090   0.49510   0.44810   0.00000  Uiso   1.00
O562   O     0.81910   0.50490   0.55190   0.00000  Uiso   1.00
F563   F     0.87010   0.40812   0.44693   0.00000  Uiso   1.00
F564   F     0.62990   0.59188   0.55307   0.00000  Uiso   1.00
C565   C     0.52514   0.35026   0.43150   0.00000  Uiso   1.00
O566   O     0.50246   0.64922   0.38986   0.00000  Uiso   1.00
O567   O     0.56381   0.33816   0.46270   0.00000  Uiso   1.00
H568   H     0.57016   0.63384   0.44533   0.00000  Uiso   1.00
C569   C     0.97485   0.64974   0.56849   0.00000  Uiso   1.00
O570   O     0.99754   0.35079   0.61013   0.00000  Uiso   1.00
O571   O     0.93619   0.66184   0.53730   0.00000  Uiso   1.00
H572   H     0.92984   0.36616   0.55466   0.00000  Uiso   1.00
C573   C     0.70084   0.44349   0.65015   0.00000  Uiso   1.00
O574   O     0.68044   0.42068   0.34882   0.00000  Uiso   1.00
O575   O     0.68696   0.42648   0.58822   0.00000  Uiso   1.00
H576   H     0.66067   0.39633   0.57635   0.00000  Uiso   1.00
C577   C     0.79916   0.55651   0.34985   0.00000  Uiso   1.00
O578   O     0.81956   0.57932   0.65118   0.00000  Uiso   1.00
O579   O     0.81304   0.57352   0.41178   0.00000  Uiso   1.00
H580   H     0.83933   0.60367   0.42365   0.00000  Uiso   1.00
C581   C     0.24858   0.73326   0.48417   0.00000  Uiso   1.00
C582   C     0.25142   0.93340   0.51583   0.00000  Uiso   1.00
C583   C     0.00990   0.73684   0.45111   0.00000  Uiso   1.00
C584   C     0.49010   0.92983   0.54889   0.00000  Uiso   1.00
C585   C     0.24797   0.67690   0.47580   0.00000  Uiso   1.00
C586   C     0.25203   0.98977   0.52420   0.00000  Uiso   1.00
C587   C     0.16470   0.83328   0.49968   0.00000  Uiso   1.00
C588   C     0.33530   0.83339   0.50032   0.00000  Uiso   1.00
C589   C     0.41293   0.87997   0.52757   0.00000  Uiso   1.00
C590   C     0.08707   0.78670   0.47243   0.00000  Uiso   1.00
C591   C     0.38353   0.83312   0.50064   0.00000  Uiso   1.00
C592   C     0.11647   0.83354   0.49936   0.00000  Uiso   1.00
C593   C     0.39976   0.78658   0.47270   0.00000  Uiso   1.00
C594   C     0.10024   0.88009   0.52730   0.00000  Uiso   1.00
C595   C     0.44641   0.78618   0.47325   0.00000  Uiso   1.00
C596   C     0.05359   0.88048   0.52675   0.00000  Uiso   1.00
C597   C     0.47655   0.83370   0.49966   0.00000  Uiso   1.00
C598   C     0.02345   0.83297   0.50033   0.00000  Uiso   1.00
C599   C     0.45967   0.88185   0.52521   0.00000  Uiso   1.00
C600   C     0.04033   0.78482   0.47479   0.00000  Uiso   1.00
C601   C     0.46322   0.73872   0.44898   0.00000  Uiso   1.00
C602   C     0.03678   0.92795   0.55101   0.00000  Uiso   1.00
Cu603  Cu    0.25500   0.83913   0.56146   0.00000  Uiso   1.00
Cu604  Cu    0.24499   0.82754   0.43854   0.00000  Uiso   1.00
H605   H     0.39863   0.91439   0.55036   0.00000  Uiso   1.00
H606   H     0.10137   0.75228   0.44964   0.00000  Uiso   1.00
H607   H     0.43984   0.70223   0.43035   0.00000  Uiso   1.00
H608   H     0.06016   0.96444   0.56964   0.00000  Uiso   1.00
H609   H     0.24421   0.98554   0.42957   0.00000  Uiso   1.00
H610   H     0.25579   0.68112   0.57042   0.00000  Uiso   1.00
N611   N     0.23744   0.81881   0.34617   0.00000  Uiso   1.00
N612   N     0.26255   0.84786   0.65383   0.00000  Uiso   1.00
O613   O     0.25325   0.76204   0.53992   0.00000  Uiso   1.00
O614   O     0.24674   0.90462   0.46008   0.00000  Uiso   1.00
O615   O     0.24480   0.75226   0.43612   0.00000  Uiso   1.00
O616   O     0.25520   0.91441   0.56388   0.00000  Uiso   1.00
O617   O     0.18935   0.83821   0.55191   0.00000  Uiso   1.00
O618   O     0.31064   0.82845   0.44809   0.00000  Uiso   1.00
O619   O     0.18090   0.82843   0.44810   0.00000  Uiso   1.00
O620   O     0.31910   0.83824   0.55190   0.00000  Uiso   1.00
F621   F     0.37010   0.74145   0.44693   0.00000  Uiso   1.00
F622   F     0.12990   0.92522   0.55307   0.00000  Uiso   1.00
C623   C     0.02514   0.68360   0.43150   0.00000  Uiso   1.00
O624   O     0.00246   0.98255   0.38986   0.00000  Uiso   1.00
O625   O     0.06381   0.67149   0.46270   0.00000  Uiso   1.00
H626   H     0.07016   0.96717   0.44533   0.00000  Uiso   1.00
C627   C     0.47485   0.98307   0.56849   0.00000  Uiso   1.00
O628   O     0.49754   0.68412   0.61013   0.00000  Uiso   1.00
O629   O     0.43619   0.99518   0.53730   0.00000  Uiso   1.00
H630   H     0.42984   0.69949   0.55466   0.00000  Uiso   1.00
C631   C     0.20084   0.77682   0.65015   0.00000  Uiso   1.00
O632   O     0.18044   0.75401   0.34882   0.00000  Uiso   1.00
O633   O     0.18696   0.75982   0.58822   0.00000  Uiso   1.00
H634   H     0.16067   0.72967   0.57635   0.00000  Uiso   1.00
C635   C     0.29916   0.88984   0.34985   0.00000  Uiso   1.00
O636   O     0.31956   0.91265   0.65118   0.00000  Uiso   1.00
O637   O     0.31304   0.90685   0.41178   0.00000  Uiso   1.00
H638   H     0.33933   0.93700   0.42365   0.00000  Uiso   1.00
C639   C     0.74858   0.73326   0.48417   0.00000  Uiso   1.00
C640   C     0.75142   0.93340   0.51583   0.00000  Uiso   1.00
C641   C     0.50990   0.73684   0.45111   0.00000  Uiso   1.00
C642   C     0.99010   0.92983   0.54889   0.00000  Uiso   1.00
C643   C     0.74797   0.67690   0.47580   0.00000  Uiso   1.00
C644   C     0.75203   0.98977   0.52420   0.00000  Uiso   1.00
C645   C     0.66470   0.83328   0.49968   0.00000  Uiso   1.00
C646   C     0.83530   0.83339   0.50032   0.00000  Uiso   1.00
C647   C     0.91293   0.87997   0.52757   0.00000  Uiso   1.00
C648   C     0.58707   0.78670   0.47243   0.00000  Uiso   1.00
C649   C     0.88353   0.83312   0.50064   0.00000  Uiso   1.00
C650   C     0.61647   0.83354   0.49936   0.00000  Uiso   1.00
C651   C     0.89976   0.78658   0.47270   0.00000  Uiso   1.00
C652   C     0.60024   0.88009   0.52730   0.00000  Uiso   1.00
C653   C     0.94641   0.78618   0.47325   0.00000  Uiso   1.00
C654   C     0.55359   0.88048   0.52675   0.00000  Uiso   1.00
C655   C     0.97655   0.83370   0.49966   0.00000  Uiso   1.00
C656   C     0.52345   0.83297   0.50033   0.00000  Uiso   1.00
C657   C     0.95967   0.88185   0.52521   0.00000  Uiso   1.00
C658   C     0.54033   0.78482   0.47479   0.00000  Uiso   1.00
C659   C     0.96322   0.73872   0.44898   0.00000  Uiso   1.00
C660   C     0.53678   0.92795   0.55101   0.00000  Uiso   1.00
Cu661  Cu    0.75500   0.83913   0.56146   0.00000  Uiso   1.00
Cu662  Cu    0.74499   0.82754   0.43854   0.00000  Uiso   1.00
H663   H     0.89863   0.91439   0.55036   0.00000  Uiso   1.00
H664   H     0.60137   0.75228   0.44964   0.00000  Uiso   1.00
H665   H     0.93984   0.70223   0.43035   0.00000  Uiso   1.00
H666   H     0.56016   0.96444   0.56964   0.00000  Uiso   1.00
H667   H     0.74421   0.98554   0.42957   0.00000  Uiso   1.00
H668   H     0.75579   0.68112   0.57042   0.00000  Uiso   1.00
N669   N     0.73744   0.81881   0.34617   0.00000  Uiso   1.00
N670   N     0.76255   0.84786   0.65383   0.00000  Uiso   1.00
O671   O     0.75325   0.76204   0.53992   0.00000  Uiso   1.00
O672   O     0.74674   0.90462   0.46008   0.00000  Uiso   1.00
O673   O     0.74480   0.75226   0.43612   0.00000  Uiso   1.00
O674   O     0.75520   0.91441   0.56388   0.00000  Uiso   1.00
O675   O     0.68935   0.83821   0.55191   0.00000  Uiso   1.00
O676   O     0.81064   0.82845   0.44809   0.00000  Uiso   1.00
O677   O     0.68090   0.82843   0.44810   0.00000  Uiso   1.00
O678   O     0.81910   0.83824   0.55190   0.00000  Uiso   1.00
F679   F     0.87010   0.74145   0.44693   0.00000  Uiso   1.00
F680   F     0.62990   0.92522   0.55307   0.00000  Uiso   1.00
C681   C     0.52514   0.68360   0.43150   0.00000  Uiso   1.00
O682   O     0.50246   0.98255   0.38986   0.00000  Uiso   1.00
O683   O     0.56381   0.67149   0.46270   0.00000  Uiso   1.00
H684   H     0.57016   0.96717   0.44533   0.00000  Uiso   1.00
C685   C     0.97485   0.98307   0.56849   0.00000  Uiso   1.00
O686   O     0.99754   0.68412   0.61013   0.00000  Uiso   1.00
O687   O     0.93619   0.99518   0.53730   0.00000  Uiso   1.00
H688   H     0.92984   0.69949   0.55466   0.00000  Uiso   1.00
C689   C     0.70084   0.77682   0.65015   0.00000  Uiso   1.00
O690   O     0.68044   0.75401   0.34882   0.00000  Uiso   1.00
O691   O     0.68696   0.75982   0.58822   0.00000  Uiso   1.00
H692   H     0.66067   0.72967   0.57635   0.00000  Uiso   1.00
C693   C     0.79916   0.88984   0.34985   0.00000  Uiso   1.00
O694   O     0.81956   0.91265   0.65118   0.00000  Uiso   1.00
O695   O     0.81304   0.90685   0.41178   0.00000  Uiso   1.00
H696   H     0.83933   0.93700   0.42365   0.00000  Uiso   1.00
C697   C     0.24858   0.06660   0.81751   0.00000  Uiso   1.00
C698   C     0.25142   0.26674   0.84916   0.00000  Uiso   1.00
C699   C     0.00990   0.07017   0.78444   0.00000  Uiso   1.00
C700   C     0.49010   0.26316   0.88222   0.00000  Uiso   1.00
C701   C     0.24797   0.01023   0.80913   0.00000  Uiso   1.00
C702   C     0.25203   0.32310   0.85754   0.00000  Uiso   1.00
C703   C     0.16470   0.16661   0.83302   0.00000  Uiso   1.00
C704   C     0.33530   0.16672   0.83365   0.00000  Uiso   1.00
C705   C     0.41293   0.21330   0.86091   0.00000  Uiso   1.00
C706   C     0.08707   0.12003   0.80576   0.00000  Uiso   1.00
C707   C     0.38353   0.16646   0.83397   0.00000  Uiso   1.00
C708   C     0.11647   0.16688   0.83269   0.00000  Uiso   1.00
C709   C     0.39976   0.11991   0.80603   0.00000  Uiso   1.00
C710   C     0.10024   0.21342   0.86064   0.00000  Uiso   1.00
C711   C     0.44641   0.11952   0.80658   0.00000  Uiso   1.00
C712   C     0.05359   0.21382   0.86009   0.00000  Uiso   1.00
C713   C     0.47655   0.16703   0.83300   0.00000  Uiso   1.00
C714   C     0.02345   0.16630   0.83367   0.00000  Uiso   1.00
C715   C     0.45967   0.21518   0.85855   0.00000  Uiso   1.00
C716   C     0.04033   0.11815   0.80812   0.00000  Uiso   1.00
C717   C     0.46322   0.07205   0.78232   0.00000  Uiso   1.00
C718   C     0.03678   0.26128   0.88435   0.00000  Uiso   1.00
Cu719  Cu    0.25500   0.17246   0.89479   0.00000  Uiso   1.00
Cu720  Cu    0.24499   0.16087   0.77187   0.00000  Uiso   1.00
H721   H     0.39863   0.24772   0.88369   0.00000  Uiso   1.00
H722   H     0.10137   0.08561   0.78298   0.00000  Uiso   1.00
H723   H     0.43984   0.03556   0.76369   0.00000  Uiso   1.00
H724   H     0.06016   0.29777   0.90298   0.00000  Uiso   1.00
H725   H     0.24421   0.31888   0.76291   0.00000  Uiso   1.00
H726   H     0.25579   0.01446   0.90376   0.00000  Uiso   1.00
N727   N     0.23744   0.15214   0.67951   0.00000  Uiso   1.00
N728   N     0.26255   0.18119   0.98716   0.00000  Uiso   1.00
O729   O     0.25325   0.09538   0.87326   0.00000  Uiso   1.00
O730   O     0.24674   0.23796   0.79341   0.00000  Uiso   1.00
O731   O     0.24480   0.08559   0.76945   0.00000  Uiso   1.00
O732   O     0.25520   0.24774   0.89721   0.00000  Uiso   1.00
O733   O     0.18935   0.17155   0.88524   0.00000  Uiso   1.00
O734   O     0.31064   0.16179   0.78143   0.00000  Uiso   1.00
O735   O     0.18090   0.16176   0.78143   0.00000  Uiso   1.00
O736   O     0.31910   0.17157   0.88523   0.00000  Uiso   1.00
F737   F     0.37010   0.07479   0.78026   0.00000  Uiso   1.00
F738   F     0.12990   0.25855   0.88640   0.00000  Uiso   1.00
C739   C     0.02514   0.01693   0.76484   0.00000  Uiso   1.00
O740   O     0.00246   0.31588   0.72320   0.00000  Uiso   1.00
O741   O     0.06381   0.00482   0.79603   0.00000  Uiso   1.00
H742   H     0.07016   0.30051   0.77866   0.00000  Uiso   1.00
C743   C     0.47485   0.31640   0.90183   0.00000  Uiso   1.00
O744   O     0.49754   0.01745   0.94346   0.00000  Uiso   1.00
O745   O     0.43619   0.32851   0.87063   0.00000  Uiso   1.00
H746   H     0.42984   0.03283   0.88800   0.00000  Uiso   1.00
C747   C     0.20084   0.11016   0.98348   0.00000  Uiso   1.00
O748   O     0.18044   0.08735   0.68216   0.00000  Uiso   1.00
O749   O     0.18696   0.09315   0.92155   0.00000  Uiso   1.00
H750   H     0.16067   0.06300   0.90969   0.00000  Uiso   1.00
C751   C     0.29916   0.22318   0.68318   0.00000  Uiso   1.00
O752   O     0.31956   0.24599   0.98451   0.00000  Uiso   1.00
O753   O     0.31304   0.24018   0.74512   0.00000  Uiso   1.00
H754   H     0.33933   0.27033   0.75698   0.00000  Uiso   1.00
C755   C     0.74858   0.06660   0.81751   0.00000  Uiso   1.00
C756   C     0.75142   0.26674   0.84916   0.00000  Uiso   1.00
C757   C     0.50990   0.07017   0.78444   0.00000  Uiso   1.00
C758   C     0.99010   0.26316   0.88222   0.00000  Uiso   1.00
C759   C     0.74797   0.01023   0.80913   0.00000  Uiso   1.00
C760   C     0.75203   0.32310   0.85754   0.00000  Uiso   1.00
C761   C     0.66470   0.16661   0.83302   0.00000  Uiso   1.00
C762   C     0.83530   0.16672   0.83365   0.00000  Uiso   1.00
C763   C     0.91293   0.21330   0.86091   0.00000  Uiso   1.00
C764   C     0.58707   0.12003   0.80576   0.00000  Uiso   1.00
C765   C     0.88353   0.16646   0.83397   0.00000  Uiso   1.00
C766   C     0.61647   0.16688   0.83269   0.00000  Uiso   1.00
C767   C     0.89976   0.11991   0.80603   0.00000  Uiso   1.00
C768   C     0.60024   0.21342   0.86064   0.00000  Uiso   1.00
C769   C     0.94641   0.11952   0.80658   0.00000  Uiso   1.00
C770   C     0.55359   0.21382   0.86009   0.00000  Uiso   1.00
C771   C     0.97655   0.16703   0.83300   0.00000  Uiso   1.00
C772   C     0.52345   0.16630   0.83367   0.00000  Uiso   1.00
C773   C     0.95967   0.21518   0.85855   0.00000  Uiso   1.00
C774   C     0.54033   0.11815   0.80812   0.00000  Uiso   1.00
C775   C     0.96322   0.07205   0.78232   0.00000  Uiso   1.00
C776   C     0.53678   0.26128   0.88435   0.00000  Uiso   1.00
Cu777  Cu    0.75500   0.17246   0.89479   0.00000  Uiso   1.00
Cu778  Cu    0.74499   0.16087   0.77187   0.00000  Uiso   1.00
H779   H     0.89863   0.24772   0.88369   0.00000  Uiso   1.00
H780   H     0.60137   0.08561   0.78298   0.00000  Uiso   1.00
H781   H     0.93984   0.03556   0.76369   0.00000  Uiso   1.00
H782   H     0.56016   0.29777   0.90298   0.00000  Uiso   1.00
H783   H     0.74421   0.31888   0.76291   0.00000  Uiso   1.00
H784   H     0.75579   0.01446   0.90376   0.00000  Uiso   1.00
N785   N     0.73744   0.15214   0.67951   0.00000  Uiso   1.00
N786   N     0.76255   0.18119   0.98716   0.00000  Uiso   1.00
O787   O     0.75325   0.09538   0.87326   0.00000  Uiso   1.00
O788   O     0.74674   0.23796   0.79341   0.00000  Uiso   1.00
O789   O     0.74480   0.08559   0.76945   0.00000  Uiso   1.00
O790   O     0.75520   0.24774   0.89721   0.00000  Uiso   1.00
O791   O     0.68935   0.17155   0.88524   0.00000  Uiso   1.00
O792   O     0.81064   0.16179   0.78143   0.00000  Uiso   1.00
O793   O     0.68090   0.16176   0.78143   0.00000  Uiso   1.00
O794   O     0.81910   0.17157   0.88523   0.00000  Uiso   1.00
F795   F     0.87010   0.07479   0.78026   0.00000  Uiso   1.00
F796   F     0.62990   0.25855   0.88640   0.00000  Uiso   1.00
C797   C     0.52514   0.01693   0.76484   0.00000  Uiso   1.00
O798   O     0.50246   0.31588   0.72320   0.00000  Uiso   1.00
O799   O     0.56381   0.00482   0.79603   0.00000  Uiso   1.00
H800   H     0.57016   0.30051   0.77866   0.00000  Uiso   1.00
C801   C     0.97485   0.31640   0.90183   0.00000  Uiso   1.00
O802   O     0.99754   0.01745   0.94346   0.00000  Uiso   1.00
O803   O     0.93619   0.32851   0.87063   0.00000  Uiso   1.00
H804   H     0.92984   0.03283   0.88800   0.00000  Uiso   1.00
C805   C     0.70084   0.11016   0.98348   0.00000  Uiso   1.00
O806   O     0.68044   0.08735   0.68216   0.00000  Uiso   1.00
O807   O     0.68696   0.09315   0.92155   0.00000  Uiso   1.00
H808   H     0.66067   0.06300   0.90969   0.00000  Uiso   1.00
C809   C     0.79916   0.22318   0.68318   0.00000  Uiso   1.00
O810   O     0.81956   0.24599   0.98451   0.00000  Uiso   1.00
O811   O     0.81304   0.24018   0.74512   0.00000  Uiso   1.00
H812   H     0.83933   0.27033   0.75698   0.00000  Uiso   1.00
C813   C     0.24858   0.39993   0.81751   0.00000  Uiso   1.00
C814   C     0.25142   0.60007   0.84916   0.00000  Uiso   1.00
C815   C     0.00990   0.40351   0.78444   0.00000  Uiso   1.00
C816   C     0.49010   0.59649   0.88222   0.00000  Uiso   1.00
C817   C     0.24797   0.34357   0.80913   0.00000  Uiso   1.00
C818   C     0.25203   0.65643   0.85754   0.00000  Uiso   1.00
C819   C     0.16470   0.49994   0.83302   0.00000  Uiso   1.00
C820   C     0.33530   0.50006   0.83365   0.00000  Uiso   1.00
C821   C     0.41293   0.54664   0.86091   0.00000  Uiso   1.00
C822   C     0.08707   0.45336   0.80576   0.00000  Uiso   1.00
C823   C     0.38353   0.49979   0.83397   0.00000  Uiso   1.00
C824   C     0.11647   0.50021   0.83269   0.00000  Uiso   1.00
C825   C     0.39976   0.45324   0.80603   0.00000  Uiso   1.00
C826   C     0.10024   0.54676   0.86064   0.00000  Uiso   1.00
C827   C     0.44641   0.45285   0.80658   0.00000  Uiso   1.00
C828   C     0.05359   0.54715   0.86009   0.00000  Uiso   1.00
C829   C     0.47655   0.50037   0.83300   0.00000  Uiso   1.00
C830   C     0.02345   0.49964   0.83367   0.00000  Uiso   1.00
C831   C     0.45967   0.54851   0.85855   0.00000  Uiso   1.00
C832   C     0.04033   0.45149   0.80812   0.00000  Uiso   1.00
C833   C     0.46322   0.40538   0.78232   0.00000  Uiso   1.00
C834   C     0.03678   0.59462   0.88435   0.00000  Uiso   1.00
Cu835  Cu    0.25500   0.50579   0.89479   0.00000  Uiso   1.00
Cu836  Cu    0.24499   0.49421   0.77187   0.00000  Uiso   1.00
H837   H     0.39863   0.58105   0.88369   0.00000  Uiso   1.00
H838   H     0.10137   0.41895   0.78298   0.00000  Uiso   1.00
H839   H     0.43984   0.36889   0.76369   0.00000  Uiso   1.00
H840   H     0.06016   0.63111   0.90298   0.00000  Uiso   1.00
H841   H     0.24421   0.65221   0.76291   0.00000  Uiso   1.00
H842   H     0.25579   0.34779   0.90376   0.00000  Uiso   1.00
N843   N     0.23744   0.48547   0.67951   0.00000  Uiso   1.00
N844   N     0.26255   0.51453   0.98716   0.00000  Uiso   1.00
O845   O     0.25325   0.42871   0.87326   0.00000  Uiso   1.00
O846   O     0.24674   0.57129   0.79341   0.00000  Uiso   1.00
O847   O     0.24480   0.41892   0.76945   0.00000  Uiso   1.00
O848   O     0.25520   0.58108   0.89721   0.00000  Uiso   1.00
O849   O     0.18935   0.50488   0.88524   0.00000  Uiso   1.00
O850   O     0.31064   0.49512   0.78143   0.00000  Uiso   1.00
O851   O     0.18090   0.49510   0.78143   0.00000  Uiso   1.00
O852   O     0.31910   0.50490   0.88523   0.00000  Uiso   1.00
F853   F     0.37010   0.40812   0.78026   0.00000  Uiso   1.00
F854   F     0.12990   0.59188   0.88640   0.00000  Uiso   1.00
C855   C     0.02514   0.35026   0.76484   0.00000  Uiso   1.00
O856   O     0.00246   0.64922   0.72320   0.00000  Uiso   1.00
O857   O     0.06381   0.33816   0.79603   0.00000  Uiso   1.00
H858   H     0.07016   0.63384   0.77866   0.00000  Uiso   1.00
C859   C     0.47485   0.64974   0.90183   0.00000  Uiso   1.00
O860   O     0.49754   0.35079   0.94346   0.00000  Uiso   1.00
O861   O     0.43619   0.66184   0.87063   0.00000  Uiso   1.00
H862   H     0.42984   0.36616   0.88800   0.00000  Uiso   1.00
C863   C     0.20084   0.44349   0.98348   0.00000  Uiso   1.00
O864   O     0.18044   0.42068   0.68216   0.00000  Uiso   1.00
O865   O     0.18696   0.42648   0.92155   0.00000  Uiso   1.00
H866   H     0.16067   0.39633   0.90969   0.00000  Uiso   1.00
C867   C     0.29916   0.55651   0.68318   0.00000  Uiso   1.00
O868   O     0.31956   0.57932   0.98451   0.00000  Uiso   1.00
O869   O     0.31304   0.57352   0.74512   0.00000  Uiso   1.00
H870   H     0.33933   0.60367   0.75698   0.00000  Uiso   1.00
C871   C     0.74858   0.39993   0.81751   0.00000  Uiso   1.00
C872   C     0.75142   0.60007   0.84916   0.00000  Uiso   1.00
C873   C     0.50990   0.40351   0.78444   0.00000  Uiso   1.00
C874   C     0.99010   0.59649   0.88222   0.00000  Uiso   1.00
C875   C     0.74797   0.34357   0.80913   0.00000  Uiso   1.00
C876   C     0.75203   0.65643   0.85754   0.00000  Uiso   1.00
C877   C     0.66470   0.49994   0.83302   0.00000  Uiso   1.00
C878   C     0.83530   0.50006   0.83365   0.00000  Uiso   1.00
C879   C     0.91293   0.54664   0.86091   0.00000  Uiso   1.00
C880   C     0.58707   0.45336   0.80576   0.00000  Uiso   1.00
C881   C     0.88353   0.49979   0.83397   0.00000  Uiso   1.00
C882   C     0.61647   0.50021   0.83269   0.00000  Uiso   1.00
C883   C     0.89976   0.45324   0.80603   0.00000  Uiso   1.00
C884   C     0.60024   0.54676   0.86064   0.00000  Uiso   1.00
C885   C     0.94641   0.45285   0.80658   0.00000  Uiso   1.00
C886   C     0.55359   0.54715   0.86009   0.00000  Uiso   1.00
C887   C     0.97655   0.50037   0.83300   0.00000  Uiso   1.00
C888   C     0.52345   0.49964   0.83367   0.00000  Uiso   1.00
C889   C     0.95967   0.54851   0.85855   0.00000  Uiso   1.00
C890   C     0.54033   0.45149   0.80812   0.00000  Uiso   1.00
C891   C     0.96322   0.40538   0.78232   0.00000  Uiso   1.00
C892   C     0.53678   0.59462   0.88435   0.00000  Uiso   1.00
Cu893  Cu    0.75500   0.50579   0.89479   0.00000  Uiso   1.00
Cu894  Cu    0.74499   0.49421   0.77187   0.00000  Uiso   1.00
H895   H     0.89863   0.58105   0.88369   0.00000  Uiso   1.00
H896   H     0.60137   0.41895   0.78298   0.00000  Uiso   1.00
H897   H     0.93984   0.36889   0.76369   0.00000  Uiso   1.00
H898   H     0.56016   0.63111   0.90298   0.00000  Uiso   1.00
H899   H     0.74421   0.65221   0.76291   0.00000  Uiso   1.00
H900   H     0.75579   0.34779   0.90376   0.00000  Uiso   1.00
N901   N     0.73744   0.48547   0.67951   0.00000  Uiso   1.00
N902   N     0.76255   0.51453   0.98716   0.00000  Uiso   1.00
O903   O     0.75325   0.42871   0.87326   0.00000  Uiso   1.00
O904   O     0.74674   0.57129   0.79341   0.00000  Uiso   1.00
O905   O     0.74480   0.41892   0.76945   0.00000  Uiso   1.00
O906   O     0.75520   0.58108   0.89721   0.00000  Uiso   1.00
O907   O     0.68935   0.50488   0.88524   0.00000  Uiso   1.00
O908   O     0.81064   0.49512   0.78143   0.00000  Uiso   1.00
O909   O     0.68090   0.49510   0.78143   0.00000  Uiso   1.00
O910   O     0.81910   0.50490   0.88523   0.00000  Uiso   1.00
F911   F     0.87010   0.40812   0.78026   0.00000  Uiso   1.00
F912   F     0.62990   0.59188   0.88640   0.00000  Uiso   1.00
C913   C     0.52514   0.35026   0.76484   0.00000  Uiso   1.00
O914   O     0.50246   0.64922   0.72320   0.00000  Uiso   1.00
O915   O     0.56381   0.33816   0.79603   0.00000  Uiso   1.00
H916   H     0.57016   0.63384   0.77866   0.00000  Uiso   1.00
C917   C     0.97485   0.64974   0.90183   0.00000  Uiso   1.00
O918   O     0.99754   0.35079   0.94346   0.00000  Uiso   1.00
O919   O     0.93619   0.66184   0.87063   0.00000  Uiso   1.00
H920   H     0.92984   0.36616   0.88800   0.00000  Uiso   1.00
C921   C     0.70084   0.44349   0.98348   0.00000  Uiso   1.00
O922   O     0.68044   0.42068   0.68216   0.00000  Uiso   1.00
O923   O     0.68696   0.42648   0.92155   0.00000  Uiso   1.00
H924   H     0.66067   0.39633   0.90969   0.00000  Uiso   1.00
C925   C     0.79916   0.55651   0.68318   0.00000  Uiso   1.00
O926   O     0.81956   0.57932   0.98451   0.00000  Uiso   1.00
O927   O     0.81304   0.57352   0.74512   0.00000  Uiso   1.00
H928   H     0.83933   0.60367   0.75698   0.00000  Uiso   1.00
C929   C     0.24858   0.73326   0.81751   0.00000  Uiso   1.00
C930   C     0.25142   0.93340   0.84916   0.00000  Uiso   1.00
C931   C     0.00990   0.73684   0.78444   0.00000  Uiso   1.00
C932   C     0.49010   0.92983   0.88222   0.00000  Uiso   1.00
C933   C     0.24797   0.67690   0.80913   0.00000  Uiso   1.00
C934   C     0.25203   0.98977   0.85754   0.00000  Uiso   1.00
C935   C     0.16470   0.83328   0.83302   0.00000  Uiso   1.00
C936   C     0.33530   0.83339   0.83365   0.00000  Uiso   1.00
C937   C     0.41293   0.87997   0.86091   0.00000  Uiso   1.00
C938   C     0.08707   0.78670   0.80576   0.00000  Uiso   1.00
C939   C     0.38353   0.83312   0.83397   0.00000  Uiso   1.00
C940   C     0.11647   0.83354   0.83269   0.00000  Uiso   1.00
C941   C     0.39976   0.78658   0.80603   0.00000  Uiso   1.00
C942   C     0.10024   0.88009   0.86064   0.00000  Uiso   1.00
C943   C     0.44641   0.78618   0.80658   0.00000  Uiso   1.00
C944   C     0.05359   0.88048   0.86009   0.00000  Uiso   1.00
C945   C     0.47655   0.83370   0.83300   0.00000  Uiso   1.00
C946   C     0.02345   0.83297   0.83367   0.00000  Uiso   1.00
C947   C     0.45967   0.88185   0.85855   0.00000  Uiso   1.00
C948   C     0.04033   0.78482   0.80812   0.00000  Uiso   1.00
C949   C     0.46322   0.73872   0.78232   0.00000  Uiso   1.00
C950   C     0.03678   0.92795   0.88435   0.00000  Uiso   1.00
Cu951  Cu    0.25500   0.83913   0.89479   0.00000  Uiso   1.00
Cu952  Cu    0.24499   0.82754   0.77187   0.00000  Uiso   1.00
H953   H     0.39863   0.91439   0.88369   0.00000  Uiso   1.00
H954   H     0.10137   0.75228   0.78298   0.00000  Uiso   1.00
H955   H     0.43984   0.70223   0.76369   0.00000  Uiso   1.00
H956   H     0.06016   0.96444   0.90298   0.00000  Uiso   1.00
H957   H     0.24421   0.98554   0.76291   0.00000  Uiso   1.00
H958   H     0.25579   0.68112   0.90376   0.00000  Uiso   1.00
N959   N     0.23744   0.81881   0.67951   0.00000  Uiso   1.00
N960   N     0.26255   0.84786   0.98716   0.00000  Uiso   1.00
O961   O     0.25325   0.76204   0.87326   0.00000  Uiso   1.00
O962   O     0.24674   0.90462   0.79341   0.00000  Uiso   1.00
O963   O     0.24480   0.75226   0.76945   0.00000  Uiso   1.00
O964   O     0.25520   0.91441   0.89721   0.00000  Uiso   1.00
O965   O     0.18935   0.83821   0.88524   0.00000  Uiso   1.00
O966   O     0.31064   0.82845   0.78143   0.00000  Uiso   1.00
O967   O     0.18090   0.82843   0.78143   0.00000  Uiso   1.00
O968   O     0.31910   0.83824   0.88523   0.00000  Uiso   1.00
F969   F     0.37010   0.74145   0.78026   0.00000  Uiso   1.00
F970   F     0.12990   0.92522   0.88640   0.00000  Uiso   1.00
C971   C     0.02514   0.68360   0.76484   0.00000  Uiso   1.00
O972   O     0.00246   0.98255   0.72320   0.00000  Uiso   1.00
O973   O     0.06381   0.67149   0.79603   0.00000  Uiso   1.00
H974   H     0.07016   0.96717   0.77866   0.00000  Uiso   1.00
C975   C     0.47485   0.98307   0.90183   0.00000  Uiso   1.00
O976   O     0.49754   0.68412   0.94346   0.00000  Uiso   1.00
O977   O     0.43619   0.99518   0.87063   0.00000  Uiso   1.00
H978   H     0.42984   0.69949   0.88800   0.00000  Uiso   1.00
C979   C     0.20084   0.77682   0.98348   0.00000  Uiso   1.00
O980   O     0.18044   0.75401   0.68216   0.00000  Uiso   1.00
O981   O     0.18696   0.75982   0.92155   0.00000  Uiso   1.00
H982   H     0.16067   0.72967   0.90969   0.00000  Uiso   1.00
C983   C     0.29916   0.88984   0.68318   0.00000  Uiso   1.00
O984   O     0.31956   0.91265   0.98451   0.00000  Uiso   1.00
O985   O     0.31304   0.90685   0.74512   0.00000  Uiso   1.00
H986   H     0.33933   0.93700   0.75698   0.00000  Uiso   1.00
C987   C     0.74858   0.73326   0.81751   0.00000  Uiso   1.00
C988   C     0.75142   0.93340   0.84916   0.00000  Uiso   1.00
C989   C     0.50990   0.73684   0.78444   0.00000  Uiso   1.00
C990   C     0.99010   0.92983   0.88222   0.00000  Uiso   1.00
C991   C     0.74797   0.67690   0.80913   0.00000  Uiso   1.00
C992   C     0.75203   0.98977   0.85754   0.00000  Uiso   1.00
C993   C     0.66470   0.83328   0.83302   0.00000  Uiso   1.00
C994   C     0.83530   0.83339   0.83365   0.00000  Uiso   1.00
C995   C     0.91293   0.87997   0.86091   0.00000  Uiso   1.00
C996   C     0.58707   0.78670   0.80576   0.00000  Uiso   1.00
C997   C     0.88353   0.83312   0.83397   0.00000  Uiso   1.00
C998   C     0.61647   0.83354   0.83269   0.00000  Uiso   1.00
C999   C     0.89976   0.78658   0.80603   0.00000  Uiso   1.00
C1000  C     0.60024   0.88009   0.86064   0.00000  Uiso   1.00
C1001  C     0.94641   0.78618   0.80658   0.00000  Uiso   1.00
C1002  C     0.55359   0.88048   0.86009   0.00000  Uiso   1.00
C1003  C     0.97655   0.83370   0.83300   0.00000  Uiso   1.00
C1004  C     0.52345   0.83297   0.83367   0.00000  Uiso   1.00
C1005  C     0.95967   0.88185   0.85855   0.00000  Uiso   1.00
C1006  C     0.54033   0.78482   0.80812   0.00000  Uiso   1.00
C1007  C     0.96322   0.73872   0.78232   0.00000  Uiso   1.00
C1008  C     0.53678   0.92795   0.88435   0.00000  Uiso   1.00
Cu1009 Cu    0.75500   0.83913   0.89479   0.00000  Uiso   1.00
Cu1010 Cu    0.74499   0.82754   0.77187   0.00000  Uiso   1.00
H1011  H     0.89863   0.91439   0.88369   0.00000  Uiso   1.00
H1012  H     0.60137   0.75228   0.78298   0.00000  Uiso   1.00
H1013  H     0.93984   0.70223   0.76369   0.00000  Uiso   1.00
H1014  H     0.56016   0.96444   0.90298   0.00000  Uiso   1.00
H1015  H     0.74421   0.98554   0.76291   0.00000  Uiso   1.00
H1016  H     0.75579   0.68112   0.90376   0.00000  Uiso   1.00
N1017  N     0.73744   0.81881   0.67951   0.00000  Uiso   1.00
N1018  N     0.76255   0.84786   0.98716   0.00000  Uiso   1.00
O1019  O     0.75325   0.76204   0.87326   0.00000  Uiso   1.00
O1020  O     0.74674   0.90462   0.79341   0.00000  Uiso   1.00
O1021  O     0.74480   0.75226   0.76945   0.00000  Uiso   1.00
O1022  O     0.75520   0.91441   0.89721   0.00000  Uiso   1.00
O1023  O     0.68935   0.83821   0.88524   0.00000  Uiso   1.00
O1024  O     0.81064   0.82845   0.78143   0.00000  Uiso   1.00
O1025  O     0.68090   0.82843   0.78143   0.00000  Uiso   1.00
O1026  O     0.81910   0.83824   0.88523   0.00000  Uiso   1.00
F1027  F     0.87010   0.74145   0.78026   0.00000  Uiso   1.00
F1028  F     0.62990   0.92522   0.88640   0.00000  Uiso   1.00
C1029  C     0.52514   0.68360   0.76484   0.00000  Uiso   1.00
O1030  O     0.50246   0.98255   0.72320   0.00000  Uiso   1.00
O1031  O     0.56381   0.67149   0.79603   0.00000  Uiso   1.00
H1032  H     0.57016   0.96717   0.77866   0.00000  Uiso   1.00
C1033  C     0.97485   0.98307   0.90183   0.00000  Uiso   1.00
O1034  O     0.99754   0.68412   0.94346   0.00000  Uiso   1.00
O1035  O     0.93619   0.99518   0.87063   0.00000  Uiso   1.00
H1036  H     0.92984   0.69949   0.88800   0.00000  Uiso   1.00
C1037  C     0.70084   0.77682   0.98348   0.00000  Uiso   1.00
O1038  O     0.68044   0.75401   0.68216   0.00000  Uiso   1.00
O1039  O     0.68696   0.75982   0.92155   0.00000  Uiso   1.00
H1040  H     0.66067   0.72967   0.90969   0.00000  Uiso   1.00
C1041  C     0.79916   0.88984   0.68318   0.00000  Uiso   1.00
O1042  O     0.81956   0.91265   0.98451   0.00000  Uiso   1.00
O1043  O     0.81304   0.90685   0.74512   0.00000  Uiso   1.00
H1044  H     0.83933   0.93700   0.75698   0.00000  Uiso   1.00
loop_
_geom_bond_atom_site_label_1
_geom_bond_atom_site_label_2
_geom_bond_distance
_geom_bond_site_symmetry_2
_ccdc_geom_bond_type
C1     C5      1.433   .     S
C1     O33     1.302   .     A
C1     O35     1.308   .     A
C2     C6      1.433   .     S
C2     O36     1.308   .     A
C2     O34     1.302   .     A
C3     C20     1.419   .     A
C3     C43     1.490   .     S
C3     C79     1.399   1_455 S
C4     C19     1.419   .     A
C4     C47     1.490   .     S
C4     C80     1.399   .     S
C5     C238    1.339   1_545 S
C5     H261    1.087   1_545 S
C6     C121    1.339   .     S
C6     H146    1.087   .     S
C7     O37     1.306   .     A
C7     C12     1.443   .     S
C7     O39     1.308   .     A
C8     O38     1.306   .     A
C8     C11     1.443   .     S
C8     O40     1.308   .     A
C9     H25     1.081   .     S
C9     C11     1.393   .     A
C9     C19     1.402   .     A
C10    C20     1.402   .     A
C10    H26     1.081   .     S
C10    C12     1.393   .     A
C11    C13     1.394   .     A
C12    C14     1.394   .     A
C13    F41     1.361   .     S
C13    C15     1.396   .     A
C14    F42     1.361   .     S
C14    C16     1.396   .     A
C15    C21     1.400   .     A
C15    C17     1.414   .     A
C16    C18     1.414   .     A
C16    C22     1.400   .     A
C17    C19     1.422   .     A
C17    C76     1.405   .     S
C18    C20     1.422   .     A
C18    C75     1.405   1_455 S
C21    H27     1.084   .     S
C21    C61     1.399   .     S
C22    H28     1.084   .     S
C22    C62     1.399   1_455 S
Cu23   O33     1.945   .     S
Cu23   O37     1.950   .     S
Cu23   N32     2.057   .     S
Cu23   O36     1.949   .     S
Cu23   Cu24    2.738   .     S
Cu23   O40     1.956   .     S
Cu24   O38     1.950   .     S
Cu24   N31     2.057   .     S
Cu24   O35     1.949   .     S
Cu24   O39     1.956   .     S
Cu24   O34     1.945   .     S
H29    C121    1.087   .     S
H30    C238    1.087   1_545 S
N31    N728    1.292   1_554 S
N31    C747    1.443   1_554 S
N32    N379    1.292   .     S
N32    C403    1.443   .     S
C43    O45     1.398   .     S
C43    O276    1.223   1_545 S
O44    C159    1.223   .     S
O45    H278    1.014   1_545 S
H46    O161    1.014   .     S
C47    O49     1.398   .     S
C47    O164    1.223   .     S
O48    C279    1.223   1_545 S
O49    H166    1.014   .     S
H50    O281    1.014   1_545 S
C51    O53     1.384   .     S
C51    N379    1.443   .     S
C51    O400    1.220   .     S
O52    C747    1.220   1_554 S
O53    H54     1.015   .     S
C55    O57     1.384   .     S
C55    N728    1.443   1_554 S
C55    O752    1.220   1_554 S
O56    C403    1.220   .     S
O57    H58     1.015   .     S
C59    C63     1.433   .     S
C59    O91     1.302   .     A
C59    O93     1.308   .     A
C60    C64     1.433   .     S
C60    O94     1.308   .     A
C60    O92     1.302   .     A
C61    C78     1.419   .     A
C61    C101    1.490   .     S
C62    C77     1.419   .     A
C62    C105    1.490   .     S
C62    C22     1.399   1_655 S
C63    C296    1.339   1_545 S
C63    H319    1.087   1_545 S
C64    C179    1.339   .     S
C64    H204    1.087   .     S
C65    O95     1.306   .     A
C65    C70     1.443   .     S
C65    O97     1.308   .     A
C66    O96     1.306   .     A
C66    C69     1.443   .     S
C66    O98     1.308   .     A
C67    H83     1.081   .     S
C67    C69     1.393   .     A
C67    C77     1.402   .     A
C68    C78     1.402   .     A
C68    H84     1.081   .     S
C68    C70     1.393   .     A
C69    C71     1.394   .     A
C70    C72     1.394   .     A
C71    F99     1.361   .     S
C71    C73     1.396   .     A
C72    F100    1.361   .     S
C72    C74     1.396   .     A
C73    C79     1.400   .     A
C73    C75     1.414   .     A
C74    C76     1.414   .     A
C74    C80     1.400   .     A
C75    C77     1.422   .     A
C75    C18     1.405   1_655 S
C76    C78     1.422   .     A
C79    H85     1.084   .     S
C79    C3      1.399   1_655 S
C80    H86     1.084   .     S
Cu81   O91     1.945   .     S
Cu81   O95     1.950   .     S
Cu81   N90     2.057   .     S
Cu81   O94     1.949   .     S
Cu81   Cu82    2.738   .     S
Cu81   O98     1.956   .     S
Cu82   O96     1.950   .     S
Cu82   N89     2.057   .     S
Cu82   O93     1.949   .     S
Cu82   O97     1.956   .     S
Cu82   O92     1.945   .     S
H87    C179    1.087   .     S
H88    C296    1.087   1_545 S
N89    N786    1.292   1_554 S
N89    C805    1.443   1_554 S
N90    N437    1.292   .     S
N90    C461    1.443   .     S
C101   O103    1.398   .     S
C101   O334    1.223   1_545 S
O102   C217    1.223   .     S
O103   H336    1.014   1_545 S
H104   O219    1.014   .     S
C105   O107    1.398   .     S
C105   O222    1.223   .     S
O106   C337    1.223   1_545 S
O107   H224    1.014   .     S
H108   O339    1.014   1_545 S
C109   O111    1.384   .     S
C109   N437    1.443   .     S
C109   O458    1.220   .     S
O110   C805    1.220   1_554 S
O111   H112    1.015   .     S
C113   O115    1.384   .     S
C113   N786    1.443   1_554 S
C113   O810    1.220   1_554 S
O114   C461    1.220   .     S
O115   H116    1.015   .     S
C117   C121    1.433   .     S
C117   O149    1.302   .     A
C117   O151    1.308   .     A
C118   C122    1.433   .     S
C118   O152    1.308   .     A
C118   O150    1.302   .     A
C119   C136    1.419   .     A
C119   C159    1.490   .     S
C119   C195    1.399   1_455 S
C120   C135    1.419   .     A
C120   C163    1.490   .     S
C120   C196    1.399   .     S
C122   C237    1.339   .     S
C122   H262    1.087   .     S
C123   O153    1.306   .     A
C123   C128    1.443   .     S
C123   O155    1.308   .     A
C124   O154    1.306   .     A
C124   C127    1.443   .     S
C124   O156    1.308   .     A
C125   H141    1.081   .     S
C125   C127    1.393   .     A
C125   C135    1.402   .     A
C126   C136    1.402   .     A
C126   H142    1.081   .     S
C126   C128    1.393   .     A
C127   C129    1.394   .     A
C128   C130    1.394   .     A
C129   F157    1.361   .     S
C129   C131    1.396   .     A
C130   F158    1.361   .     S
C130   C132    1.396   .     A
C131   C137    1.400   .     A
C131   C133    1.414   .     A
C132   C134    1.414   .     A
C132   C138    1.400   .     A
C133   C135    1.422   .     A
C133   C192    1.405   .     S
C134   C136    1.422   .     A
C134   C191    1.405   1_455 S
C137   H143    1.084   .     S
C137   C177    1.399   .     S
C138   H144    1.084   .     S
C138   C178    1.399   1_455 S
Cu139  O149    1.945   .     S
Cu139  O153    1.950   .     S
Cu139  N148    2.057   .     S
Cu139  O152    1.949   .     S
Cu139  Cu140   2.738   .     S
Cu139  O156    1.956   .     S
Cu140  O154    1.950   .     S
Cu140  N147    2.057   .     S
Cu140  O151    1.949   .     S
Cu140  O155    1.956   .     S
Cu140  O150    1.945   .     S
H145   C237    1.087   .     S
N147   N844    1.292   1_554 S
N147   C863    1.443   1_554 S
N148   N495    1.292   .     S
N148   C519    1.443   .     S
C159   O161    1.398   .     S
O160   C275    1.223   .     S
H162   O277    1.014   .     S
C163   O165    1.398   .     S
C163   O280    1.223   .     S
O165   H282    1.014   .     S
C167   O169    1.384   .     S
C167   N495    1.443   .     S
C167   O516    1.220   .     S
O168   C863    1.220   1_554 S
O169   H170    1.015   .     S
C171   O173    1.384   .     S
C171   N844    1.443   1_554 S
C171   O868    1.220   1_554 S
O172   C519    1.220   .     S
O173   H174    1.015   .     S
C175   C179    1.433   .     S
C175   O207    1.302   .     A
C175   O209    1.308   .     A
C176   C180    1.433   .     S
C176   O210    1.308   .     A
C176   O208    1.302   .     A
C177   C194    1.419   .     A
C177   C217    1.490   .     S
C178   C193    1.419   .     A
C178   C221    1.490   .     S
C178   C138    1.399   1_655 S
C180   C295    1.339   .     S
C180   H320    1.087   .     S
C181   O211    1.306   .     A
C181   C186    1.443   .     S
C181   O213    1.308   .     A
C182   O212    1.306   .     A
C182   C185    1.443   .     S
C182   O214    1.308   .     A
C183   H199    1.081   .     S
C183   C185    1.393   .     A
C183   C193    1.402   .     A
C184   C194    1.402   .     A
C184   H200    1.081   .     S
C184   C186    1.393   .     A
C185   C187    1.394   .     A
C186   C188    1.394   .     A
C187   F215    1.361   .     S
C187   C189    1.396   .     A
C188   F216    1.361   .     S
C188   C190    1.396   .     A
C189   C195    1.400   .     A
C189   C191    1.414   .     A
C190   C192    1.414   .     A
C190   C196    1.400   .     A
C191   C193    1.422   .     A
C191   C134    1.405   1_655 S
C192   C194    1.422   .     A
C195   H201    1.084   .     S
C195   C119    1.399   1_655 S
C196   H202    1.084   .     S
Cu197  O207    1.945   .     S
Cu197  O211    1.950   .     S
Cu197  N206    2.057   .     S
Cu197  O210    1.949   .     S
Cu197  Cu198   2.738   .     S
Cu197  O214    1.956   .     S
Cu198  O212    1.950   .     S
Cu198  N205    2.057   .     S
Cu198  O209    1.949   .     S
Cu198  O213    1.956   .     S
Cu198  O208    1.945   .     S
H203   C295    1.087   .     S
N205   N902    1.292   1_554 S
N205   C921    1.443   1_554 S
N206   N553    1.292   .     S
N206   C577    1.443   .     S
C217   O219    1.398   .     S
O218   C333    1.223   .     S
H220   O335    1.014   .     S
C221   O223    1.398   .     S
C221   O338    1.223   .     S
O223   H340    1.014   .     S
C225   O227    1.384   .     S
C225   N553    1.443   .     S
C225   O574    1.220   .     S
O226   C921    1.220   1_554 S
O227   H228    1.015   .     S
C229   O231    1.384   .     S
C229   N902    1.443   1_554 S
C229   O926    1.220   1_554 S
O230   C577    1.220   .     S
O231   H232    1.015   .     S
C233   C237    1.433   .     S
C233   O265    1.302   .     A
C233   O267    1.308   .     A
C234   C238    1.433   .     S
C234   O268    1.308   .     A
C234   O266    1.302   .     A
C235   C252    1.419   .     A
C235   C275    1.490   .     S
C235   C311    1.399   1_455 S
C236   C251    1.419   .     A
C236   C279    1.490   .     S
C236   C312    1.399   .     S
C238   C5      1.339   1_565 S
C238   H30     1.087   1_565 S
C239   O269    1.306   .     A
C239   C244    1.443   .     S
C239   O271    1.308   .     A
C240   O270    1.306   .     A
C240   C243    1.443   .     S
C240   O272    1.308   .     A
C241   H257    1.081   .     S
C241   C243    1.393   .     A
C241   C251    1.402   .     A
C242   C252    1.402   .     A
C242   H258    1.081   .     S
C242   C244    1.393   .     A
C243   C245    1.394   .     A
C244   C246    1.394   .     A
C245   F273    1.361   .     S
C245   C247    1.396   .     A
C246   F274    1.361   .     S
C246   C248    1.396   .     A
C247   C253    1.400   .     A
C247   C249    1.414   .     A
C248   C250    1.414   .     A
C248   C254    1.400   .     A
C249   C251    1.422   .     A
C249   C308    1.405   .     S
C250   C252    1.422   .     A
C250   C307    1.405   1_455 S
C253   H259    1.084   .     S
C253   C293    1.399   .     S
C254   H260    1.084   .     S
C254   C294    1.399   1_455 S
Cu255  O265    1.945   .     S
Cu255  O269    1.950   .     S
Cu255  N264    2.057   .     S
Cu255  O268    1.949   .     S
Cu255  Cu256   2.738   .     S
Cu255  O272    1.956   .     S
Cu256  O270    1.950   .     S
Cu256  N263    2.057   .     S
Cu256  O267    1.949   .     S
Cu256  O271    1.956   .     S
Cu256  O266    1.945   .     S
H261   C5      1.087   1_565 S
N263   N960    1.292   1_554 S
N263   C979    1.443   1_554 S
N264   N611    1.292   .     S
N264   C635    1.443   .     S
C275   O277    1.398   .     S
O276   C43     1.223   1_565 S
H278   O45     1.014   1_565 S
C279   O281    1.398   .     S
C279   O48     1.223   1_565 S
O281   H50     1.014   1_565 S
C283   O285    1.384   .     S
C283   N611    1.443   .     S
C283   O632    1.220   .     S
O284   C979    1.220   1_554 S
O285   H286    1.015   .     S
C287   O289    1.384   .     S
C287   N960    1.443   1_554 S
C287   O984    1.220   1_554 S
O288   C635    1.220   .     S
O289   H290    1.015   .     S
C291   C295    1.433   .     S
C291   O323    1.302   .     A
C291   O325    1.308   .     A
C292   C296    1.433   .     S
C292   O326    1.308   .     A
C292   O324    1.302   .     A
C293   C310    1.419   .     A
C293   C333    1.490   .     S
C294   C309    1.419   .     A
C294   C337    1.490   .     S
C294   C254    1.399   1_655 S
C296   C63     1.339   1_565 S
C296   H88     1.087   1_565 S
C297   O327    1.306   .     A
C297   C302    1.443   .     S
C297   O329    1.308   .     A
C298   O328    1.306   .     A
C298   C301    1.443   .     S
C298   O330    1.308   .     A
C299   H315    1.081   .     S
C299   C301    1.393   .     A
C299   C309    1.402   .     A
C300   C310    1.402   .     A
C300   H316    1.081   .     S
C300   C302    1.393   .     A
C301   C303    1.394   .     A
C302   C304    1.394   .     A
C303   F331    1.361   .     S
C303   C305    1.396   .     A
C304   F332    1.361   .     S
C304   C306    1.396   .     A
C305   C311    1.400   .     A
C305   C307    1.414   .     A
C306   C308    1.414   .     A
C306   C312    1.400   .     A
C307   C309    1.422   .     A
C307   C250    1.405   1_655 S
C308   C310    1.422   .     A
C311   H317    1.084   .     S
C311   C235    1.399   1_655 S
C312   H318    1.084   .     S
Cu313  O323    1.945   .     S
Cu313  O327    1.950   .     S
Cu313  N322    2.057   .     S
Cu313  O326    1.949   .     S
Cu313  Cu314   2.738   .     S
Cu313  O330    1.956   .     S
Cu314  O328    1.950   .     S
Cu314  N321    2.057   .     S
Cu314  O325    1.949   .     S
Cu314  O329    1.956   .     S
Cu314  O324    1.945   .     S
H319   C63     1.087   1_565 S
N321   N1018   1.292   1_554 S
N321   C1037   1.443   1_554 S
N322   N669    1.292   .     S
N322   C693    1.443   .     S
C333   O335    1.398   .     S
O334   C101    1.223   1_565 S
H336   O103    1.014   1_565 S
C337   O339    1.398   .     S
C337   O106    1.223   1_565 S
O339   H108    1.014   1_565 S
C341   O343    1.384   .     S
C341   N669    1.443   .     S
C341   O690    1.220   .     S
O342   C1037   1.220   1_554 S
O343   H344    1.015   .     S
C345   O347    1.384   .     S
C345   N1018   1.443   1_554 S
C345   O1042   1.220   1_554 S
O346   C693    1.220   .     S
O347   H348    1.015   .     S
C349   C353    1.433   .     S
C349   O381    1.302   .     A
C349   O383    1.308   .     A
C350   C354    1.433   .     S
C350   O384    1.308   .     A
C350   O382    1.302   .     A
C351   C368    1.419   .     A
C351   C391    1.490   .     S
C351   C427    1.399   1_455 S
C352   C367    1.419   .     A
C352   C395    1.490   .     S
C352   C428    1.399   .     S
C353   C586    1.339   1_545 S
C353   H609    1.087   1_545 S
C354   C469    1.339   .     S
C354   H494    1.087   .     S
C355   O385    1.306   .     A
C355   C360    1.443   .     S
C355   O387    1.308   .     A
C356   O386    1.306   .     A
C356   C359    1.443   .     S
C356   O388    1.308   .     A
C357   H373    1.081   .     S
C357   C359    1.393   .     A
C357   C367    1.402   .     A
C358   C368    1.402   .     A
C358   H374    1.081   .     S
C358   C360    1.393   .     A
C359   C361    1.394   .     A
C360   C362    1.394   .     A
C361   F389    1.361   .     S
C361   C363    1.396   .     A
C362   F390    1.361   .     S
C362   C364    1.396   .     A
C363   C369    1.400   .     A
C363   C365    1.414   .     A
C364   C366    1.414   .     A
C364   C370    1.400   .     A
C365   C367    1.422   .     A
C365   C424    1.405   .     S
C366   C368    1.422   .     A
C366   C423    1.405   1_455 S
C369   H375    1.084   .     S
C369   C409    1.399   .     S
C370   H376    1.084   .     S
C370   C410    1.399   1_455 S
Cu371  O381    1.945   .     S
Cu371  O385    1.950   .     S
Cu371  N380    2.057   .     S
Cu371  O384    1.949   .     S
Cu371  Cu372   2.738   .     S
Cu371  O388    1.956   .     S
Cu372  O386    1.950   .     S
Cu372  N379    2.057   .     S
Cu372  O383    1.949   .     S
Cu372  O387    1.956   .     S
Cu372  O382    1.945   .     S
H377   C469    1.087   .     S
H378   C586    1.087   1_545 S
N380   N727    1.292   .     S
N380   C751    1.443   .     S
C391   O393    1.398   .     S
C391   O624    1.223   1_545 S
O392   C507    1.223   .     S
O393   H626    1.014   1_545 S
H394   O509    1.014   .     S
C395   O397    1.398   .     S
C395   O512    1.223   .     S
O396   C627    1.223   1_545 S
O397   H514    1.014   .     S
H398   O629    1.014   1_545 S
C399   O401    1.384   .     S
C399   N727    1.443   .     S
C399   O748    1.220   .     S
O401   H402    1.015   .     S
C403   O405    1.384   .     S
O404   C751    1.220   .     S
O405   H406    1.015   .     S
C407   C411    1.433   .     S
C407   O439    1.302   .     A
C407   O441    1.308   .     A
C408   C412    1.433   .     S
C408   O442    1.308   .     A
C408   O440    1.302   .     A
C409   C426    1.419   .     A
C409   C449    1.490   .     S
C410   C425    1.419   .     A
C410   C453    1.490   .     S
C410   C370    1.399   1_655 S
C411   C644    1.339   1_545 S
C411   H667    1.087   1_545 S
C412   C527    1.339   .     S
C412   H552    1.087   .     S
C413   O443    1.306   .     A
C413   C418    1.443   .     S
C413   O445    1.308   .     A
C414   O444    1.306   .     A
C414   C417    1.443   .     S
C414   O446    1.308   .     A
C415   H431    1.081   .     S
C415   C417    1.393   .     A
C415   C425    1.402   .     A
C416   C426    1.402   .     A
C416   H432    1.081   .     S
C416   C418    1.393   .     A
C417   C419    1.394   .     A
C418   C420    1.394   .     A
C419   F447    1.361   .     S
C419   C421    1.396   .     A
C420   F448    1.361   .     S
C420   C422    1.396   .     A
C421   C427    1.400   .     A
C421   C423    1.414   .     A
C422   C424    1.414   .     A
C422   C428    1.400   .     A
C423   C425    1.422   .     A
C423   C366    1.405   1_655 S
C424   C426    1.422   .     A
C427   H433    1.084   .     S
C427   C351    1.399   1_655 S
C428   H434    1.084   .     S
Cu429  O439    1.945   .     S
Cu429  O443    1.950   .     S
Cu429  N438    2.057   .     S
Cu429  O442    1.949   .     S
Cu429  Cu430   2.738   .     S
Cu429  O446    1.956   .     S
Cu430  O444    1.950   .     S
Cu430  N437    2.057   .     S
Cu430  O441    1.949   .     S
Cu430  O445    1.956   .     S
Cu430  O440    1.945   .     S
H435   C527    1.087   .     S
H436   C644    1.087   1_545 S
N438   N785    1.292   .     S
N438   C809    1.443   .     S
C449   O451    1.398   .     S
C449   O682    1.223   1_545 S
O450   C565    1.223   .     S
O451   H684    1.014   1_545 S
H452   O567    1.014   .     S
C453   O455    1.398   .     S
C453   O570    1.223   .     S
O454   C685    1.223   1_545 S
O455   H572    1.014   .     S
H456   O687    1.014   1_545 S
C457   O459    1.384   .     S
C457   N785    1.443   .     S
C457   O806    1.220   .     S
O459   H460    1.015   .     S
C461   O463    1.384   .     S
O462   C809    1.220   .     S
O463   H464    1.015   .     S
C465   C469    1.433   .     S
C465   O497    1.302   .     A
C465   O499    1.308   .     A
C466   C470    1.433   .     S
C466   O500    1.308   .     A
C466   O498    1.302   .     A
C467   C484    1.419   .     A
C467   C507    1.490   .     S
C467   C543    1.399   1_455 S
C468   C483    1.419   .     A
C468   C511    1.490   .     S
C468   C544    1.399   .     S
C470   C585    1.339   .     S
C470   H610    1.087   .     S
C471   O501    1.306   .     A
C471   C476    1.443   .     S
C471   O503    1.308   .     A
C472   O502    1.306   .     A
C472   C475    1.443   .     S
C472   O504    1.308   .     A
C473   H489    1.081   .     S
C473   C475    1.393   .     A
C473   C483    1.402   .     A
C474   C484    1.402   .     A
C474   H490    1.081   .     S
C474   C476    1.393   .     A
C475   C477    1.394   .     A
C476   C478    1.394   .     A
C477   F505    1.361   .     S
C477   C479    1.396   .     A
C478   F506    1.361   .     S
C478   C480    1.396   .     A
C479   C485    1.400   .     A
C479   C481    1.414   .     A
C480   C482    1.414   .     A
C480   C486    1.400   .     A
C481   C483    1.422   .     A
C481   C540    1.405   .     S
C482   C484    1.422   .     A
C482   C539    1.405   1_455 S
C485   H491    1.084   .     S
C485   C525    1.399   .     S
C486   H492    1.084   .     S
C486   C526    1.399   1_455 S
Cu487  O497    1.945   .     S
Cu487  O501    1.950   .     S
Cu487  N496    2.057   .     S
Cu487  O500    1.949   .     S
Cu487  Cu488   2.738   .     S
Cu487  O504    1.956   .     S
Cu488  O502    1.950   .     S
Cu488  N495    2.057   .     S
Cu488  O499    1.949   .     S
Cu488  O503    1.956   .     S
Cu488  O498    1.945   .     S
H493   C585    1.087   .     S
N496   N843    1.292   .     S
N496   C867    1.443   .     S
C507   O509    1.398   .     S
O508   C623    1.223   .     S
H510   O625    1.014   .     S
C511   O513    1.398   .     S
C511   O628    1.223   .     S
O513   H630    1.014   .     S
C515   O517    1.384   .     S
C515   N843    1.443   .     S
C515   O864    1.220   .     S
O517   H518    1.015   .     S
C519   O521    1.384   .     S
O520   C867    1.220   .     S
O521   H522    1.015   .     S
C523   C527    1.433   .     S
C523   O555    1.302   .     A
C523   O557    1.308   .     A
C524   C528    1.433   .     S
C524   O558    1.308   .     A
C524   O556    1.302   .     A
C525   C542    1.419   .     A
C525   C565    1.490   .     S
C526   C541    1.419   .     A
C526   C569    1.490   .     S
C526   C486    1.399   1_655 S
C528   C643    1.339   .     S
C528   H668    1.087   .     S
C529   O559    1.306   .     A
C529   C534    1.443   .     S
C529   O561    1.308   .     A
C530   O560    1.306   .     A
C530   C533    1.443   .     S
C530   O562    1.308   .     A
C531   H547    1.081   .     S
C531   C533    1.393   .     A
C531   C541    1.402   .     A
C532   C542    1.402   .     A
C532   H548    1.081   .     S
C532   C534    1.393   .     A
C533   C535    1.394   .     A
C534   C536    1.394   .     A
C535   F563    1.361   .     S
C535   C537    1.396   .     A
C536   F564    1.361   .     S
C536   C538    1.396   .     A
C537   C543    1.400   .     A
C537   C539    1.414   .     A
C538   C540    1.414   .     A
C538   C544    1.400   .     A
C539   C541    1.422   .     A
C539   C482    1.405   1_655 S
C540   C542    1.422   .     A
C543   H549    1.084   .     S
C543   C467    1.399   1_655 S
C544   H550    1.084   .     S
Cu545  O555    1.945   .     S
Cu545  O559    1.950   .     S
Cu545  N554    2.057   .     S
Cu545  O558    1.949   .     S
Cu545  Cu546   2.738   .     S
Cu545  O562    1.956   .     S
Cu546  O560    1.950   .     S
Cu546  N553    2.057   .     S
Cu546  O557    1.949   .     S
Cu546  O561    1.956   .     S
Cu546  O556    1.945   .     S
H551   C643    1.087   .     S
N554   N901    1.292   .     S
N554   C925    1.443   .     S
C565   O567    1.398   .     S
O566   C681    1.223   .     S
H568   O683    1.014   .     S
C569   O571    1.398   .     S
C569   O686    1.223   .     S
O571   H688    1.014   .     S
C573   O575    1.384   .     S
C573   N901    1.443   .     S
C573   O922    1.220   .     S
O575   H576    1.015   .     S
C577   O579    1.384   .     S
O578   C925    1.220   .     S
O579   H580    1.015   .     S
C581   C585    1.433   .     S
C581   O613    1.302   .     A
C581   O615    1.308   .     A
C582   C586    1.433   .     S
C582   O616    1.308   .     A
C582   O614    1.302   .     A
C583   C600    1.419   .     A
C583   C623    1.490   .     S
C583   C659    1.399   1_455 S
C584   C599    1.419   .     A
C584   C627    1.490   .     S
C584   C660    1.399   .     S
C586   C353    1.339   1_565 S
C586   H378    1.087   1_565 S
C587   O617    1.306   .     A
C587   C592    1.443   .     S
C587   O619    1.308   .     A
C588   O618    1.306   .     A
C588   C591    1.443   .     S
C588   O620    1.308   .     A
C589   H605    1.081   .     S
C589   C591    1.393   .     A
C589   C599    1.402   .     A
C590   C600    1.402   .     A
C590   H606    1.081   .     S
C590   C592    1.393   .     A
C591   C593    1.394   .     A
C592   C594    1.394   .     A
C593   F621    1.361   .     S
C593   C595    1.396   .     A
C594   F622    1.361   .     S
C594   C596    1.396   .     A
C595   C601    1.400   .     A
C595   C597    1.414   .     A
C596   C598    1.414   .     A
C596   C602    1.400   .     A
C597   C599    1.422   .     A
C597   C656    1.405   .     S
C598   C600    1.422   .     A
C598   C655    1.405   1_455 S
C601   H607    1.084   .     S
C601   C641    1.399   .     S
C602   H608    1.084   .     S
C602   C642    1.399   1_455 S
Cu603  O613    1.945   .     S
Cu603  O617    1.950   .     S
Cu603  N612    2.057   .     S
Cu603  O616    1.949   .     S
Cu603  Cu604   2.738   .     S
Cu603  O620    1.956   .     S
Cu604  O618    1.950   .     S
Cu604  N611    2.057   .     S
Cu604  O615    1.949   .     S
Cu604  O619    1.956   .     S
Cu604  O614    1.945   .     S
H609   C353    1.087   1_565 S
N612   N959    1.292   .     S
N612   C983    1.443   .     S
C623   O625    1.398   .     S
O624   C391    1.223   1_565 S
H626   O393    1.014   1_565 S
C627   O629    1.398   .     S
C627   O396    1.223   1_565 S
O629   H398    1.014   1_565 S
C631   O633    1.384   .     S
C631   N959    1.443   .     S
C631   O980    1.220   .     S
O633   H634    1.015   .     S
C635   O637    1.384   .     S
O636   C983    1.220   .     S
O637   H638    1.015   .     S
C639   C643    1.433   .     S
C639   O671    1.302   .     A
C639   O673    1.308   .     A
C640   C644    1.433   .     S
C640   O674    1.308   .     A
C640   O672    1.302   .     A
C641   C658    1.419   .     A
C641   C681    1.490   .     S
C642   C657    1.419   .     A
C642   C685    1.490   .     S
C642   C602    1.399   1_655 S
C644   C411    1.339   1_565 S
C644   H436    1.087   1_565 S
C645   O675    1.306   .     A
C645   C650    1.443   .     S
C645   O677    1.308   .     A
C646   O676    1.306   .     A
C646   C649    1.443   .     S
C646   O678    1.308   .     A
C647   H663    1.081   .     S
C647   C649    1.393   .     A
C647   C657    1.402   .     A
C648   C658    1.402   .     A
C648   H664    1.081   .     S
C648   C650    1.393   .     A
C649   C651    1.394   .     A
C650   C652    1.394   .     A
C651   F679    1.361   .     S
C651   C653    1.396   .     A
C652   F680    1.361   .     S
C652   C654    1.396   .     A
C653   C659    1.400   .     A
C653   C655    1.414   .     A
C654   C656    1.414   .     A
C654   C660    1.400   .     A
C655   C657    1.422   .     A
C655   C598    1.405   1_655 S
C656   C658    1.422   .     A
C659   H665    1.084   .     S
C659   C583    1.399   1_655 S
C660   H666    1.084   .     S
Cu661  O671    1.945   .     S
Cu661  O675    1.950   .     S
Cu661  N670    2.057   .     S
Cu661  O674    1.949   .     S
Cu661  Cu662   2.738   .     S
Cu661  O678    1.956   .     S
Cu662  O676    1.950   .     S
Cu662  N669    2.057   .     S
Cu662  O673    1.949   .     S
Cu662  O677    1.956   .     S
Cu662  O672    1.945   .     S
H667   C411    1.087   1_565 S
N670   N1017   1.292   .     S
N670   C1041   1.443   .     S
C681   O683    1.398   .     S
O682   C449    1.223   1_565 S
H684   O451    1.014   1_565 S
C685   O687    1.398   .     S
C685   O454    1.223   1_565 S
O687   H456    1.014   1_565 S
C689   O691    1.384   .     S
C689   N1017   1.443   .     S
C689   O1038   1.220   .     S
O691   H692    1.015   .     S
C693   O695    1.384   .     S
O694   C1041   1.220   .     S
O695   H696    1.015   .     S
C697   C701    1.433   .     S
C697   O729    1.302   .     A
C697   O731    1.308   .     A
C698   C702    1.433   .     S
C698   O732    1.308   .     A
C698   O730    1.302   .     A
C699   C716    1.419   .     A
C699   C739    1.490   .     S
C699   C775    1.399   1_455 S
C700   C715    1.419   .     A
C700   C743    1.490   .     S
C700   C776    1.399   .     S
C701   C934    1.339   1_545 S
C701   H957    1.087   1_545 S
C702   C817    1.339   .     S
C702   H842    1.087   .     S
C703   O733    1.306   .     A
C703   C708    1.443   .     S
C703   O735    1.308   .     A
C704   O734    1.306   .     A
C704   C707    1.443   .     S
C704   O736    1.308   .     A
C705   H721    1.081   .     S
C705   C707    1.393   .     A
C705   C715    1.402   .     A
C706   C716    1.402   .     A
C706   H722    1.081   .     S
C706   C708    1.393   .     A
C707   C709    1.394   .     A
C708   C710    1.394   .     A
C709   F737    1.361   .     S
C709   C711    1.396   .     A
C710   F738    1.361   .     S
C710   C712    1.396   .     A
C711   C717    1.400   .     A
C711   C713    1.414   .     A
C712   C714    1.414   .     A
C712   C718    1.400   .     A
C713   C715    1.422   .     A
C713   C772    1.405   .     S
C714   C716    1.422   .     A
C714   C771    1.405   1_455 S
C717   H723    1.084   .     S
C717   C757    1.399   .     S
C718   H724    1.084   .     S
C718   C758    1.399   1_455 S
Cu719  O729    1.945   .     S
Cu719  O733    1.950   .     S
Cu719  N728    2.057   .     S
Cu719  O732    1.949   .     S
Cu719  Cu720   2.738   .     S
Cu719  O736    1.956   .     S
Cu720  O734    1.950   .     S
Cu720  N727    2.057   .     S
Cu720  O731    1.949   .     S
Cu720  O735    1.956   .     S
Cu720  O730    1.945   .     S
H725   C817    1.087   .     S
H726   C934    1.087   1_545 S
N728   N31     1.292   1_556 S
N728   C55     1.443   1_556 S
C739   O741    1.398   .     S
C739   O972    1.223   1_545 S
O740   C855    1.223   .     S
O741   H974    1.014   1_545 S
H742   O857    1.014   .     S
C743   O745    1.398   .     S
C743   O860    1.223   .     S
O744   C975    1.223   1_545 S
O745   H862    1.014   .     S
H746   O977    1.014   1_545 S
C747   O749    1.384   .     S
C747   N31     1.443   1_556 S
C747   O52     1.220   1_556 S
O749   H750    1.015   .     S
C751   O753    1.384   .     S
O752   C55     1.220   1_556 S
O753   H754    1.015   .     S
C755   C759    1.433   .     S
C755   O787    1.302   .     A
C755   O789    1.308   .     A
C756   C760    1.433   .     S
C756   O790    1.308   .     A
C756   O788    1.302   .     A
C757   C774    1.419   .     A
C757   C797    1.490   .     S
C758   C773    1.419   .     A
C758   C801    1.490   .     S
C758   C718    1.399   1_655 S
C759   C992    1.339   1_545 S
C759   H1015   1.087   1_545 S
C760   C875    1.339   .     S
C760   H900    1.087   .     S
C761   O791    1.306   .     A
C761   C766    1.443   .     S
C761   O793    1.308   .     A
C762   O792    1.306   .     A
C762   C765    1.443   .     S
C762   O794    1.308   .     A
C763   H779    1.081   .     S
C763   C765    1.393   .     A
C763   C773    1.402   .     A
C764   C774    1.402   .     A
C764   H780    1.081   .     S
C764   C766    1.393   .     A
C765   C767    1.394   .     A
C766   C768    1.394   .     A
C767   F795    1.361   .     S
C767   C769    1.396   .     A
C768   F796    1.361   .     S
C768   C770    1.396   .     A
C769   C775    1.400   .     A
C769   C771    1.414   .     A
C770   C772    1.414   .     A
C770   C776    1.400   .     A
C771   C773    1.422   .     A
C771   C714    1.405   1_655 S
C772   C774    1.422   .     A
C775   H781    1.084   .     S
C775   C699    1.399   1_655 S
C776   H782    1.084   .     S
Cu777  O787    1.945   .     S
Cu777  O791    1.950   .     S
Cu777  N786    2.057   .     S
Cu777  O790    1.949   .     S
Cu777  Cu778   2.738   .     S
Cu777  O794    1.956   .     S
Cu778  O792    1.950   .     S
Cu778  N785    2.057   .     S
Cu778  O789    1.949   .     S
Cu778  O793    1.956   .     S
Cu778  O788    1.945   .     S
H783   C875    1.087   .     S
H784   C992    1.087   1_545 S
N786   N89     1.292   1_556 S
N786   C113    1.443   1_556 S
C797   O799    1.398   .     S
C797   O1030   1.223   1_545 S
O798   C913    1.223   .     S
O799   H1032   1.014   1_545 S
H800   O915    1.014   .     S
C801   O803    1.398   .     S
C801   O918    1.223   .     S
O802   C1033   1.223   1_545 S
O803   H920    1.014   .     S
H804   O1035   1.014   1_545 S
C805   O807    1.384   .     S
C805   N89     1.443   1_556 S
C805   O110    1.220   1_556 S
O807   H808    1.015   .     S
C809   O811    1.384   .     S
O810   C113    1.220   1_556 S
O811   H812    1.015   .     S
C813   C817    1.433   .     S
C813   O845    1.302   .     A
C813   O847    1.308   .     A
C814   C818    1.433   .     S
C814   O848    1.308   .     A
C814   O846    1.302   .     A
C815   C832    1.419   .     A
C815   C855    1.490   .     S
C815   C891    1.399   1_455 S
C816   C831    1.419   .     A
C816   C859    1.490   .     S
C816   C892    1.399   .     S
C818   C933    1.339   .     S
C818   H958    1.087   .     S
C819   O849    1.306   .     A
C819   C824    1.443   .     S
C819   O851    1.308   .     A
C820   O850    1.306   .     A
C820   C823    1.443   .     S
C820   O852    1.308   .     A
C821   H837    1.081   .     S
C821   C823    1.393   .     A
C821   C831    1.402   .     A
C822   C832    1.402   .     A
C822   H838    1.081   .     S
C822   C824    1.393   .     A
C823   C825    1.394   .     A
C824   C826    1.394   .     A
C825   F853    1.361   .     S
C825   C827    1.396   .     A
C826   F854    1.361   .     S
C826   C828    1.396   .     A
C827   C833    1.400   .     A
C827   C829    1.414   .     A
C828   C830    1.414   .     A
C828   C834    1.400   .     A
C829   C831    1.422   .     A
C829   C888    1.405   .     S
C830   C832    1.422   .     A
C830   C887    1.405   1_455 S
C833   H839    1.084   .     S
C833   C873    1.399   .     S
C834   H840    1.084   .     S
C834   C874    1.399   1_455 S
Cu835  O845    1.945   .     S
Cu835  O849    1.950   .     S
Cu835  N844    2.057   .     S
Cu835  O848    1.949   .     S
Cu835  Cu836   2.738   .     S
Cu835  O852    1.956   .     S
Cu836  O850    1.950   .     S
Cu836  N843    2.057   .     S
Cu836  O847    1.949   .     S
Cu836  O851    1.956   .     S
Cu836  O846    1.945   .     S
H841   C933    1.087   .     S
N844   N147    1.292   1_556 S
N844   C171    1.443   1_556 S
C855   O857    1.398   .     S
O856   C971    1.223   .     S
H858   O973    1.014   .     S
C859   O861    1.398   .     S
C859   O976    1.223   .     S
O861   H978    1.014   .     S
C863   O865    1.384   .     S
C863   N147    1.443   1_556 S
C863   O168    1.220   1_556 S
O865   H866    1.015   .     S
C867   O869    1.384   .     S
O868   C171    1.220   1_556 S
O869   H870    1.015   .     S
C871   C875    1.433   .     S
C871   O903    1.302   .     A
C871   O905    1.308   .     A
C872   C876    1.433   .     S
C872   O906    1.308   .     A
C872   O904    1.302   .     A
C873   C890    1.419   .     A
C873   C913    1.490   .     S
C874   C889    1.419   .     A
C874   C917    1.490   .     S
C874   C834    1.399   1_655 S
C876   C991    1.339   .     S
C876   H1016   1.087   .     S
C877   O907    1.306   .     A
C877   C882    1.443   .     S
C877   O909    1.308   .     A
C878   O908    1.306   .     A
C878   C881    1.443   .     S
C878   O910    1.308   .     A
C879   H895    1.081   .     S
C879   C881    1.393   .     A
C879   C889    1.402   .     A
C880   C890    1.402   .     A
C880   H896    1.081   .     S
C880   C882    1.393   .     A
C881   C883    1.394   .     A
C882   C884    1.394   .     A
C883   F911    1.361   .     S
C883   C885    1.396   .     A
C884   F912    1.361   .     S
C884   C886    1.396   .     A
C885   C891    1.400   .     A
C885   C887    1.414   .     A
C886   C888    1.414   .     A
C886   C892    1.400   .     A
C887   C889    1.422   .     A
C887   C830    1.405   1_655 S
C888   C890    1.422   .     A
C891   H897    1.084   .     S
C891   C815    1.399   1_655 S
C892   H898    1.084   .     S
Cu893  O903    1.945   .     S
Cu893  O907    1.950   .     S
Cu893  N902    2.057   .     S
Cu893  O906    1.949   .     S
Cu893  Cu894   2.738   .     S
Cu893  O910    1.956   .     S
Cu894  O908    1.950   .     S
Cu894  N901    2.057   .     S
Cu894  O905    1.949   .     S
Cu894  O909    1.956   .     S
Cu894  O904    1.945   .     S
H899   C991    1.087   .     S
N902   N205    1.292   1_556 S
N902   C229    1.443   1_556 S
C913   O915    1.398   .     S
O914   C1029   1.223   .     S
H916   O1031   1.014   .     S
C917   O919    1.398   .     S
C917   O1034   1.223   .     S
O919   H1036   1.014   .     S
C921   O923    1.384   .     S
C921   N205    1.443   1_556 S
C921   O226    1.220   1_556 S
O923   H924    1.015   .     S
C925   O927    1.384   .     S
O926   C229    1.220   1_556 S
O927   H928    1.015   .     S
C929   C933    1.433   .     S
C929   O961    1.302   .     A
C929   O963    1.308   .     A
C930   C934    1.433   .     S
C930   O964    1.308   .     A
C930   O962    1.302   .     A
C931   C948    1.419   .     A
C931   C971    1.490   .     S
C931   C1007   1.399   1_455 S
C932   C947    1.419   .     A
C932   C975    1.490   .     S
C932   C1008   1.399   .     S
C934   C701    1.339   1_565 S
C934   H726    1.087   1_565 S
C935   O965    1.306   .     A
C935   C940    1.443   .     S
C935   O967    1.308   .     A
C936   O966    1.306   .     A
C936   C939    1.443   .     S
C936   O968    1.308   .     A
C937   H953    1.081   .     S
C937   C939    1.393   .     A
C937   C947    1.402   .     A
C938   C948    1.402   .     A
C938   H954    1.081   .     S
C938   C940    1.393   .     A
C939   C941    1.394   .     A
C940   C942    1.394   .     A
C941   F969    1.361   .     S
C941   C943    1.396   .     A
C942   F970    1.361   .     S
C942   C944    1.396   .     A
C943   C949    1.400   .     A
C943   C945    1.414   .     A
C944   C946    1.414   .     A
C944   C950    1.400   .     A
C945   C947    1.422   .     A
C945   C1004   1.405   .     S
C946   C948    1.422   .     A
C946   C1003   1.405   1_455 S
C949   H955    1.084   .     S
C949   C989    1.399   .     S
C950   H956    1.084   .     S
C950   C990    1.399   1_455 S
Cu951  O961    1.945   .     S
Cu951  O965    1.950   .     S
Cu951  N960    2.057   .     S
Cu951  O964    1.949   .     S
Cu951  Cu952   2.738   .     S
Cu951  O968    1.956   .     S
Cu952  O966    1.950   .     S
Cu952  N959    2.057   .     S
Cu952  O963    1.949   .     S
Cu952  O967    1.956   .     S
Cu952  O962    1.945   .     S
H957   C701    1.087   1_565 S
N960   N263    1.292   1_556 S
N960   C287    1.443   1_556 S
C971   O973    1.398   .     S
O972   C739    1.223   1_565 S
H974   O741    1.014   1_565 S
C975   O977    1.398   .     S
C975   O744    1.223   1_565 S
O977   H746    1.014   1_565 S
C979   O981    1.384   .     S
C979   N263    1.443   1_556 S
C979   O284    1.220   1_556 S
O981   H982    1.015   .     S
C983   O985    1.384   .     S
O984   C287    1.220   1_556 S
O985   H986    1.015   .     S
C987   C991    1.433   .     S
C987   O1019   1.302   .     A
C987   O1021   1.308   .     A
C988   C992    1.433   .     S
C988   O1022   1.308   .     A
C988   O1020   1.302   .     A
C989   C1006   1.419   .     A
C989   C1029   1.490   .     S
C990   C1005   1.419   .     A
C990   C1033   1.490   .     S
C990   C950    1.399   1_655 S
C992   C759    1.339   1_565 S
C992   H784    1.087   1_565 S
C993   O1023   1.306   .     A
C993   C998    1.443   .     S
C993   O1025   1.308   .     A
C994   O1024   1.306   .     A
C994   C997    1.443   .     S
C994   O1026   1.308   .     A
C995   H1011   1.081   .     S
C995   C997    1.393   .     A
C995   C1005   1.402   .     A
C996   C1006   1.402   .     A
C996   H1012   1.081   .     S
C996   C998    1.393   .     A
C997   C999    1.394   .     A
C998   C1000   1.394   .     A
C999   F1027   1.361   .     S
C999   C1001   1.396   .     A
C1000  F1028   1.361   .     S
C1000  C1002   1.396   .     A
C1001  C1007   1.400   .     A
C1001  C1003   1.414   .     A
C1002  C1004   1.414   .     A
C1002  C1008   1.400   .     A
C1003  C1005   1.422   .     A
C1003  C946    1.405   1_655 S
C1004  C1006   1.422   .     A
C1007  H1013   1.084   .     S
C1007  C931    1.399   1_655 S
C1008  H1014   1.084   .     S
Cu1009 O1019   1.945   .     S
Cu1009 O1023   1.950   .     S
Cu1009 N1018   2.057   .     S
Cu1009 O1022   1.949   .     S
Cu1009 Cu1010  2.738   .     S
Cu1009 O1026   1.956   .     S
Cu1010 O1024   1.950   .     S
Cu1010 N1017   2.057   .     S
Cu1010 O1021   1.949   .     S
Cu1010 O1025   1.956   .     S
Cu1010 O1020   1.945   .     S
H1015  C759    1.087   1_565 S
N1018  N321    1.292   1_556 S
N1018  C345    1.443   1_556 S
C1029  O1031   1.398   .     S
O1030  C797    1.223   1_565 S
H1032  O799    1.014   1_565 S
C1033  O1035   1.398   .     S
C1033  O802    1.223   1_565 S
O1035  H804    1.014   1_565 S
C1037  O1039   1.384   .     S
C1037  N321    1.443   1_556 S
C1037  O342    1.220   1_556 S
O1039  H1040   1.015   .     S
C1041  O1043   1.384   .     S
O1042  C345    1.220   1_556 S
O1043  H1044   1.015   .     S
