data_str_m2_o1_o16_pcu_sym.235
_audit_creation_date              2020-01-03
_audit_creation_method            'Materials Studio'
_symmetry_space_group_name_H-M    'P1'
_symmetry_Int_Tables_number       1
_symmetry_cell_setting            triclinic
loop_
_symmetry_equiv_pos_as_xyz
  x,y,z
_cell_length_a                    28.6263
_cell_length_b                    32.4188
_cell_length_c                    26.9132
_cell_angle_alpha                 90.7724
_cell_angle_beta                  72.1513
_cell_angle_gamma                 89.6641
loop_
_atom_site_label
_atom_site_type_symbol
_atom_site_fract_x
_atom_site_fract_y
_atom_site_fract_z
_atom_site_U_iso_or_equiv
_atom_site_adp_type
_atom_site_occupancy
C1     C     0.16731   0.24586   0.24761   0.00000  Uiso   1.00
C2     C     0.14495   0.16083   0.48970   0.00000  Uiso   1.00
C3     C     0.15758   0.15135   0.43551   0.00000  Uiso   1.00
C4     C     0.18136   0.15612   0.01540   0.00000  Uiso   1.00
C5     C     0.22790   0.13870   0.48799   0.00000  Uiso   1.00
C6     C     0.23732   0.12506   0.43659   0.00000  Uiso   1.00
C7     C     0.20243   0.13051   0.41106   0.00000  Uiso   1.00
C8     C     0.17307   0.16844   0.06755   0.00000  Uiso   1.00
C9     C     0.25419   0.14499   0.06525   0.00000  Uiso   1.00
C10    C     0.12455   0.16243   0.40759   0.00000  Uiso   1.00
C11    C     0.21162   0.31222   0.21912   0.00000  Uiso   1.00
C12    C     0.14043   0.16441   0.35007   0.00000  Uiso   1.00
C13    C     0.21097   0.02174   0.22323   0.00000  Uiso   1.00
C14    C     0.16734   0.04289   0.24864   0.00000  Uiso   1.00
C15    C     0.12398   0.02149   0.27101   0.00000  Uiso   1.00
C16    C     0.12447   0.31219   0.26939   0.00000  Uiso   1.00
C17    C     0.16808   0.29054   0.24441   0.00000  Uiso   1.00
C18    C     0.29746   0.18959   0.28566   0.00000  Uiso   1.00
C19    C     0.01348   0.18990   0.28629   0.00000  Uiso   1.00
C20    C     0.03523   0.14351   0.21431   0.00000  Uiso   1.00
C21    C     0.31902   0.14353   0.21433   0.00000  Uiso   1.00
C22    C     0.16677   0.08744   0.24997   0.00000  Uiso   1.00
C23    C     0.19300   0.16619   0.14994   0.00000  Uiso   1.00
C24    C     0.26417   0.13401   0.01279   0.00000  Uiso   1.00
C25    C     0.20808   0.16127   0.09307   0.00000  Uiso   1.00
C26    C     0.07678   0.17564   0.43522   0.00000  Uiso   1.00
C27    C     0.06255   0.18044   0.48907   0.00000  Uiso   1.00
C28    C     0.09624   0.17407   0.01608   0.00000  Uiso   1.00
Cu29   Cu    0.11978   0.16666   0.25000   0.00000  Uiso   1.00
Cu30   Cu    0.21355   0.16667   0.25000   0.00000  Uiso   1.00
H31    H     0.28173   0.13928   0.08445   0.00000  Uiso   1.00
H32    H     0.24400   0.03881   0.20440   0.00000  Uiso   1.00
H33    H     0.09000   0.03772   0.29068   0.00000  Uiso   1.00
H34    H     0.09085   0.29612   0.28861   0.00000  Uiso   1.00
H35    H     0.26962   0.20805   0.31351   0.00000  Uiso   1.00
H36    H     0.06216   0.12486   0.18573   0.00000  Uiso   1.00
H37    H     0.30876   0.12494   0.18573   0.00000  Uiso   1.00
H38    H     0.27183   0.10991   0.41598   0.00000  Uiso   1.00
H39    H     0.29976   0.12077   0.49197   0.00000  Uiso   1.00
H40    H     0.13928   0.18336   0.08970   0.00000  Uiso   1.00
H41    H     0.05050   0.18319   0.41510   0.00000  Uiso   1.00
H42    H     0.08249   0.17883   0.05774   0.00000  Uiso   1.00
H43    H     0.02547   0.19043   0.00994   0.00000  Uiso   1.00
H44    H     0.21083   0.11698   0.37242   0.00000  Uiso   1.00
N45    N     0.04931   0.16666   0.24998   0.00000  Uiso   1.00
N46    N     0.28402   0.16669   0.24999   0.00000  Uiso   1.00
O47    O     0.12708   0.22678   0.25000   0.00000  Uiso   1.00
O48    O     0.20627   0.22679   0.25000   0.00000  Uiso   1.00
O49    O     0.10775   0.16665   0.32549   0.00000  Uiso   1.00
O50    O     0.18694   0.16666   0.32549   0.00000  Uiso   1.00
O51    O     0.12706   0.10654   0.24999   0.00000  Uiso   1.00
O52    O     0.20625   0.10655   0.24999   0.00000  Uiso   1.00
O53    O     0.14640   0.16667   0.17451   0.00000  Uiso   1.00
O54    O     0.22559   0.16668   0.17451   0.00000  Uiso   1.00
C55    C     0.02425   0.21623   0.32691   0.00000  Uiso   1.00
H56    H     0.06069   0.22571   0.32432   0.00000  Uiso   1.00
O57    O     0.32454   0.22850   0.36496   0.00000  Uiso   1.00
C58    C     0.25758   0.29231   0.18581   0.00000  Uiso   1.00
H59    H     0.29252   0.30719   0.18110   0.00000  Uiso   1.00
O60    O     0.25688   0.26072   0.16085   0.00000  Uiso   1.00
C61    C     0.50064   0.24586   0.24761   0.00000  Uiso   1.00
C62    C     0.47828   0.16083   0.48970   0.00000  Uiso   1.00
C63    C     0.49091   0.15135   0.43551   0.00000  Uiso   1.00
C64    C     0.51469   0.15612   0.01540   0.00000  Uiso   1.00
C65    C     0.56124   0.13870   0.48799   0.00000  Uiso   1.00
C66    C     0.57066   0.12506   0.43659   0.00000  Uiso   1.00
C67    C     0.53576   0.13051   0.41106   0.00000  Uiso   1.00
C68    C     0.50640   0.16844   0.06755   0.00000  Uiso   1.00
C69    C     0.58752   0.14499   0.06525   0.00000  Uiso   1.00
C70    C     0.45789   0.16243   0.40759   0.00000  Uiso   1.00
C71    C     0.54495   0.31222   0.21912   0.00000  Uiso   1.00
C72    C     0.47376   0.16441   0.35007   0.00000  Uiso   1.00
C73    C     0.54430   0.02174   0.22323   0.00000  Uiso   1.00
C74    C     0.50067   0.04289   0.24864   0.00000  Uiso   1.00
C75    C     0.45732   0.02149   0.27101   0.00000  Uiso   1.00
C76    C     0.45781   0.31219   0.26939   0.00000  Uiso   1.00
C77    C     0.50141   0.29054   0.24441   0.00000  Uiso   1.00
C78    C     0.63080   0.18959   0.28566   0.00000  Uiso   1.00
C79    C     0.34681   0.18990   0.28629   0.00000  Uiso   1.00
C80    C     0.36856   0.14351   0.21431   0.00000  Uiso   1.00
C81    C     0.65235   0.14353   0.21433   0.00000  Uiso   1.00
C82    C     0.50010   0.08744   0.24997   0.00000  Uiso   1.00
C83    C     0.52633   0.16619   0.14994   0.00000  Uiso   1.00
C84    C     0.59750   0.13401   0.01279   0.00000  Uiso   1.00
C85    C     0.54141   0.16127   0.09307   0.00000  Uiso   1.00
C86    C     0.41012   0.17564   0.43522   0.00000  Uiso   1.00
C87    C     0.39589   0.18044   0.48907   0.00000  Uiso   1.00
C88    C     0.42957   0.17407   0.01608   0.00000  Uiso   1.00
Cu89   Cu    0.45311   0.16666   0.25000   0.00000  Uiso   1.00
Cu90   Cu    0.54689   0.16667   0.25000   0.00000  Uiso   1.00
H91    H     0.61506   0.13928   0.08445   0.00000  Uiso   1.00
H92    H     0.57733   0.03881   0.20440   0.00000  Uiso   1.00
H93    H     0.42333   0.03772   0.29068   0.00000  Uiso   1.00
H94    H     0.42418   0.29612   0.28861   0.00000  Uiso   1.00
H95    H     0.60295   0.20805   0.31351   0.00000  Uiso   1.00
H96    H     0.39549   0.12486   0.18573   0.00000  Uiso   1.00
H97    H     0.64209   0.12494   0.18573   0.00000  Uiso   1.00
H98    H     0.60516   0.10991   0.41598   0.00000  Uiso   1.00
H99    H     0.63310   0.12077   0.49197   0.00000  Uiso   1.00
H100   H     0.47261   0.18336   0.08970   0.00000  Uiso   1.00
H101   H     0.38383   0.18319   0.41510   0.00000  Uiso   1.00
H102   H     0.41582   0.17883   0.05774   0.00000  Uiso   1.00
H103   H     0.35881   0.19043   0.00994   0.00000  Uiso   1.00
H104   H     0.54416   0.11698   0.37242   0.00000  Uiso   1.00
N105   N     0.38265   0.16666   0.24998   0.00000  Uiso   1.00
N106   N     0.61735   0.16669   0.24999   0.00000  Uiso   1.00
O107   O     0.46042   0.22678   0.25000   0.00000  Uiso   1.00
O108   O     0.53961   0.22679   0.25000   0.00000  Uiso   1.00
O109   O     0.44108   0.16665   0.32549   0.00000  Uiso   1.00
O110   O     0.52027   0.16666   0.32549   0.00000  Uiso   1.00
O111   O     0.46039   0.10654   0.24999   0.00000  Uiso   1.00
O112   O     0.53958   0.10655   0.24999   0.00000  Uiso   1.00
O113   O     0.47973   0.16667   0.17451   0.00000  Uiso   1.00
O114   O     0.55892   0.16668   0.17451   0.00000  Uiso   1.00
C115   C     0.35759   0.21623   0.32691   0.00000  Uiso   1.00
H116   H     0.39403   0.22571   0.32432   0.00000  Uiso   1.00
O117   O     0.65787   0.22850   0.36496   0.00000  Uiso   1.00
C118   C     0.59092   0.29231   0.18581   0.00000  Uiso   1.00
H119   H     0.62586   0.30719   0.18110   0.00000  Uiso   1.00
O120   O     0.59021   0.26072   0.16085   0.00000  Uiso   1.00
C121   C     0.83398   0.24586   0.24761   0.00000  Uiso   1.00
C122   C     0.81161   0.16083   0.48970   0.00000  Uiso   1.00
C123   C     0.82424   0.15135   0.43551   0.00000  Uiso   1.00
C124   C     0.84802   0.15612   0.01540   0.00000  Uiso   1.00
C125   C     0.89457   0.13870   0.48799   0.00000  Uiso   1.00
C126   C     0.90399   0.12506   0.43659   0.00000  Uiso   1.00
C127   C     0.86910   0.13051   0.41106   0.00000  Uiso   1.00
C128   C     0.83974   0.16844   0.06755   0.00000  Uiso   1.00
C129   C     0.92086   0.14499   0.06525   0.00000  Uiso   1.00
C130   C     0.79122   0.16243   0.40759   0.00000  Uiso   1.00
C131   C     0.87828   0.31222   0.21912   0.00000  Uiso   1.00
C132   C     0.80709   0.16441   0.35007   0.00000  Uiso   1.00
C133   C     0.87764   0.02174   0.22323   0.00000  Uiso   1.00
C134   C     0.83401   0.04289   0.24864   0.00000  Uiso   1.00
C135   C     0.79065   0.02149   0.27101   0.00000  Uiso   1.00
C136   C     0.79114   0.31219   0.26939   0.00000  Uiso   1.00
C137   C     0.83474   0.29054   0.24441   0.00000  Uiso   1.00
C138   C     0.96413   0.18959   0.28566   0.00000  Uiso   1.00
C139   C     0.68014   0.18990   0.28629   0.00000  Uiso   1.00
C140   C     0.70189   0.14351   0.21431   0.00000  Uiso   1.00
C141   C     0.98569   0.14353   0.21433   0.00000  Uiso   1.00
C142   C     0.83344   0.08744   0.24997   0.00000  Uiso   1.00
C143   C     0.85967   0.16619   0.14994   0.00000  Uiso   1.00
C144   C     0.93083   0.13401   0.01279   0.00000  Uiso   1.00
C145   C     0.87474   0.16127   0.09307   0.00000  Uiso   1.00
C146   C     0.74345   0.17564   0.43522   0.00000  Uiso   1.00
C147   C     0.72922   0.18044   0.48907   0.00000  Uiso   1.00
C148   C     0.76290   0.17407   0.01608   0.00000  Uiso   1.00
Cu149  Cu    0.78645   0.16666   0.25000   0.00000  Uiso   1.00
Cu150  Cu    0.88022   0.16667   0.25000   0.00000  Uiso   1.00
H151   H     0.94840   0.13928   0.08445   0.00000  Uiso   1.00
H152   H     0.91067   0.03881   0.20440   0.00000  Uiso   1.00
H153   H     0.75667   0.03772   0.29068   0.00000  Uiso   1.00
H154   H     0.75752   0.29612   0.28861   0.00000  Uiso   1.00
H155   H     0.93628   0.20805   0.31351   0.00000  Uiso   1.00
H156   H     0.72882   0.12486   0.18573   0.00000  Uiso   1.00
H157   H     0.97542   0.12494   0.18573   0.00000  Uiso   1.00
H158   H     0.93850   0.10991   0.41598   0.00000  Uiso   1.00
H159   H     0.96643   0.12077   0.49197   0.00000  Uiso   1.00
H160   H     0.80594   0.18336   0.08970   0.00000  Uiso   1.00
H161   H     0.71717   0.18319   0.41510   0.00000  Uiso   1.00
H162   H     0.74915   0.17883   0.05774   0.00000  Uiso   1.00
H163   H     0.69214   0.19043   0.00994   0.00000  Uiso   1.00
H164   H     0.87750   0.11698   0.37242   0.00000  Uiso   1.00
N165   N     0.71598   0.16666   0.24998   0.00000  Uiso   1.00
N166   N     0.95069   0.16669   0.24999   0.00000  Uiso   1.00
O167   O     0.79375   0.22678   0.25000   0.00000  Uiso   1.00
O168   O     0.87294   0.22679   0.25000   0.00000  Uiso   1.00
O169   O     0.77441   0.16665   0.32549   0.00000  Uiso   1.00
O170   O     0.85360   0.16666   0.32549   0.00000  Uiso   1.00
O171   O     0.79373   0.10654   0.24999   0.00000  Uiso   1.00
O172   O     0.87292   0.10655   0.24999   0.00000  Uiso   1.00
O173   O     0.81306   0.16667   0.17451   0.00000  Uiso   1.00
O174   O     0.89225   0.16668   0.17451   0.00000  Uiso   1.00
C175   C     0.69092   0.21623   0.32691   0.00000  Uiso   1.00
H176   H     0.72736   0.22571   0.32432   0.00000  Uiso   1.00
O177   O     0.99121   0.22850   0.36496   0.00000  Uiso   1.00
C178   C     0.92425   0.29231   0.18581   0.00000  Uiso   1.00
H179   H     0.95919   0.30719   0.18110   0.00000  Uiso   1.00
O180   O     0.92354   0.26072   0.16085   0.00000  Uiso   1.00
C181   C     0.16731   0.57920   0.24761   0.00000  Uiso   1.00
C182   C     0.14495   0.49416   0.48970   0.00000  Uiso   1.00
C183   C     0.15758   0.48468   0.43551   0.00000  Uiso   1.00
C184   C     0.18136   0.48946   0.01540   0.00000  Uiso   1.00
C185   C     0.22790   0.47203   0.48799   0.00000  Uiso   1.00
C186   C     0.23732   0.45839   0.43659   0.00000  Uiso   1.00
C187   C     0.20243   0.46385   0.41106   0.00000  Uiso   1.00
C188   C     0.17307   0.50177   0.06755   0.00000  Uiso   1.00
C189   C     0.25419   0.47832   0.06525   0.00000  Uiso   1.00
C190   C     0.12455   0.49576   0.40759   0.00000  Uiso   1.00
C191   C     0.21162   0.64555   0.21912   0.00000  Uiso   1.00
C192   C     0.14043   0.49775   0.35007   0.00000  Uiso   1.00
C193   C     0.21097   0.35507   0.22323   0.00000  Uiso   1.00
C194   C     0.16734   0.37622   0.24864   0.00000  Uiso   1.00
C195   C     0.12398   0.35482   0.27101   0.00000  Uiso   1.00
C196   C     0.12447   0.64552   0.26939   0.00000  Uiso   1.00
C197   C     0.16808   0.62388   0.24441   0.00000  Uiso   1.00
C198   C     0.29746   0.52293   0.28566   0.00000  Uiso   1.00
C199   C     0.01348   0.52323   0.28629   0.00000  Uiso   1.00
C200   C     0.03523   0.47684   0.21431   0.00000  Uiso   1.00
C201   C     0.31902   0.47686   0.21433   0.00000  Uiso   1.00
C202   C     0.16677   0.42077   0.24997   0.00000  Uiso   1.00
C203   C     0.19300   0.49952   0.14994   0.00000  Uiso   1.00
C204   C     0.26417   0.46735   0.01279   0.00000  Uiso   1.00
C205   C     0.20808   0.49460   0.09307   0.00000  Uiso   1.00
C206   C     0.07678   0.50897   0.43522   0.00000  Uiso   1.00
C207   C     0.06255   0.51377   0.48907   0.00000  Uiso   1.00
C208   C     0.09624   0.50740   0.01608   0.00000  Uiso   1.00
Cu209  Cu    0.11978   0.49999   0.25000   0.00000  Uiso   1.00
Cu210  Cu    0.21355   0.50001   0.25000   0.00000  Uiso   1.00
H211   H     0.28173   0.47262   0.08445   0.00000  Uiso   1.00
H212   H     0.24400   0.37215   0.20440   0.00000  Uiso   1.00
H213   H     0.09000   0.37105   0.29068   0.00000  Uiso   1.00
H214   H     0.09085   0.62945   0.28861   0.00000  Uiso   1.00
H215   H     0.26962   0.54138   0.31351   0.00000  Uiso   1.00
H216   H     0.06216   0.45819   0.18573   0.00000  Uiso   1.00
H217   H     0.30876   0.45827   0.18573   0.00000  Uiso   1.00
H218   H     0.27183   0.44324   0.41598   0.00000  Uiso   1.00
H219   H     0.29976   0.45411   0.49197   0.00000  Uiso   1.00
H220   H     0.13928   0.51669   0.08970   0.00000  Uiso   1.00
H221   H     0.05050   0.51653   0.41510   0.00000  Uiso   1.00
H222   H     0.08249   0.51216   0.05774   0.00000  Uiso   1.00
H223   H     0.02547   0.52377   0.00994   0.00000  Uiso   1.00
H224   H     0.21083   0.45031   0.37242   0.00000  Uiso   1.00
N225   N     0.04931   0.49999   0.24998   0.00000  Uiso   1.00
N226   N     0.28402   0.50002   0.24999   0.00000  Uiso   1.00
O227   O     0.12708   0.56011   0.25000   0.00000  Uiso   1.00
O228   O     0.20627   0.56012   0.25000   0.00000  Uiso   1.00
O229   O     0.10775   0.49998   0.32549   0.00000  Uiso   1.00
O230   O     0.18694   0.49999   0.32549   0.00000  Uiso   1.00
O231   O     0.12706   0.43988   0.24999   0.00000  Uiso   1.00
O232   O     0.20625   0.43989   0.24999   0.00000  Uiso   1.00
O233   O     0.14640   0.50001   0.17451   0.00000  Uiso   1.00
O234   O     0.22559   0.50002   0.17451   0.00000  Uiso   1.00
C235   C     0.02425   0.54956   0.32691   0.00000  Uiso   1.00
H236   H     0.06069   0.55905   0.32432   0.00000  Uiso   1.00
O237   O     0.32454   0.56183   0.36496   0.00000  Uiso   1.00
C238   C     0.25758   0.62564   0.18581   0.00000  Uiso   1.00
H239   H     0.29252   0.64052   0.18110   0.00000  Uiso   1.00
O240   O     0.25688   0.59405   0.16085   0.00000  Uiso   1.00
C241   C     0.50064   0.57920   0.24761   0.00000  Uiso   1.00
C242   C     0.47828   0.49416   0.48970   0.00000  Uiso   1.00
C243   C     0.49091   0.48468   0.43551   0.00000  Uiso   1.00
C244   C     0.51469   0.48946   0.01540   0.00000  Uiso   1.00
C245   C     0.56124   0.47203   0.48799   0.00000  Uiso   1.00
C246   C     0.57066   0.45839   0.43659   0.00000  Uiso   1.00
C247   C     0.53576   0.46385   0.41106   0.00000  Uiso   1.00
C248   C     0.50640   0.50177   0.06755   0.00000  Uiso   1.00
C249   C     0.58752   0.47832   0.06525   0.00000  Uiso   1.00
C250   C     0.45789   0.49576   0.40759   0.00000  Uiso   1.00
C251   C     0.54495   0.64555   0.21912   0.00000  Uiso   1.00
C252   C     0.47376   0.49775   0.35007   0.00000  Uiso   1.00
C253   C     0.54430   0.35507   0.22323   0.00000  Uiso   1.00
C254   C     0.50067   0.37622   0.24864   0.00000  Uiso   1.00
C255   C     0.45732   0.35482   0.27101   0.00000  Uiso   1.00
C256   C     0.45781   0.64552   0.26939   0.00000  Uiso   1.00
C257   C     0.50141   0.62388   0.24441   0.00000  Uiso   1.00
C258   C     0.63080   0.52293   0.28566   0.00000  Uiso   1.00
C259   C     0.34681   0.52323   0.28629   0.00000  Uiso   1.00
C260   C     0.36856   0.47684   0.21431   0.00000  Uiso   1.00
C261   C     0.65235   0.47686   0.21433   0.00000  Uiso   1.00
C262   C     0.50010   0.42077   0.24997   0.00000  Uiso   1.00
C263   C     0.52633   0.49952   0.14994   0.00000  Uiso   1.00
C264   C     0.59750   0.46735   0.01279   0.00000  Uiso   1.00
C265   C     0.54141   0.49460   0.09307   0.00000  Uiso   1.00
C266   C     0.41012   0.50897   0.43522   0.00000  Uiso   1.00
C267   C     0.39589   0.51377   0.48907   0.00000  Uiso   1.00
C268   C     0.42957   0.50740   0.01608   0.00000  Uiso   1.00
Cu269  Cu    0.45311   0.49999   0.25000   0.00000  Uiso   1.00
Cu270  Cu    0.54689   0.50001   0.25000   0.00000  Uiso   1.00
H271   H     0.61506   0.47262   0.08445   0.00000  Uiso   1.00
H272   H     0.57733   0.37215   0.20440   0.00000  Uiso   1.00
H273   H     0.42333   0.37105   0.29068   0.00000  Uiso   1.00
H274   H     0.42418   0.62945   0.28861   0.00000  Uiso   1.00
H275   H     0.60295   0.54138   0.31351   0.00000  Uiso   1.00
H276   H     0.39549   0.45819   0.18573   0.00000  Uiso   1.00
H277   H     0.64209   0.45827   0.18573   0.00000  Uiso   1.00
H278   H     0.60516   0.44324   0.41598   0.00000  Uiso   1.00
H279   H     0.63310   0.45411   0.49197   0.00000  Uiso   1.00
H280   H     0.47261   0.51669   0.08970   0.00000  Uiso   1.00
H281   H     0.38383   0.51653   0.41510   0.00000  Uiso   1.00
H282   H     0.41582   0.51216   0.05774   0.00000  Uiso   1.00
H283   H     0.35881   0.52377   0.00994   0.00000  Uiso   1.00
H284   H     0.54416   0.45031   0.37242   0.00000  Uiso   1.00
N285   N     0.38265   0.49999   0.24998   0.00000  Uiso   1.00
N286   N     0.61735   0.50002   0.24999   0.00000  Uiso   1.00
O287   O     0.46042   0.56011   0.25000   0.00000  Uiso   1.00
O288   O     0.53961   0.56012   0.25000   0.00000  Uiso   1.00
O289   O     0.44108   0.49998   0.32549   0.00000  Uiso   1.00
O290   O     0.52027   0.49999   0.32549   0.00000  Uiso   1.00
O291   O     0.46039   0.43988   0.24999   0.00000  Uiso   1.00
O292   O     0.53958   0.43989   0.24999   0.00000  Uiso   1.00
O293   O     0.47973   0.50001   0.17451   0.00000  Uiso   1.00
O294   O     0.55892   0.50002   0.17451   0.00000  Uiso   1.00
C295   C     0.35759   0.54956   0.32691   0.00000  Uiso   1.00
H296   H     0.39403   0.55905   0.32432   0.00000  Uiso   1.00
O297   O     0.65787   0.56183   0.36496   0.00000  Uiso   1.00
C298   C     0.59092   0.62564   0.18581   0.00000  Uiso   1.00
H299   H     0.62586   0.64052   0.18110   0.00000  Uiso   1.00
O300   O     0.59021   0.59405   0.16085   0.00000  Uiso   1.00
C301   C     0.83398   0.57920   0.24761   0.00000  Uiso   1.00
C302   C     0.81161   0.49416   0.48970   0.00000  Uiso   1.00
C303   C     0.82424   0.48468   0.43551   0.00000  Uiso   1.00
C304   C     0.84802   0.48946   0.01540   0.00000  Uiso   1.00
C305   C     0.89457   0.47203   0.48799   0.00000  Uiso   1.00
C306   C     0.90399   0.45839   0.43659   0.00000  Uiso   1.00
C307   C     0.86910   0.46385   0.41106   0.00000  Uiso   1.00
C308   C     0.83974   0.50177   0.06755   0.00000  Uiso   1.00
C309   C     0.92086   0.47832   0.06525   0.00000  Uiso   1.00
C310   C     0.79122   0.49576   0.40759   0.00000  Uiso   1.00
C311   C     0.87828   0.64555   0.21912   0.00000  Uiso   1.00
C312   C     0.80709   0.49775   0.35007   0.00000  Uiso   1.00
C313   C     0.87764   0.35507   0.22323   0.00000  Uiso   1.00
C314   C     0.83401   0.37622   0.24864   0.00000  Uiso   1.00
C315   C     0.79065   0.35482   0.27101   0.00000  Uiso   1.00
C316   C     0.79114   0.64552   0.26939   0.00000  Uiso   1.00
C317   C     0.83474   0.62388   0.24441   0.00000  Uiso   1.00
C318   C     0.96413   0.52293   0.28566   0.00000  Uiso   1.00
C319   C     0.68014   0.52323   0.28629   0.00000  Uiso   1.00
C320   C     0.70189   0.47684   0.21431   0.00000  Uiso   1.00
C321   C     0.98569   0.47686   0.21433   0.00000  Uiso   1.00
C322   C     0.83344   0.42077   0.24997   0.00000  Uiso   1.00
C323   C     0.85967   0.49952   0.14994   0.00000  Uiso   1.00
C324   C     0.93083   0.46735   0.01279   0.00000  Uiso   1.00
C325   C     0.87474   0.49460   0.09307   0.00000  Uiso   1.00
C326   C     0.74345   0.50897   0.43522   0.00000  Uiso   1.00
C327   C     0.72922   0.51377   0.48907   0.00000  Uiso   1.00
C328   C     0.76290   0.50740   0.01608   0.00000  Uiso   1.00
Cu329  Cu    0.78645   0.49999   0.25000   0.00000  Uiso   1.00
Cu330  Cu    0.88022   0.50001   0.25000   0.00000  Uiso   1.00
H331   H     0.94840   0.47262   0.08445   0.00000  Uiso   1.00
H332   H     0.91067   0.37215   0.20440   0.00000  Uiso   1.00
H333   H     0.75667   0.37105   0.29068   0.00000  Uiso   1.00
H334   H     0.75752   0.62945   0.28861   0.00000  Uiso   1.00
H335   H     0.93628   0.54138   0.31351   0.00000  Uiso   1.00
H336   H     0.72882   0.45819   0.18573   0.00000  Uiso   1.00
H337   H     0.97542   0.45827   0.18573   0.00000  Uiso   1.00
H338   H     0.93850   0.44324   0.41598   0.00000  Uiso   1.00
H339   H     0.96643   0.45411   0.49197   0.00000  Uiso   1.00
H340   H     0.80594   0.51669   0.08970   0.00000  Uiso   1.00
H341   H     0.71717   0.51653   0.41510   0.00000  Uiso   1.00
H342   H     0.74915   0.51216   0.05774   0.00000  Uiso   1.00
H343   H     0.69214   0.52377   0.00994   0.00000  Uiso   1.00
H344   H     0.87750   0.45031   0.37242   0.00000  Uiso   1.00
N345   N     0.71598   0.49999   0.24998   0.00000  Uiso   1.00
N346   N     0.95069   0.50002   0.24999   0.00000  Uiso   1.00
O347   O     0.79375   0.56011   0.25000   0.00000  Uiso   1.00
O348   O     0.87294   0.56012   0.25000   0.00000  Uiso   1.00
O349   O     0.77441   0.49998   0.32549   0.00000  Uiso   1.00
O350   O     0.85360   0.49999   0.32549   0.00000  Uiso   1.00
O351   O     0.79373   0.43988   0.24999   0.00000  Uiso   1.00
O352   O     0.87292   0.43989   0.24999   0.00000  Uiso   1.00
O353   O     0.81306   0.50001   0.17451   0.00000  Uiso   1.00
O354   O     0.89225   0.50002   0.17451   0.00000  Uiso   1.00
C355   C     0.69092   0.54956   0.32691   0.00000  Uiso   1.00
H356   H     0.72736   0.55905   0.32432   0.00000  Uiso   1.00
O357   O     0.99121   0.56183   0.36496   0.00000  Uiso   1.00
C358   C     0.92425   0.62564   0.18581   0.00000  Uiso   1.00
H359   H     0.95919   0.64052   0.18110   0.00000  Uiso   1.00
O360   O     0.92354   0.59405   0.16085   0.00000  Uiso   1.00
C361   C     0.16731   0.91253   0.24761   0.00000  Uiso   1.00
C362   C     0.14495   0.82749   0.48970   0.00000  Uiso   1.00
C363   C     0.15758   0.81801   0.43551   0.00000  Uiso   1.00
C364   C     0.18136   0.82279   0.01540   0.00000  Uiso   1.00
C365   C     0.22790   0.80536   0.48799   0.00000  Uiso   1.00
C366   C     0.23732   0.79172   0.43659   0.00000  Uiso   1.00
C367   C     0.20243   0.79718   0.41106   0.00000  Uiso   1.00
C368   C     0.17307   0.83511   0.06755   0.00000  Uiso   1.00
C369   C     0.25419   0.81166   0.06525   0.00000  Uiso   1.00
C370   C     0.12455   0.82910   0.40759   0.00000  Uiso   1.00
C371   C     0.21162   0.97889   0.21912   0.00000  Uiso   1.00
C372   C     0.14043   0.83108   0.35007   0.00000  Uiso   1.00
C373   C     0.21097   0.68840   0.22323   0.00000  Uiso   1.00
C374   C     0.16734   0.70955   0.24864   0.00000  Uiso   1.00
C375   C     0.12398   0.68815   0.27101   0.00000  Uiso   1.00
C376   C     0.12447   0.97885   0.26939   0.00000  Uiso   1.00
C377   C     0.16808   0.95721   0.24441   0.00000  Uiso   1.00
C378   C     0.29746   0.85626   0.28566   0.00000  Uiso   1.00
C379   C     0.01348   0.85657   0.28629   0.00000  Uiso   1.00
C380   C     0.03523   0.81017   0.21431   0.00000  Uiso   1.00
C381   C     0.31902   0.81020   0.21433   0.00000  Uiso   1.00
C382   C     0.16677   0.75410   0.24997   0.00000  Uiso   1.00
C383   C     0.19300   0.83285   0.14994   0.00000  Uiso   1.00
C384   C     0.26417   0.80068   0.01279   0.00000  Uiso   1.00
C385   C     0.20808   0.82793   0.09307   0.00000  Uiso   1.00
C386   C     0.07678   0.84230   0.43522   0.00000  Uiso   1.00
C387   C     0.06255   0.84711   0.48907   0.00000  Uiso   1.00
C388   C     0.09624   0.84074   0.01608   0.00000  Uiso   1.00
Cu389  Cu    0.11978   0.83333   0.25000   0.00000  Uiso   1.00
Cu390  Cu    0.21355   0.83334   0.25000   0.00000  Uiso   1.00
H391   H     0.28173   0.80595   0.08445   0.00000  Uiso   1.00
H392   H     0.24400   0.70548   0.20440   0.00000  Uiso   1.00
H393   H     0.09000   0.70438   0.29068   0.00000  Uiso   1.00
H394   H     0.09085   0.96279   0.28861   0.00000  Uiso   1.00
H395   H     0.26962   0.87472   0.31351   0.00000  Uiso   1.00
H396   H     0.06216   0.79153   0.18573   0.00000  Uiso   1.00
H397   H     0.30876   0.79161   0.18573   0.00000  Uiso   1.00
H398   H     0.27183   0.77658   0.41598   0.00000  Uiso   1.00
H399   H     0.29976   0.78744   0.49197   0.00000  Uiso   1.00
H400   H     0.13928   0.85003   0.08970   0.00000  Uiso   1.00
H401   H     0.05050   0.84986   0.41510   0.00000  Uiso   1.00
H402   H     0.08249   0.84549   0.05774   0.00000  Uiso   1.00
H403   H     0.02547   0.85710   0.00994   0.00000  Uiso   1.00
H404   H     0.21083   0.78364   0.37242   0.00000  Uiso   1.00
N405   N     0.04931   0.83332   0.24998   0.00000  Uiso   1.00
N406   N     0.28402   0.83335   0.24999   0.00000  Uiso   1.00
O407   O     0.12708   0.89345   0.25000   0.00000  Uiso   1.00
O408   O     0.20627   0.89346   0.25000   0.00000  Uiso   1.00
O409   O     0.10775   0.83332   0.32549   0.00000  Uiso   1.00
O410   O     0.18694   0.83333   0.32549   0.00000  Uiso   1.00
O411   O     0.12706   0.77321   0.24999   0.00000  Uiso   1.00
O412   O     0.20625   0.77322   0.24999   0.00000  Uiso   1.00
O413   O     0.14640   0.83334   0.17451   0.00000  Uiso   1.00
O414   O     0.22559   0.83335   0.17451   0.00000  Uiso   1.00
C415   C     0.02425   0.88289   0.32691   0.00000  Uiso   1.00
H416   H     0.06069   0.89238   0.32432   0.00000  Uiso   1.00
O417   O     0.32454   0.89517   0.36496   0.00000  Uiso   1.00
C418   C     0.25758   0.95898   0.18581   0.00000  Uiso   1.00
H419   H     0.29252   0.97386   0.18110   0.00000  Uiso   1.00
O420   O     0.25688   0.92739   0.16085   0.00000  Uiso   1.00
C421   C     0.50064   0.91253   0.24761   0.00000  Uiso   1.00
C422   C     0.47828   0.82749   0.48970   0.00000  Uiso   1.00
C423   C     0.49091   0.81801   0.43551   0.00000  Uiso   1.00
C424   C     0.51469   0.82279   0.01540   0.00000  Uiso   1.00
C425   C     0.56124   0.80536   0.48799   0.00000  Uiso   1.00
C426   C     0.57066   0.79172   0.43659   0.00000  Uiso   1.00
C427   C     0.53576   0.79718   0.41106   0.00000  Uiso   1.00
C428   C     0.50640   0.83511   0.06755   0.00000  Uiso   1.00
C429   C     0.58752   0.81166   0.06525   0.00000  Uiso   1.00
C430   C     0.45789   0.82910   0.40759   0.00000  Uiso   1.00
C431   C     0.54495   0.97889   0.21912   0.00000  Uiso   1.00
C432   C     0.47376   0.83108   0.35007   0.00000  Uiso   1.00
C433   C     0.54430   0.68840   0.22323   0.00000  Uiso   1.00
C434   C     0.50067   0.70955   0.24864   0.00000  Uiso   1.00
C435   C     0.45732   0.68815   0.27101   0.00000  Uiso   1.00
C436   C     0.45781   0.97885   0.26939   0.00000  Uiso   1.00
C437   C     0.50141   0.95721   0.24441   0.00000  Uiso   1.00
C438   C     0.63080   0.85626   0.28566   0.00000  Uiso   1.00
C439   C     0.34681   0.85657   0.28629   0.00000  Uiso   1.00
C440   C     0.36856   0.81017   0.21431   0.00000  Uiso   1.00
C441   C     0.65235   0.81020   0.21433   0.00000  Uiso   1.00
C442   C     0.50010   0.75410   0.24997   0.00000  Uiso   1.00
C443   C     0.52633   0.83285   0.14994   0.00000  Uiso   1.00
C444   C     0.59750   0.80068   0.01279   0.00000  Uiso   1.00
C445   C     0.54141   0.82793   0.09307   0.00000  Uiso   1.00
C446   C     0.41012   0.84230   0.43522   0.00000  Uiso   1.00
C447   C     0.39589   0.84711   0.48907   0.00000  Uiso   1.00
C448   C     0.42957   0.84074   0.01608   0.00000  Uiso   1.00
Cu449  Cu    0.45311   0.83333   0.25000   0.00000  Uiso   1.00
Cu450  Cu    0.54689   0.83334   0.25000   0.00000  Uiso   1.00
H451   H     0.61506   0.80595   0.08445   0.00000  Uiso   1.00
H452   H     0.57733   0.70548   0.20440   0.00000  Uiso   1.00
H453   H     0.42333   0.70438   0.29068   0.00000  Uiso   1.00
H454   H     0.42418   0.96279   0.28861   0.00000  Uiso   1.00
H455   H     0.60295   0.87472   0.31351   0.00000  Uiso   1.00
H456   H     0.39549   0.79153   0.18573   0.00000  Uiso   1.00
H457   H     0.64209   0.79161   0.18573   0.00000  Uiso   1.00
H458   H     0.60516   0.77658   0.41598   0.00000  Uiso   1.00
H459   H     0.63310   0.78744   0.49197   0.00000  Uiso   1.00
H460   H     0.47261   0.85003   0.08970   0.00000  Uiso   1.00
H461   H     0.38383   0.84986   0.41510   0.00000  Uiso   1.00
H462   H     0.41582   0.84549   0.05774   0.00000  Uiso   1.00
H463   H     0.35881   0.85710   0.00994   0.00000  Uiso   1.00
H464   H     0.54416   0.78364   0.37242   0.00000  Uiso   1.00
N465   N     0.38265   0.83332   0.24998   0.00000  Uiso   1.00
N466   N     0.61735   0.83335   0.24999   0.00000  Uiso   1.00
O467   O     0.46042   0.89345   0.25000   0.00000  Uiso   1.00
O468   O     0.53961   0.89346   0.25000   0.00000  Uiso   1.00
O469   O     0.44108   0.83332   0.32549   0.00000  Uiso   1.00
O470   O     0.52027   0.83333   0.32549   0.00000  Uiso   1.00
O471   O     0.46039   0.77321   0.24999   0.00000  Uiso   1.00
O472   O     0.53958   0.77322   0.24999   0.00000  Uiso   1.00
O473   O     0.47973   0.83334   0.17451   0.00000  Uiso   1.00
O474   O     0.55892   0.83335   0.17451   0.00000  Uiso   1.00
C475   C     0.35759   0.88289   0.32691   0.00000  Uiso   1.00
H476   H     0.39403   0.89238   0.32432   0.00000  Uiso   1.00
O477   O     0.65787   0.89517   0.36496   0.00000  Uiso   1.00
C478   C     0.59092   0.95898   0.18581   0.00000  Uiso   1.00
H479   H     0.62586   0.97386   0.18110   0.00000  Uiso   1.00
O480   O     0.59021   0.92739   0.16085   0.00000  Uiso   1.00
C481   C     0.83398   0.91253   0.24761   0.00000  Uiso   1.00
C482   C     0.81161   0.82749   0.48970   0.00000  Uiso   1.00
C483   C     0.82424   0.81801   0.43551   0.00000  Uiso   1.00
C484   C     0.84802   0.82279   0.01540   0.00000  Uiso   1.00
C485   C     0.89457   0.80536   0.48799   0.00000  Uiso   1.00
C486   C     0.90399   0.79172   0.43659   0.00000  Uiso   1.00
C487   C     0.86910   0.79718   0.41106   0.00000  Uiso   1.00
C488   C     0.83974   0.83511   0.06755   0.00000  Uiso   1.00
C489   C     0.92086   0.81166   0.06525   0.00000  Uiso   1.00
C490   C     0.79122   0.82910   0.40759   0.00000  Uiso   1.00
C491   C     0.87828   0.97889   0.21912   0.00000  Uiso   1.00
C492   C     0.80709   0.83108   0.35007   0.00000  Uiso   1.00
C493   C     0.87764   0.68840   0.22323   0.00000  Uiso   1.00
C494   C     0.83401   0.70955   0.24864   0.00000  Uiso   1.00
C495   C     0.79065   0.68815   0.27101   0.00000  Uiso   1.00
C496   C     0.79114   0.97885   0.26939   0.00000  Uiso   1.00
C497   C     0.83474   0.95721   0.24441   0.00000  Uiso   1.00
C498   C     0.96413   0.85626   0.28566   0.00000  Uiso   1.00
C499   C     0.68014   0.85657   0.28629   0.00000  Uiso   1.00
C500   C     0.70189   0.81017   0.21431   0.00000  Uiso   1.00
C501   C     0.98569   0.81020   0.21433   0.00000  Uiso   1.00
C502   C     0.83344   0.75410   0.24997   0.00000  Uiso   1.00
C503   C     0.85967   0.83285   0.14994   0.00000  Uiso   1.00
C504   C     0.93083   0.80068   0.01279   0.00000  Uiso   1.00
C505   C     0.87474   0.82793   0.09307   0.00000  Uiso   1.00
C506   C     0.74345   0.84230   0.43522   0.00000  Uiso   1.00
C507   C     0.72922   0.84711   0.48907   0.00000  Uiso   1.00
C508   C     0.76290   0.84074   0.01608   0.00000  Uiso   1.00
Cu509  Cu    0.78645   0.83333   0.25000   0.00000  Uiso   1.00
Cu510  Cu    0.88022   0.83334   0.25000   0.00000  Uiso   1.00
H511   H     0.94840   0.80595   0.08445   0.00000  Uiso   1.00
H512   H     0.91067   0.70548   0.20440   0.00000  Uiso   1.00
H513   H     0.75667   0.70438   0.29068   0.00000  Uiso   1.00
H514   H     0.75752   0.96279   0.28861   0.00000  Uiso   1.00
H515   H     0.93628   0.87472   0.31351   0.00000  Uiso   1.00
H516   H     0.72882   0.79153   0.18573   0.00000  Uiso   1.00
H517   H     0.97542   0.79161   0.18573   0.00000  Uiso   1.00
H518   H     0.93850   0.77658   0.41598   0.00000  Uiso   1.00
H519   H     0.96643   0.78744   0.49197   0.00000  Uiso   1.00
H520   H     0.80594   0.85003   0.08970   0.00000  Uiso   1.00
H521   H     0.71717   0.84986   0.41510   0.00000  Uiso   1.00
H522   H     0.74915   0.84549   0.05774   0.00000  Uiso   1.00
H523   H     0.69214   0.85710   0.00994   0.00000  Uiso   1.00
H524   H     0.87750   0.78364   0.37242   0.00000  Uiso   1.00
N525   N     0.71598   0.83332   0.24998   0.00000  Uiso   1.00
N526   N     0.95069   0.83335   0.24999   0.00000  Uiso   1.00
O527   O     0.79375   0.89345   0.25000   0.00000  Uiso   1.00
O528   O     0.87294   0.89346   0.25000   0.00000  Uiso   1.00
O529   O     0.77441   0.83332   0.32549   0.00000  Uiso   1.00
O530   O     0.85360   0.83333   0.32549   0.00000  Uiso   1.00
O531   O     0.79373   0.77321   0.24999   0.00000  Uiso   1.00
O532   O     0.87292   0.77322   0.24999   0.00000  Uiso   1.00
O533   O     0.81306   0.83334   0.17451   0.00000  Uiso   1.00
O534   O     0.89225   0.83335   0.17451   0.00000  Uiso   1.00
C535   C     0.69092   0.88289   0.32691   0.00000  Uiso   1.00
H536   H     0.72736   0.89238   0.32432   0.00000  Uiso   1.00
O537   O     0.99121   0.89517   0.36496   0.00000  Uiso   1.00
C538   C     0.92425   0.95898   0.18581   0.00000  Uiso   1.00
H539   H     0.95919   0.97386   0.18110   0.00000  Uiso   1.00
O540   O     0.92354   0.92739   0.16085   0.00000  Uiso   1.00
C541   C     0.16731   0.24586   0.74761   0.00000  Uiso   1.00
C542   C     0.14495   0.16083   0.98970   0.00000  Uiso   1.00
C543   C     0.15758   0.15135   0.93551   0.00000  Uiso   1.00
C544   C     0.18136   0.15612   0.51540   0.00000  Uiso   1.00
C545   C     0.22790   0.13870   0.98799   0.00000  Uiso   1.00
C546   C     0.23732   0.12506   0.93659   0.00000  Uiso   1.00
C547   C     0.20243   0.13051   0.91106   0.00000  Uiso   1.00
C548   C     0.17307   0.16844   0.56755   0.00000  Uiso   1.00
C549   C     0.25419   0.14499   0.56525   0.00000  Uiso   1.00
C550   C     0.12455   0.16243   0.90759   0.00000  Uiso   1.00
C551   C     0.21162   0.31222   0.71912   0.00000  Uiso   1.00
C552   C     0.14043   0.16441   0.85007   0.00000  Uiso   1.00
C553   C     0.21097   0.02174   0.72323   0.00000  Uiso   1.00
C554   C     0.16734   0.04289   0.74864   0.00000  Uiso   1.00
C555   C     0.12398   0.02149   0.77101   0.00000  Uiso   1.00
C556   C     0.12447   0.31219   0.76939   0.00000  Uiso   1.00
C557   C     0.16808   0.29054   0.74441   0.00000  Uiso   1.00
C558   C     0.29746   0.18959   0.78566   0.00000  Uiso   1.00
C559   C     0.01348   0.18990   0.78629   0.00000  Uiso   1.00
C560   C     0.03523   0.14351   0.71431   0.00000  Uiso   1.00
C561   C     0.31902   0.14353   0.71433   0.00000  Uiso   1.00
C562   C     0.16677   0.08744   0.74997   0.00000  Uiso   1.00
C563   C     0.19300   0.16619   0.64994   0.00000  Uiso   1.00
C564   C     0.26417   0.13401   0.51279   0.00000  Uiso   1.00
C565   C     0.20808   0.16127   0.59307   0.00000  Uiso   1.00
C566   C     0.07678   0.17564   0.93522   0.00000  Uiso   1.00
C567   C     0.06255   0.18044   0.98907   0.00000  Uiso   1.00
C568   C     0.09624   0.17407   0.51608   0.00000  Uiso   1.00
Cu569  Cu    0.11978   0.16666   0.75000   0.00000  Uiso   1.00
Cu570  Cu    0.21355   0.16667   0.75000   0.00000  Uiso   1.00
H571   H     0.28173   0.13928   0.58445   0.00000  Uiso   1.00
H572   H     0.24400   0.03881   0.70440   0.00000  Uiso   1.00
H573   H     0.09000   0.03772   0.79068   0.00000  Uiso   1.00
H574   H     0.09085   0.29612   0.78861   0.00000  Uiso   1.00
H575   H     0.26962   0.20805   0.81351   0.00000  Uiso   1.00
H576   H     0.06216   0.12486   0.68573   0.00000  Uiso   1.00
H577   H     0.30876   0.12494   0.68573   0.00000  Uiso   1.00
H578   H     0.27183   0.10991   0.91598   0.00000  Uiso   1.00
H579   H     0.29976   0.12077   0.99197   0.00000  Uiso   1.00
H580   H     0.13928   0.18336   0.58970   0.00000  Uiso   1.00
H581   H     0.05050   0.18319   0.91510   0.00000  Uiso   1.00
H582   H     0.08249   0.17883   0.55774   0.00000  Uiso   1.00
H583   H     0.02547   0.19043   0.50994   0.00000  Uiso   1.00
H584   H     0.21083   0.11698   0.87242   0.00000  Uiso   1.00
N585   N     0.04931   0.16666   0.74998   0.00000  Uiso   1.00
N586   N     0.28402   0.16669   0.74999   0.00000  Uiso   1.00
O587   O     0.12708   0.22678   0.75000   0.00000  Uiso   1.00
O588   O     0.20627   0.22679   0.75000   0.00000  Uiso   1.00
O589   O     0.10775   0.16665   0.82549   0.00000  Uiso   1.00
O590   O     0.18694   0.16666   0.82549   0.00000  Uiso   1.00
O591   O     0.12706   0.10654   0.74999   0.00000  Uiso   1.00
O592   O     0.20625   0.10655   0.74999   0.00000  Uiso   1.00
O593   O     0.14640   0.16667   0.67451   0.00000  Uiso   1.00
O594   O     0.22559   0.16668   0.67451   0.00000  Uiso   1.00
C595   C     0.02425   0.21623   0.82691   0.00000  Uiso   1.00
H596   H     0.06069   0.22571   0.82432   0.00000  Uiso   1.00
O597   O     0.32454   0.22850   0.86496   0.00000  Uiso   1.00
C598   C     0.25758   0.29231   0.68581   0.00000  Uiso   1.00
H599   H     0.29252   0.30719   0.68110   0.00000  Uiso   1.00
O600   O     0.25688   0.26072   0.66085   0.00000  Uiso   1.00
C601   C     0.50064   0.24586   0.74761   0.00000  Uiso   1.00
C602   C     0.47828   0.16083   0.98970   0.00000  Uiso   1.00
C603   C     0.49091   0.15135   0.93551   0.00000  Uiso   1.00
C604   C     0.51469   0.15612   0.51540   0.00000  Uiso   1.00
C605   C     0.56124   0.13870   0.98799   0.00000  Uiso   1.00
C606   C     0.57066   0.12506   0.93659   0.00000  Uiso   1.00
C607   C     0.53576   0.13051   0.91106   0.00000  Uiso   1.00
C608   C     0.50640   0.16844   0.56755   0.00000  Uiso   1.00
C609   C     0.58752   0.14499   0.56525   0.00000  Uiso   1.00
C610   C     0.45789   0.16243   0.90759   0.00000  Uiso   1.00
C611   C     0.54495   0.31222   0.71912   0.00000  Uiso   1.00
C612   C     0.47376   0.16441   0.85007   0.00000  Uiso   1.00
C613   C     0.54430   0.02174   0.72323   0.00000  Uiso   1.00
C614   C     0.50067   0.04289   0.74864   0.00000  Uiso   1.00
C615   C     0.45732   0.02149   0.77101   0.00000  Uiso   1.00
C616   C     0.45781   0.31219   0.76939   0.00000  Uiso   1.00
C617   C     0.50141   0.29054   0.74441   0.00000  Uiso   1.00
C618   C     0.63080   0.18959   0.78566   0.00000  Uiso   1.00
C619   C     0.34681   0.18990   0.78629   0.00000  Uiso   1.00
C620   C     0.36856   0.14351   0.71431   0.00000  Uiso   1.00
C621   C     0.65235   0.14353   0.71433   0.00000  Uiso   1.00
C622   C     0.50010   0.08744   0.74997   0.00000  Uiso   1.00
C623   C     0.52633   0.16619   0.64994   0.00000  Uiso   1.00
C624   C     0.59750   0.13401   0.51279   0.00000  Uiso   1.00
C625   C     0.54141   0.16127   0.59307   0.00000  Uiso   1.00
C626   C     0.41012   0.17564   0.93522   0.00000  Uiso   1.00
C627   C     0.39589   0.18044   0.98907   0.00000  Uiso   1.00
C628   C     0.42957   0.17407   0.51608   0.00000  Uiso   1.00
Cu629  Cu    0.45311   0.16666   0.75000   0.00000  Uiso   1.00
Cu630  Cu    0.54689   0.16667   0.75000   0.00000  Uiso   1.00
H631   H     0.61506   0.13928   0.58445   0.00000  Uiso   1.00
H632   H     0.57733   0.03881   0.70440   0.00000  Uiso   1.00
H633   H     0.42333   0.03772   0.79068   0.00000  Uiso   1.00
H634   H     0.42418   0.29612   0.78861   0.00000  Uiso   1.00
H635   H     0.60295   0.20805   0.81351   0.00000  Uiso   1.00
H636   H     0.39549   0.12486   0.68573   0.00000  Uiso   1.00
H637   H     0.64209   0.12494   0.68573   0.00000  Uiso   1.00
H638   H     0.60516   0.10991   0.91598   0.00000  Uiso   1.00
H639   H     0.63310   0.12077   0.99197   0.00000  Uiso   1.00
H640   H     0.47261   0.18336   0.58970   0.00000  Uiso   1.00
H641   H     0.38383   0.18319   0.91510   0.00000  Uiso   1.00
H642   H     0.41582   0.17883   0.55774   0.00000  Uiso   1.00
H643   H     0.35881   0.19043   0.50994   0.00000  Uiso   1.00
H644   H     0.54416   0.11698   0.87242   0.00000  Uiso   1.00
N645   N     0.38265   0.16666   0.74998   0.00000  Uiso   1.00
N646   N     0.61735   0.16669   0.74999   0.00000  Uiso   1.00
O647   O     0.46042   0.22678   0.75000   0.00000  Uiso   1.00
O648   O     0.53961   0.22679   0.75000   0.00000  Uiso   1.00
O649   O     0.44108   0.16665   0.82549   0.00000  Uiso   1.00
O650   O     0.52027   0.16666   0.82549   0.00000  Uiso   1.00
O651   O     0.46039   0.10654   0.74999   0.00000  Uiso   1.00
O652   O     0.53958   0.10655   0.74999   0.00000  Uiso   1.00
O653   O     0.47973   0.16667   0.67451   0.00000  Uiso   1.00
O654   O     0.55892   0.16668   0.67451   0.00000  Uiso   1.00
C655   C     0.35759   0.21623   0.82691   0.00000  Uiso   1.00
H656   H     0.39403   0.22571   0.82432   0.00000  Uiso   1.00
O657   O     0.65787   0.22850   0.86496   0.00000  Uiso   1.00
C658   C     0.59092   0.29231   0.68581   0.00000  Uiso   1.00
H659   H     0.62586   0.30719   0.68110   0.00000  Uiso   1.00
O660   O     0.59021   0.26072   0.66085   0.00000  Uiso   1.00
C661   C     0.83398   0.24586   0.74761   0.00000  Uiso   1.00
C662   C     0.81161   0.16083   0.98970   0.00000  Uiso   1.00
C663   C     0.82424   0.15135   0.93551   0.00000  Uiso   1.00
C664   C     0.84802   0.15612   0.51540   0.00000  Uiso   1.00
C665   C     0.89457   0.13870   0.98799   0.00000  Uiso   1.00
C666   C     0.90399   0.12506   0.93659   0.00000  Uiso   1.00
C667   C     0.86910   0.13051   0.91106   0.00000  Uiso   1.00
C668   C     0.83974   0.16844   0.56755   0.00000  Uiso   1.00
C669   C     0.92086   0.14499   0.56525   0.00000  Uiso   1.00
C670   C     0.79122   0.16243   0.90759   0.00000  Uiso   1.00
C671   C     0.87828   0.31222   0.71912   0.00000  Uiso   1.00
C672   C     0.80709   0.16441   0.85007   0.00000  Uiso   1.00
C673   C     0.87764   0.02174   0.72323   0.00000  Uiso   1.00
C674   C     0.83401   0.04289   0.74864   0.00000  Uiso   1.00
C675   C     0.79065   0.02149   0.77101   0.00000  Uiso   1.00
C676   C     0.79114   0.31219   0.76939   0.00000  Uiso   1.00
C677   C     0.83474   0.29054   0.74441   0.00000  Uiso   1.00
C678   C     0.96413   0.18959   0.78566   0.00000  Uiso   1.00
C679   C     0.68014   0.18990   0.78629   0.00000  Uiso   1.00
C680   C     0.70189   0.14351   0.71431   0.00000  Uiso   1.00
C681   C     0.98569   0.14353   0.71433   0.00000  Uiso   1.00
C682   C     0.83344   0.08744   0.74997   0.00000  Uiso   1.00
C683   C     0.85967   0.16619   0.64994   0.00000  Uiso   1.00
C684   C     0.93083   0.13401   0.51279   0.00000  Uiso   1.00
C685   C     0.87474   0.16127   0.59307   0.00000  Uiso   1.00
C686   C     0.74345   0.17564   0.93522   0.00000  Uiso   1.00
C687   C     0.72922   0.18044   0.98907   0.00000  Uiso   1.00
C688   C     0.76290   0.17407   0.51608   0.00000  Uiso   1.00
Cu689  Cu    0.78645   0.16666   0.75000   0.00000  Uiso   1.00
Cu690  Cu    0.88022   0.16667   0.75000   0.00000  Uiso   1.00
H691   H     0.94840   0.13928   0.58445   0.00000  Uiso   1.00
H692   H     0.91067   0.03881   0.70440   0.00000  Uiso   1.00
H693   H     0.75667   0.03772   0.79068   0.00000  Uiso   1.00
H694   H     0.75752   0.29612   0.78861   0.00000  Uiso   1.00
H695   H     0.93628   0.20805   0.81351   0.00000  Uiso   1.00
H696   H     0.72882   0.12486   0.68573   0.00000  Uiso   1.00
H697   H     0.97542   0.12494   0.68573   0.00000  Uiso   1.00
H698   H     0.93850   0.10991   0.91598   0.00000  Uiso   1.00
H699   H     0.96643   0.12077   0.99197   0.00000  Uiso   1.00
H700   H     0.80594   0.18336   0.58970   0.00000  Uiso   1.00
H701   H     0.71717   0.18319   0.91510   0.00000  Uiso   1.00
H702   H     0.74915   0.17883   0.55774   0.00000  Uiso   1.00
H703   H     0.69214   0.19043   0.50994   0.00000  Uiso   1.00
H704   H     0.87750   0.11698   0.87242   0.00000  Uiso   1.00
N705   N     0.71598   0.16666   0.74998   0.00000  Uiso   1.00
N706   N     0.95069   0.16669   0.74999   0.00000  Uiso   1.00
O707   O     0.79375   0.22678   0.75000   0.00000  Uiso   1.00
O708   O     0.87294   0.22679   0.75000   0.00000  Uiso   1.00
O709   O     0.77441   0.16665   0.82549   0.00000  Uiso   1.00
O710   O     0.85360   0.16666   0.82549   0.00000  Uiso   1.00
O711   O     0.79373   0.10654   0.74999   0.00000  Uiso   1.00
O712   O     0.87292   0.10655   0.74999   0.00000  Uiso   1.00
O713   O     0.81306   0.16667   0.67451   0.00000  Uiso   1.00
O714   O     0.89225   0.16668   0.67451   0.00000  Uiso   1.00
C715   C     0.69092   0.21623   0.82691   0.00000  Uiso   1.00
H716   H     0.72736   0.22571   0.82432   0.00000  Uiso   1.00
O717   O     0.99121   0.22850   0.86496   0.00000  Uiso   1.00
C718   C     0.92425   0.29231   0.68581   0.00000  Uiso   1.00
H719   H     0.95919   0.30719   0.68110   0.00000  Uiso   1.00
O720   O     0.92354   0.26072   0.66085   0.00000  Uiso   1.00
C721   C     0.16731   0.57920   0.74761   0.00000  Uiso   1.00
C722   C     0.14495   0.49416   0.98970   0.00000  Uiso   1.00
C723   C     0.15758   0.48468   0.93551   0.00000  Uiso   1.00
C724   C     0.18136   0.48946   0.51540   0.00000  Uiso   1.00
C725   C     0.22790   0.47203   0.98799   0.00000  Uiso   1.00
C726   C     0.23732   0.45839   0.93659   0.00000  Uiso   1.00
C727   C     0.20243   0.46385   0.91106   0.00000  Uiso   1.00
C728   C     0.17307   0.50177   0.56755   0.00000  Uiso   1.00
C729   C     0.25419   0.47832   0.56525   0.00000  Uiso   1.00
C730   C     0.12455   0.49576   0.90759   0.00000  Uiso   1.00
C731   C     0.21162   0.64555   0.71912   0.00000  Uiso   1.00
C732   C     0.14043   0.49775   0.85007   0.00000  Uiso   1.00
C733   C     0.21097   0.35507   0.72323   0.00000  Uiso   1.00
C734   C     0.16734   0.37622   0.74864   0.00000  Uiso   1.00
C735   C     0.12398   0.35482   0.77101   0.00000  Uiso   1.00
C736   C     0.12447   0.64552   0.76939   0.00000  Uiso   1.00
C737   C     0.16808   0.62388   0.74441   0.00000  Uiso   1.00
C738   C     0.29746   0.52293   0.78566   0.00000  Uiso   1.00
C739   C     0.01348   0.52323   0.78629   0.00000  Uiso   1.00
C740   C     0.03523   0.47684   0.71431   0.00000  Uiso   1.00
C741   C     0.31902   0.47686   0.71433   0.00000  Uiso   1.00
C742   C     0.16677   0.42077   0.74997   0.00000  Uiso   1.00
C743   C     0.19300   0.49952   0.64994   0.00000  Uiso   1.00
C744   C     0.26417   0.46735   0.51279   0.00000  Uiso   1.00
C745   C     0.20808   0.49460   0.59307   0.00000  Uiso   1.00
C746   C     0.07678   0.50897   0.93522   0.00000  Uiso   1.00
C747   C     0.06255   0.51377   0.98907   0.00000  Uiso   1.00
C748   C     0.09624   0.50740   0.51608   0.00000  Uiso   1.00
Cu749  Cu    0.11978   0.49999   0.75000   0.00000  Uiso   1.00
Cu750  Cu    0.21355   0.50001   0.75000   0.00000  Uiso   1.00
H751   H     0.28173   0.47262   0.58445   0.00000  Uiso   1.00
H752   H     0.24400   0.37215   0.70440   0.00000  Uiso   1.00
H753   H     0.09000   0.37105   0.79068   0.00000  Uiso   1.00
H754   H     0.09085   0.62945   0.78861   0.00000  Uiso   1.00
H755   H     0.26962   0.54138   0.81351   0.00000  Uiso   1.00
H756   H     0.06216   0.45819   0.68573   0.00000  Uiso   1.00
H757   H     0.30876   0.45827   0.68573   0.00000  Uiso   1.00
H758   H     0.27183   0.44324   0.91598   0.00000  Uiso   1.00
H759   H     0.29976   0.45411   0.99197   0.00000  Uiso   1.00
H760   H     0.13928   0.51669   0.58970   0.00000  Uiso   1.00
H761   H     0.05050   0.51653   0.91510   0.00000  Uiso   1.00
H762   H     0.08249   0.51216   0.55774   0.00000  Uiso   1.00
H763   H     0.02547   0.52377   0.50994   0.00000  Uiso   1.00
H764   H     0.21083   0.45031   0.87242   0.00000  Uiso   1.00
N765   N     0.04931   0.49999   0.74998   0.00000  Uiso   1.00
N766   N     0.28402   0.50002   0.74999   0.00000  Uiso   1.00
O767   O     0.12708   0.56011   0.75000   0.00000  Uiso   1.00
O768   O     0.20627   0.56012   0.75000   0.00000  Uiso   1.00
O769   O     0.10775   0.49998   0.82549   0.00000  Uiso   1.00
O770   O     0.18694   0.49999   0.82549   0.00000  Uiso   1.00
O771   O     0.12706   0.43988   0.74999   0.00000  Uiso   1.00
O772   O     0.20625   0.43989   0.74999   0.00000  Uiso   1.00
O773   O     0.14640   0.50001   0.67451   0.00000  Uiso   1.00
O774   O     0.22559   0.50002   0.67451   0.00000  Uiso   1.00
C775   C     0.02425   0.54956   0.82691   0.00000  Uiso   1.00
H776   H     0.06069   0.55905   0.82432   0.00000  Uiso   1.00
O777   O     0.32454   0.56183   0.86496   0.00000  Uiso   1.00
C778   C     0.25758   0.62564   0.68581   0.00000  Uiso   1.00
H779   H     0.29252   0.64052   0.68110   0.00000  Uiso   1.00
O780   O     0.25688   0.59405   0.66085   0.00000  Uiso   1.00
C781   C     0.50064   0.57920   0.74761   0.00000  Uiso   1.00
C782   C     0.47828   0.49416   0.98970   0.00000  Uiso   1.00
C783   C     0.49091   0.48468   0.93551   0.00000  Uiso   1.00
C784   C     0.51469   0.48946   0.51540   0.00000  Uiso   1.00
C785   C     0.56124   0.47203   0.98799   0.00000  Uiso   1.00
C786   C     0.57066   0.45839   0.93659   0.00000  Uiso   1.00
C787   C     0.53576   0.46385   0.91106   0.00000  Uiso   1.00
C788   C     0.50640   0.50177   0.56755   0.00000  Uiso   1.00
C789   C     0.58752   0.47832   0.56525   0.00000  Uiso   1.00
C790   C     0.45789   0.49576   0.90759   0.00000  Uiso   1.00
C791   C     0.54495   0.64555   0.71912   0.00000  Uiso   1.00
C792   C     0.47376   0.49775   0.85007   0.00000  Uiso   1.00
C793   C     0.54430   0.35507   0.72323   0.00000  Uiso   1.00
C794   C     0.50067   0.37622   0.74864   0.00000  Uiso   1.00
C795   C     0.45732   0.35482   0.77101   0.00000  Uiso   1.00
C796   C     0.45781   0.64552   0.76939   0.00000  Uiso   1.00
C797   C     0.50141   0.62388   0.74441   0.00000  Uiso   1.00
C798   C     0.63080   0.52293   0.78566   0.00000  Uiso   1.00
C799   C     0.34681   0.52323   0.78629   0.00000  Uiso   1.00
C800   C     0.36856   0.47684   0.71431   0.00000  Uiso   1.00
C801   C     0.65235   0.47686   0.71433   0.00000  Uiso   1.00
C802   C     0.50010   0.42077   0.74997   0.00000  Uiso   1.00
C803   C     0.52633   0.49952   0.64994   0.00000  Uiso   1.00
C804   C     0.59750   0.46735   0.51279   0.00000  Uiso   1.00
C805   C     0.54141   0.49460   0.59307   0.00000  Uiso   1.00
C806   C     0.41012   0.50897   0.93522   0.00000  Uiso   1.00
C807   C     0.39589   0.51377   0.98907   0.00000  Uiso   1.00
C808   C     0.42957   0.50740   0.51608   0.00000  Uiso   1.00
Cu809  Cu    0.45311   0.49999   0.75000   0.00000  Uiso   1.00
Cu810  Cu    0.54689   0.50001   0.75000   0.00000  Uiso   1.00
H811   H     0.61506   0.47262   0.58445   0.00000  Uiso   1.00
H812   H     0.57733   0.37215   0.70440   0.00000  Uiso   1.00
H813   H     0.42333   0.37105   0.79068   0.00000  Uiso   1.00
H814   H     0.42418   0.62945   0.78861   0.00000  Uiso   1.00
H815   H     0.60295   0.54138   0.81351   0.00000  Uiso   1.00
H816   H     0.39549   0.45819   0.68573   0.00000  Uiso   1.00
H817   H     0.64209   0.45827   0.68573   0.00000  Uiso   1.00
H818   H     0.60516   0.44324   0.91598   0.00000  Uiso   1.00
H819   H     0.63310   0.45411   0.99197   0.00000  Uiso   1.00
H820   H     0.47261   0.51669   0.58970   0.00000  Uiso   1.00
H821   H     0.38383   0.51653   0.91510   0.00000  Uiso   1.00
H822   H     0.41582   0.51216   0.55774   0.00000  Uiso   1.00
H823   H     0.35881   0.52377   0.50994   0.00000  Uiso   1.00
H824   H     0.54416   0.45031   0.87242   0.00000  Uiso   1.00
N825   N     0.38265   0.49999   0.74998   0.00000  Uiso   1.00
N826   N     0.61735   0.50002   0.74999   0.00000  Uiso   1.00
O827   O     0.46042   0.56011   0.75000   0.00000  Uiso   1.00
O828   O     0.53961   0.56012   0.75000   0.00000  Uiso   1.00
O829   O     0.44108   0.49998   0.82549   0.00000  Uiso   1.00
O830   O     0.52027   0.49999   0.82549   0.00000  Uiso   1.00
O831   O     0.46039   0.43988   0.74999   0.00000  Uiso   1.00
O832   O     0.53958   0.43989   0.74999   0.00000  Uiso   1.00
O833   O     0.47973   0.50001   0.67451   0.00000  Uiso   1.00
O834   O     0.55892   0.50002   0.67451   0.00000  Uiso   1.00
C835   C     0.35759   0.54956   0.82691   0.00000  Uiso   1.00
H836   H     0.39403   0.55905   0.82432   0.00000  Uiso   1.00
O837   O     0.65787   0.56183   0.86496   0.00000  Uiso   1.00
C838   C     0.59092   0.62564   0.68581   0.00000  Uiso   1.00
H839   H     0.62586   0.64052   0.68110   0.00000  Uiso   1.00
O840   O     0.59021   0.59405   0.66085   0.00000  Uiso   1.00
C841   C     0.83398   0.57920   0.74761   0.00000  Uiso   1.00
C842   C     0.81161   0.49416   0.98970   0.00000  Uiso   1.00
C843   C     0.82424   0.48468   0.93551   0.00000  Uiso   1.00
C844   C     0.84802   0.48946   0.51540   0.00000  Uiso   1.00
C845   C     0.89457   0.47203   0.98799   0.00000  Uiso   1.00
C846   C     0.90399   0.45839   0.93659   0.00000  Uiso   1.00
C847   C     0.86910   0.46385   0.91106   0.00000  Uiso   1.00
C848   C     0.83974   0.50177   0.56755   0.00000  Uiso   1.00
C849   C     0.92086   0.47832   0.56525   0.00000  Uiso   1.00
C850   C     0.79122   0.49576   0.90759   0.00000  Uiso   1.00
C851   C     0.87828   0.64555   0.71912   0.00000  Uiso   1.00
C852   C     0.80709   0.49775   0.85007   0.00000  Uiso   1.00
C853   C     0.87764   0.35507   0.72323   0.00000  Uiso   1.00
C854   C     0.83401   0.37622   0.74864   0.00000  Uiso   1.00
C855   C     0.79065   0.35482   0.77101   0.00000  Uiso   1.00
C856   C     0.79114   0.64552   0.76939   0.00000  Uiso   1.00
C857   C     0.83474   0.62388   0.74441   0.00000  Uiso   1.00
C858   C     0.96413   0.52293   0.78566   0.00000  Uiso   1.00
C859   C     0.68014   0.52323   0.78629   0.00000  Uiso   1.00
C860   C     0.70189   0.47684   0.71431   0.00000  Uiso   1.00
C861   C     0.98569   0.47686   0.71433   0.00000  Uiso   1.00
C862   C     0.83344   0.42077   0.74997   0.00000  Uiso   1.00
C863   C     0.85967   0.49952   0.64994   0.00000  Uiso   1.00
C864   C     0.93083   0.46735   0.51279   0.00000  Uiso   1.00
C865   C     0.87474   0.49460   0.59307   0.00000  Uiso   1.00
C866   C     0.74345   0.50897   0.93522   0.00000  Uiso   1.00
C867   C     0.72922   0.51377   0.98907   0.00000  Uiso   1.00
C868   C     0.76290   0.50740   0.51608   0.00000  Uiso   1.00
Cu869  Cu    0.78645   0.49999   0.75000   0.00000  Uiso   1.00
Cu870  Cu    0.88022   0.50001   0.75000   0.00000  Uiso   1.00
H871   H     0.94840   0.47262   0.58445   0.00000  Uiso   1.00
H872   H     0.91067   0.37215   0.70440   0.00000  Uiso   1.00
H873   H     0.75667   0.37105   0.79068   0.00000  Uiso   1.00
H874   H     0.75752   0.62945   0.78861   0.00000  Uiso   1.00
H875   H     0.93628   0.54138   0.81351   0.00000  Uiso   1.00
H876   H     0.72882   0.45819   0.68573   0.00000  Uiso   1.00
H877   H     0.97542   0.45827   0.68573   0.00000  Uiso   1.00
H878   H     0.93850   0.44324   0.91598   0.00000  Uiso   1.00
H879   H     0.96643   0.45411   0.99197   0.00000  Uiso   1.00
H880   H     0.80594   0.51669   0.58970   0.00000  Uiso   1.00
H881   H     0.71717   0.51653   0.91510   0.00000  Uiso   1.00
H882   H     0.74915   0.51216   0.55774   0.00000  Uiso   1.00
H883   H     0.69214   0.52377   0.50994   0.00000  Uiso   1.00
H884   H     0.87750   0.45031   0.87242   0.00000  Uiso   1.00
N885   N     0.71598   0.49999   0.74998   0.00000  Uiso   1.00
N886   N     0.95069   0.50002   0.74999   0.00000  Uiso   1.00
O887   O     0.79375   0.56011   0.75000   0.00000  Uiso   1.00
O888   O     0.87294   0.56012   0.75000   0.00000  Uiso   1.00
O889   O     0.77441   0.49998   0.82549   0.00000  Uiso   1.00
O890   O     0.85360   0.49999   0.82549   0.00000  Uiso   1.00
O891   O     0.79373   0.43988   0.74999   0.00000  Uiso   1.00
O892   O     0.87292   0.43989   0.74999   0.00000  Uiso   1.00
O893   O     0.81306   0.50001   0.67451   0.00000  Uiso   1.00
O894   O     0.89225   0.50002   0.67451   0.00000  Uiso   1.00
C895   C     0.69092   0.54956   0.82691   0.00000  Uiso   1.00
H896   H     0.72736   0.55905   0.82432   0.00000  Uiso   1.00
O897   O     0.99121   0.56183   0.86496   0.00000  Uiso   1.00
C898   C     0.92425   0.62564   0.68581   0.00000  Uiso   1.00
H899   H     0.95919   0.64052   0.68110   0.00000  Uiso   1.00
O900   O     0.92354   0.59405   0.66085   0.00000  Uiso   1.00
C901   C     0.16731   0.91253   0.74761   0.00000  Uiso   1.00
C902   C     0.14495   0.82749   0.98970   0.00000  Uiso   1.00
C903   C     0.15758   0.81801   0.93551   0.00000  Uiso   1.00
C904   C     0.18136   0.82279   0.51540   0.00000  Uiso   1.00
C905   C     0.22790   0.80536   0.98799   0.00000  Uiso   1.00
C906   C     0.23732   0.79172   0.93659   0.00000  Uiso   1.00
C907   C     0.20243   0.79718   0.91106   0.00000  Uiso   1.00
C908   C     0.17307   0.83511   0.56755   0.00000  Uiso   1.00
C909   C     0.25419   0.81166   0.56525   0.00000  Uiso   1.00
C910   C     0.12455   0.82910   0.90759   0.00000  Uiso   1.00
C911   C     0.21162   0.97889   0.71912   0.00000  Uiso   1.00
C912   C     0.14043   0.83108   0.85007   0.00000  Uiso   1.00
C913   C     0.21097   0.68840   0.72323   0.00000  Uiso   1.00
C914   C     0.16734   0.70955   0.74864   0.00000  Uiso   1.00
C915   C     0.12398   0.68815   0.77101   0.00000  Uiso   1.00
C916   C     0.12447   0.97885   0.76939   0.00000  Uiso   1.00
C917   C     0.16808   0.95721   0.74441   0.00000  Uiso   1.00
C918   C     0.29746   0.85626   0.78566   0.00000  Uiso   1.00
C919   C     0.01348   0.85657   0.78629   0.00000  Uiso   1.00
C920   C     0.03523   0.81017   0.71431   0.00000  Uiso   1.00
C921   C     0.31902   0.81020   0.71433   0.00000  Uiso   1.00
C922   C     0.16677   0.75410   0.74997   0.00000  Uiso   1.00
C923   C     0.19300   0.83285   0.64994   0.00000  Uiso   1.00
C924   C     0.26417   0.80068   0.51279   0.00000  Uiso   1.00
C925   C     0.20808   0.82793   0.59307   0.00000  Uiso   1.00
C926   C     0.07678   0.84230   0.93522   0.00000  Uiso   1.00
C927   C     0.06255   0.84711   0.98907   0.00000  Uiso   1.00
C928   C     0.09624   0.84074   0.51608   0.00000  Uiso   1.00
Cu929  Cu    0.11978   0.83333   0.75000   0.00000  Uiso   1.00
Cu930  Cu    0.21355   0.83334   0.75000   0.00000  Uiso   1.00
H931   H     0.28173   0.80595   0.58445   0.00000  Uiso   1.00
H932   H     0.24400   0.70548   0.70440   0.00000  Uiso   1.00
H933   H     0.09000   0.70438   0.79068   0.00000  Uiso   1.00
H934   H     0.09085   0.96279   0.78861   0.00000  Uiso   1.00
H935   H     0.26962   0.87472   0.81351   0.00000  Uiso   1.00
H936   H     0.06216   0.79153   0.68573   0.00000  Uiso   1.00
H937   H     0.30876   0.79161   0.68573   0.00000  Uiso   1.00
H938   H     0.27183   0.77658   0.91598   0.00000  Uiso   1.00
H939   H     0.29976   0.78744   0.99197   0.00000  Uiso   1.00
H940   H     0.13928   0.85003   0.58970   0.00000  Uiso   1.00
H941   H     0.05050   0.84986   0.91510   0.00000  Uiso   1.00
H942   H     0.08249   0.84549   0.55774   0.00000  Uiso   1.00
H943   H     0.02547   0.85710   0.50994   0.00000  Uiso   1.00
H944   H     0.21083   0.78364   0.87242   0.00000  Uiso   1.00
N945   N     0.04931   0.83332   0.74998   0.00000  Uiso   1.00
N946   N     0.28402   0.83335   0.74999   0.00000  Uiso   1.00
O947   O     0.12708   0.89345   0.75000   0.00000  Uiso   1.00
O948   O     0.20627   0.89346   0.75000   0.00000  Uiso   1.00
O949   O     0.10775   0.83332   0.82549   0.00000  Uiso   1.00
O950   O     0.18694   0.83333   0.82549   0.00000  Uiso   1.00
O951   O     0.12706   0.77321   0.74999   0.00000  Uiso   1.00
O952   O     0.20625   0.77322   0.74999   0.00000  Uiso   1.00
O953   O     0.14640   0.83334   0.67451   0.00000  Uiso   1.00
O954   O     0.22559   0.83335   0.67451   0.00000  Uiso   1.00
C955   C     0.02425   0.88289   0.82691   0.00000  Uiso   1.00
H956   H     0.06069   0.89238   0.82432   0.00000  Uiso   1.00
O957   O     0.32454   0.89517   0.86496   0.00000  Uiso   1.00
C958   C     0.25758   0.95898   0.68581   0.00000  Uiso   1.00
H959   H     0.29252   0.97386   0.68110   0.00000  Uiso   1.00
O960   O     0.25688   0.92739   0.66085   0.00000  Uiso   1.00
C961   C     0.50064   0.91253   0.74761   0.00000  Uiso   1.00
C962   C     0.47828   0.82749   0.98970   0.00000  Uiso   1.00
C963   C     0.49091   0.81801   0.93551   0.00000  Uiso   1.00
C964   C     0.51469   0.82279   0.51540   0.00000  Uiso   1.00
C965   C     0.56124   0.80536   0.98799   0.00000  Uiso   1.00
C966   C     0.57066   0.79172   0.93659   0.00000  Uiso   1.00
C967   C     0.53576   0.79718   0.91106   0.00000  Uiso   1.00
C968   C     0.50640   0.83511   0.56755   0.00000  Uiso   1.00
C969   C     0.58752   0.81166   0.56525   0.00000  Uiso   1.00
C970   C     0.45789   0.82910   0.90759   0.00000  Uiso   1.00
C971   C     0.54495   0.97889   0.71912   0.00000  Uiso   1.00
C972   C     0.47376   0.83108   0.85007   0.00000  Uiso   1.00
C973   C     0.54430   0.68840   0.72323   0.00000  Uiso   1.00
C974   C     0.50067   0.70955   0.74864   0.00000  Uiso   1.00
C975   C     0.45732   0.68815   0.77101   0.00000  Uiso   1.00
C976   C     0.45781   0.97885   0.76939   0.00000  Uiso   1.00
C977   C     0.50141   0.95721   0.74441   0.00000  Uiso   1.00
C978   C     0.63080   0.85626   0.78566   0.00000  Uiso   1.00
C979   C     0.34681   0.85657   0.78629   0.00000  Uiso   1.00
C980   C     0.36856   0.81017   0.71431   0.00000  Uiso   1.00
C981   C     0.65235   0.81020   0.71433   0.00000  Uiso   1.00
C982   C     0.50010   0.75410   0.74997   0.00000  Uiso   1.00
C983   C     0.52633   0.83285   0.64994   0.00000  Uiso   1.00
C984   C     0.59750   0.80068   0.51279   0.00000  Uiso   1.00
C985   C     0.54141   0.82793   0.59307   0.00000  Uiso   1.00
C986   C     0.41012   0.84230   0.93522   0.00000  Uiso   1.00
C987   C     0.39589   0.84711   0.98907   0.00000  Uiso   1.00
C988   C     0.42957   0.84074   0.51608   0.00000  Uiso   1.00
Cu989  Cu    0.45311   0.83333   0.75000   0.00000  Uiso   1.00
Cu990  Cu    0.54689   0.83334   0.75000   0.00000  Uiso   1.00
H991   H     0.61506   0.80595   0.58445   0.00000  Uiso   1.00
H992   H     0.57733   0.70548   0.70440   0.00000  Uiso   1.00
H993   H     0.42333   0.70438   0.79068   0.00000  Uiso   1.00
H994   H     0.42418   0.96279   0.78861   0.00000  Uiso   1.00
H995   H     0.60295   0.87472   0.81351   0.00000  Uiso   1.00
H996   H     0.39549   0.79153   0.68573   0.00000  Uiso   1.00
H997   H     0.64209   0.79161   0.68573   0.00000  Uiso   1.00
H998   H     0.60516   0.77658   0.91598   0.00000  Uiso   1.00
H999   H     0.63310   0.78744   0.99197   0.00000  Uiso   1.00
H1000  H     0.47261   0.85003   0.58970   0.00000  Uiso   1.00
H1001  H     0.38383   0.84986   0.91510   0.00000  Uiso   1.00
H1002  H     0.41582   0.84549   0.55774   0.00000  Uiso   1.00
H1003  H     0.35881   0.85710   0.50994   0.00000  Uiso   1.00
H1004  H     0.54416   0.78364   0.87242   0.00000  Uiso   1.00
N1005  N     0.38265   0.83332   0.74998   0.00000  Uiso   1.00
N1006  N     0.61735   0.83335   0.74999   0.00000  Uiso   1.00
O1007  O     0.46042   0.89345   0.75000   0.00000  Uiso   1.00
O1008  O     0.53961   0.89346   0.75000   0.00000  Uiso   1.00
O1009  O     0.44108   0.83332   0.82549   0.00000  Uiso   1.00
O1010  O     0.52027   0.83333   0.82549   0.00000  Uiso   1.00
O1011  O     0.46039   0.77321   0.74999   0.00000  Uiso   1.00
O1012  O     0.53958   0.77322   0.74999   0.00000  Uiso   1.00
O1013  O     0.47973   0.83334   0.67451   0.00000  Uiso   1.00
O1014  O     0.55892   0.83335   0.67451   0.00000  Uiso   1.00
C1015  C     0.35759   0.88289   0.82691   0.00000  Uiso   1.00
H1016  H     0.39403   0.89238   0.82432   0.00000  Uiso   1.00
O1017  O     0.65787   0.89517   0.86496   0.00000  Uiso   1.00
C1018  C     0.59092   0.95898   0.68581   0.00000  Uiso   1.00
H1019  H     0.62586   0.97386   0.68110   0.00000  Uiso   1.00
O1020  O     0.59021   0.92739   0.66085   0.00000  Uiso   1.00
C1021  C     0.83398   0.91253   0.74761   0.00000  Uiso   1.00
C1022  C     0.81161   0.82749   0.98970   0.00000  Uiso   1.00
C1023  C     0.82424   0.81801   0.93551   0.00000  Uiso   1.00
C1024  C     0.84802   0.82279   0.51540   0.00000  Uiso   1.00
C1025  C     0.89457   0.80536   0.98799   0.00000  Uiso   1.00
C1026  C     0.90399   0.79172   0.93659   0.00000  Uiso   1.00
C1027  C     0.86910   0.79718   0.91106   0.00000  Uiso   1.00
C1028  C     0.83974   0.83511   0.56755   0.00000  Uiso   1.00
C1029  C     0.92086   0.81166   0.56525   0.00000  Uiso   1.00
C1030  C     0.79122   0.82910   0.90759   0.00000  Uiso   1.00
C1031  C     0.87828   0.97889   0.71912   0.00000  Uiso   1.00
C1032  C     0.80709   0.83108   0.85007   0.00000  Uiso   1.00
C1033  C     0.87764   0.68840   0.72323   0.00000  Uiso   1.00
C1034  C     0.83401   0.70955   0.74864   0.00000  Uiso   1.00
C1035  C     0.79065   0.68815   0.77101   0.00000  Uiso   1.00
C1036  C     0.79114   0.97885   0.76939   0.00000  Uiso   1.00
C1037  C     0.83474   0.95721   0.74441   0.00000  Uiso   1.00
C1038  C     0.96413   0.85626   0.78566   0.00000  Uiso   1.00
C1039  C     0.68014   0.85657   0.78629   0.00000  Uiso   1.00
C1040  C     0.70189   0.81017   0.71431   0.00000  Uiso   1.00
C1041  C     0.98569   0.81020   0.71433   0.00000  Uiso   1.00
C1042  C     0.83344   0.75410   0.74997   0.00000  Uiso   1.00
C1043  C     0.85967   0.83285   0.64994   0.00000  Uiso   1.00
C1044  C     0.93083   0.80068   0.51279   0.00000  Uiso   1.00
C1045  C     0.87474   0.82793   0.59307   0.00000  Uiso   1.00
C1046  C     0.74345   0.84230   0.93522   0.00000  Uiso   1.00
C1047  C     0.72922   0.84711   0.98907   0.00000  Uiso   1.00
C1048  C     0.76290   0.84074   0.51608   0.00000  Uiso   1.00
Cu1049 Cu    0.78645   0.83333   0.75000   0.00000  Uiso   1.00
Cu1050 Cu    0.88022   0.83334   0.75000   0.00000  Uiso   1.00
H1051  H     0.94840   0.80595   0.58445   0.00000  Uiso   1.00
H1052  H     0.91067   0.70548   0.70440   0.00000  Uiso   1.00
H1053  H     0.75667   0.70438   0.79068   0.00000  Uiso   1.00
H1054  H     0.75752   0.96279   0.78861   0.00000  Uiso   1.00
H1055  H     0.93628   0.87472   0.81351   0.00000  Uiso   1.00
H1056  H     0.72882   0.79153   0.68573   0.00000  Uiso   1.00
H1057  H     0.97542   0.79161   0.68573   0.00000  Uiso   1.00
H1058  H     0.93850   0.77658   0.91598   0.00000  Uiso   1.00
H1059  H     0.96643   0.78744   0.99197   0.00000  Uiso   1.00
H1060  H     0.80594   0.85003   0.58970   0.00000  Uiso   1.00
H1061  H     0.71717   0.84986   0.91510   0.00000  Uiso   1.00
H1062  H     0.74915   0.84549   0.55774   0.00000  Uiso   1.00
H1063  H     0.69214   0.85710   0.50994   0.00000  Uiso   1.00
H1064  H     0.87750   0.78364   0.87242   0.00000  Uiso   1.00
N1065  N     0.71598   0.83332   0.74998   0.00000  Uiso   1.00
N1066  N     0.95069   0.83335   0.74999   0.00000  Uiso   1.00
O1067  O     0.79375   0.89345   0.75000   0.00000  Uiso   1.00
O1068  O     0.87294   0.89346   0.75000   0.00000  Uiso   1.00
O1069  O     0.77441   0.83332   0.82549   0.00000  Uiso   1.00
O1070  O     0.85360   0.83333   0.82549   0.00000  Uiso   1.00
O1071  O     0.79373   0.77321   0.74999   0.00000  Uiso   1.00
O1072  O     0.87292   0.77322   0.74999   0.00000  Uiso   1.00
O1073  O     0.81306   0.83334   0.67451   0.00000  Uiso   1.00
O1074  O     0.89225   0.83335   0.67451   0.00000  Uiso   1.00
C1075  C     0.69092   0.88289   0.82691   0.00000  Uiso   1.00
H1076  H     0.72736   0.89238   0.82432   0.00000  Uiso   1.00
O1077  O     0.99121   0.89517   0.86496   0.00000  Uiso   1.00
C1078  C     0.92425   0.95898   0.68581   0.00000  Uiso   1.00
H1079  H     0.95919   0.97386   0.68110   0.00000  Uiso   1.00
O1080  O     0.92354   0.92739   0.66085   0.00000  Uiso   1.00
loop_
_geom_bond_atom_site_label_1
_geom_bond_atom_site_label_2
_geom_bond_distance
_geom_bond_site_symmetry_2
_ccdc_geom_bond_type
C1     O48     1.291   .     A
C1     C17     1.452   .     S
C1     O47     1.295   .     A
C2     C3      1.420   .     A
C2     C544    1.425   .     S
C2     C568    1.418   .     S
C3     C10     1.423   .     A
C3     C7      1.413   .     A
C4     C8      1.402   .     A
C4     C542    1.425   1_554 S
C4     C545    1.420   1_554 S
C5     C6      1.391   .     A
C5     C544    1.420   .     S
C5     C564    1.404   .     S
C6     C7      1.387   .     A
C6     H38     1.084   .     S
C7     H44     1.079   .     S
C8     C25     1.398   .     A
C8     H40     1.076   .     S
C9     C25     1.399   .     A
C9     C24     1.393   .     A
C9     H31     1.083   .     S
C10    C26     1.403   .     A
C10    C12     1.476   .     S
C11    C58     1.484   .     S
C11    C17     1.419   .     A
C11    C193    1.392   .     S
C12    O50     1.295   .     A
C12    O49     1.303   .     A
C13    H32     1.085   .     S
C13    C14     1.397   .     A
C13    C371    1.392   1_545 S
C14    C22     1.444   .     S
C14    C15     1.396   .     A
C15    H33     1.084   .     S
C15    C376    1.382   1_545 S
C16    H34     1.083   .     S
C16    C17     1.402   .     A
C16    C195    1.382   .     S
C18    H35     1.082   .     S
C18    N46     1.353   .     A
C18    C79     1.418   .     S
C19    N45     1.390   .     A
C19    C55     1.484   .     S
C19    C138    1.418   1_455 S
C20    N45     1.367   .     A
C20    H36     1.082   .     S
C20    C141    1.418   1_455 S
C21    H37     1.082   .     S
C21    N46     1.368   .     A
C21    C80     1.418   .     S
C22    O51     1.291   .     A
C22    O52     1.292   .     A
C23    O53     1.295   .     A
C23    C25     1.464   .     S
C23    O54     1.298   .     A
C24    C545    1.404   1_554 S
C24    H579    1.084   1_554 S
C26    C27     1.386   .     A
C26    H41     1.082   .     S
C27    C568    1.390   .     S
C27    H583    1.083   .     S
C28    H42     1.077   .     S
C28    C567    1.390   1_554 S
C28    C542    1.418   1_554 S
Cu29   O53     1.939   .     S
Cu29   O49     1.954   .     S
Cu29   Cu30    2.684   .     S
Cu29   O47     1.961   .     S
Cu29   O51     1.959   .     S
Cu29   N45     2.017   .     S
Cu30   O50     1.939   .     S
Cu30   O54     1.954   .     S
Cu30   O48     1.959   .     S
Cu30   N46     2.017   .     S
Cu30   O52     1.961   .     S
H39    C564    1.084   .     S
H43    C567    1.083   1_554 S
C55    H56     1.071   .     S
C55    O177    1.222   1_455 S
O57    C115    1.222   .     S
C58    H59     1.086   .     S
C58    O60     1.221   .     D
C61    O108    1.291   .     A
C61    C77     1.452   .     S
C61    O107    1.295   .     A
C62    C63     1.420   .     A
C62    C604    1.425   .     S
C62    C628    1.418   .     S
C63    C70     1.423   .     A
C63    C67     1.413   .     A
C64    C68     1.402   .     A
C64    C602    1.425   1_554 S
C64    C605    1.420   1_554 S
C65    C66     1.391   .     A
C65    C604    1.420   .     S
C65    C624    1.404   .     S
C66    C67     1.387   .     A
C66    H98     1.084   .     S
C67    H104    1.079   .     S
C68    C85     1.398   .     A
C68    H100    1.076   .     S
C69    C85     1.399   .     A
C69    C84     1.393   .     A
C69    H91     1.083   .     S
C70    C86     1.403   .     A
C70    C72     1.476   .     S
C71    C118    1.484   .     S
C71    C77     1.419   .     A
C71    C253    1.392   .     S
C72    O110    1.295   .     A
C72    O109    1.303   .     A
C73    H92     1.085   .     S
C73    C74     1.397   .     A
C73    C431    1.392   1_545 S
C74    C82     1.444   .     S
C74    C75     1.396   .     A
C75    H93     1.084   .     S
C75    C436    1.382   1_545 S
C76    H94     1.083   .     S
C76    C77     1.402   .     A
C76    C255    1.382   .     S
C78    H95     1.082   .     S
C78    N106    1.353   .     A
C78    C139    1.418   .     S
C79    N105    1.390   .     A
C79    C115    1.484   .     S
C80    N105    1.367   .     A
C80    H96     1.082   .     S
C81    H97     1.082   .     S
C81    N106    1.368   .     A
C81    C140    1.418   .     S
C82    O111    1.291   .     A
C82    O112    1.292   .     A
C83    O113    1.295   .     A
C83    C85     1.464   .     S
C83    O114    1.298   .     A
C84    C605    1.404   1_554 S
C84    H639    1.084   1_554 S
C86    C87     1.386   .     A
C86    H101    1.082   .     S
C87    C628    1.390   .     S
C87    H643    1.083   .     S
C88    H102    1.077   .     S
C88    C627    1.390   1_554 S
C88    C602    1.418   1_554 S
Cu89   O113    1.939   .     S
Cu89   O109    1.954   .     S
Cu89   Cu90    2.684   .     S
Cu89   O107    1.961   .     S
Cu89   O111    1.959   .     S
Cu89   N105    2.017   .     S
Cu90   O110    1.939   .     S
Cu90   O114    1.954   .     S
Cu90   O108    1.959   .     S
Cu90   N106    2.017   .     S
Cu90   O112    1.961   .     S
H99    C624    1.084   .     S
H103   C627    1.083   1_554 S
C115   H116    1.071   .     S
O117   C175    1.222   .     S
C118   H119    1.086   .     S
C118   O120    1.221   .     D
C121   O168    1.291   .     A
C121   C137    1.452   .     S
C121   O167    1.295   .     A
C122   C123    1.420   .     A
C122   C664    1.425   .     S
C122   C688    1.418   .     S
C123   C130    1.423   .     A
C123   C127    1.413   .     A
C124   C128    1.402   .     A
C124   C662    1.425   1_554 S
C124   C665    1.420   1_554 S
C125   C126    1.391   .     A
C125   C664    1.420   .     S
C125   C684    1.404   .     S
C126   C127    1.387   .     A
C126   H158    1.084   .     S
C127   H164    1.079   .     S
C128   C145    1.398   .     A
C128   H160    1.076   .     S
C129   C145    1.399   .     A
C129   C144    1.393   .     A
C129   H151    1.083   .     S
C130   C146    1.403   .     A
C130   C132    1.476   .     S
C131   C178    1.484   .     S
C131   C137    1.419   .     A
C131   C313    1.392   .     S
C132   O170    1.295   .     A
C132   O169    1.303   .     A
C133   H152    1.085   .     S
C133   C134    1.397   .     A
C133   C491    1.392   1_545 S
C134   C142    1.444   .     S
C134   C135    1.396   .     A
C135   H153    1.084   .     S
C135   C496    1.382   1_545 S
C136   H154    1.083   .     S
C136   C137    1.402   .     A
C136   C315    1.382   .     S
C138   H155    1.082   .     S
C138   N166    1.353   .     A
C138   C19     1.418   1_655 S
C139   N165    1.390   .     A
C139   C175    1.484   .     S
C140   N165    1.367   .     A
C140   H156    1.082   .     S
C141   H157    1.082   .     S
C141   N166    1.368   .     A
C141   C20     1.418   1_655 S
C142   O171    1.291   .     A
C142   O172    1.292   .     A
C143   O173    1.295   .     A
C143   C145    1.464   .     S
C143   O174    1.298   .     A
C144   C665    1.404   1_554 S
C144   H699    1.084   1_554 S
C146   C147    1.386   .     A
C146   H161    1.082   .     S
C147   C688    1.390   .     S
C147   H703    1.083   .     S
C148   H162    1.077   .     S
C148   C687    1.390   1_554 S
C148   C662    1.418   1_554 S
Cu149  O173    1.939   .     S
Cu149  O169    1.954   .     S
Cu149  Cu150   2.684   .     S
Cu149  O167    1.961   .     S
Cu149  O171    1.959   .     S
Cu149  N165    2.017   .     S
Cu150  O170    1.939   .     S
Cu150  O174    1.954   .     S
Cu150  O168    1.959   .     S
Cu150  N166    2.017   .     S
Cu150  O172    1.961   .     S
H159   C684    1.084   .     S
H163   C687    1.083   1_554 S
C175   H176    1.071   .     S
O177   C55     1.222   1_655 S
C178   H179    1.086   .     S
C178   O180    1.221   .     D
C181   O228    1.291   .     A
C181   C197    1.452   .     S
C181   O227    1.295   .     A
C182   C183    1.420   .     A
C182   C724    1.425   .     S
C182   C748    1.418   .     S
C183   C190    1.423   .     A
C183   C187    1.413   .     A
C184   C188    1.402   .     A
C184   C722    1.425   1_554 S
C184   C725    1.420   1_554 S
C185   C186    1.391   .     A
C185   C724    1.420   .     S
C185   C744    1.404   .     S
C186   C187    1.387   .     A
C186   H218    1.084   .     S
C187   H224    1.079   .     S
C188   C205    1.398   .     A
C188   H220    1.076   .     S
C189   C205    1.399   .     A
C189   C204    1.393   .     A
C189   H211    1.083   .     S
C190   C206    1.403   .     A
C190   C192    1.476   .     S
C191   C238    1.484   .     S
C191   C197    1.419   .     A
C191   C373    1.392   .     S
C192   O230    1.295   .     A
C192   O229    1.303   .     A
C193   H212    1.085   .     S
C193   C194    1.397   .     A
C194   C202    1.444   .     S
C194   C195    1.396   .     A
C195   H213    1.084   .     S
C196   H214    1.083   .     S
C196   C197    1.402   .     A
C196   C375    1.382   .     S
C198   H215    1.082   .     S
C198   N226    1.353   .     A
C198   C259    1.418   .     S
C199   N225    1.390   .     A
C199   C235    1.484   .     S
C199   C318    1.418   1_455 S
C200   N225    1.367   .     A
C200   H216    1.082   .     S
C200   C321    1.418   1_455 S
C201   H217    1.082   .     S
C201   N226    1.368   .     A
C201   C260    1.418   .     S
C202   O231    1.291   .     A
C202   O232    1.292   .     A
C203   O233    1.295   .     A
C203   C205    1.464   .     S
C203   O234    1.298   .     A
C204   C725    1.404   1_554 S
C204   H759    1.084   1_554 S
C206   C207    1.386   .     A
C206   H221    1.082   .     S
C207   C748    1.390   .     S
C207   H763    1.083   .     S
C208   H222    1.077   .     S
C208   C747    1.390   1_554 S
C208   C722    1.418   1_554 S
Cu209  O233    1.939   .     S
Cu209  O229    1.954   .     S
Cu209  Cu210   2.684   .     S
Cu209  O227    1.961   .     S
Cu209  O231    1.959   .     S
Cu209  N225    2.017   .     S
Cu210  O230    1.939   .     S
Cu210  O234    1.954   .     S
Cu210  O228    1.959   .     S
Cu210  N226    2.017   .     S
Cu210  O232    1.961   .     S
H219   C744    1.084   .     S
H223   C747    1.083   1_554 S
C235   H236    1.071   .     S
C235   O357    1.222   1_455 S
O237   C295    1.222   .     S
C238   H239    1.086   .     S
C238   O240    1.221   .     D
C241   O288    1.291   .     A
C241   C257    1.452   .     S
C241   O287    1.295   .     A
C242   C243    1.420   .     A
C242   C784    1.425   .     S
C242   C808    1.418   .     S
C243   C250    1.423   .     A
C243   C247    1.413   .     A
C244   C248    1.402   .     A
C244   C782    1.425   1_554 S
C244   C785    1.420   1_554 S
C245   C246    1.391   .     A
C245   C784    1.420   .     S
C245   C804    1.404   .     S
C246   C247    1.387   .     A
C246   H278    1.084   .     S
C247   H284    1.079   .     S
C248   C265    1.398   .     A
C248   H280    1.076   .     S
C249   C265    1.399   .     A
C249   C264    1.393   .     A
C249   H271    1.083   .     S
C250   C266    1.403   .     A
C250   C252    1.476   .     S
C251   C298    1.484   .     S
C251   C257    1.419   .     A
C251   C433    1.392   .     S
C252   O290    1.295   .     A
C252   O289    1.303   .     A
C253   H272    1.085   .     S
C253   C254    1.397   .     A
C254   C262    1.444   .     S
C254   C255    1.396   .     A
C255   H273    1.084   .     S
C256   H274    1.083   .     S
C256   C257    1.402   .     A
C256   C435    1.382   .     S
C258   H275    1.082   .     S
C258   N286    1.353   .     A
C258   C319    1.418   .     S
C259   N285    1.390   .     A
C259   C295    1.484   .     S
C260   N285    1.367   .     A
C260   H276    1.082   .     S
C261   H277    1.082   .     S
C261   N286    1.368   .     A
C261   C320    1.418   .     S
C262   O291    1.291   .     A
C262   O292    1.292   .     A
C263   O293    1.295   .     A
C263   C265    1.464   .     S
C263   O294    1.298   .     A
C264   C785    1.404   1_554 S
C264   H819    1.084   1_554 S
C266   C267    1.386   .     A
C266   H281    1.082   .     S
C267   C808    1.390   .     S
C267   H823    1.083   .     S
C268   H282    1.077   .     S
C268   C807    1.390   1_554 S
C268   C782    1.418   1_554 S
Cu269  O293    1.939   .     S
Cu269  O289    1.954   .     S
Cu269  Cu270   2.684   .     S
Cu269  O287    1.961   .     S
Cu269  O291    1.959   .     S
Cu269  N285    2.017   .     S
Cu270  O290    1.939   .     S
Cu270  O294    1.954   .     S
Cu270  O288    1.959   .     S
Cu270  N286    2.017   .     S
Cu270  O292    1.961   .     S
H279   C804    1.084   .     S
H283   C807    1.083   1_554 S
C295   H296    1.071   .     S
O297   C355    1.222   .     S
C298   H299    1.086   .     S
C298   O300    1.221   .     D
C301   O348    1.291   .     A
C301   C317    1.452   .     S
C301   O347    1.295   .     A
C302   C303    1.420   .     A
C302   C844    1.425   .     S
C302   C868    1.418   .     S
C303   C310    1.423   .     A
C303   C307    1.413   .     A
C304   C308    1.402   .     A
C304   C842    1.425   1_554 S
C304   C845    1.420   1_554 S
C305   C306    1.391   .     A
C305   C844    1.420   .     S
C305   C864    1.404   .     S
C306   C307    1.387   .     A
C306   H338    1.084   .     S
C307   H344    1.079   .     S
C308   C325    1.398   .     A
C308   H340    1.076   .     S
C309   C325    1.399   .     A
C309   C324    1.393   .     A
C309   H331    1.083   .     S
C310   C326    1.403   .     A
C310   C312    1.476   .     S
C311   C358    1.484   .     S
C311   C317    1.419   .     A
C311   C493    1.392   .     S
C312   O350    1.295   .     A
C312   O349    1.303   .     A
C313   H332    1.085   .     S
C313   C314    1.397   .     A
C314   C322    1.444   .     S
C314   C315    1.396   .     A
C315   H333    1.084   .     S
C316   H334    1.083   .     S
C316   C317    1.402   .     A
C316   C495    1.382   .     S
C318   H335    1.082   .     S
C318   N346    1.353   .     A
C318   C199    1.418   1_655 S
C319   N345    1.390   .     A
C319   C355    1.484   .     S
C320   N345    1.367   .     A
C320   H336    1.082   .     S
C321   H337    1.082   .     S
C321   N346    1.368   .     A
C321   C200    1.418   1_655 S
C322   O351    1.291   .     A
C322   O352    1.292   .     A
C323   O353    1.295   .     A
C323   C325    1.464   .     S
C323   O354    1.298   .     A
C324   C845    1.404   1_554 S
C324   H879    1.084   1_554 S
C326   C327    1.386   .     A
C326   H341    1.082   .     S
C327   C868    1.390   .     S
C327   H883    1.083   .     S
C328   H342    1.077   .     S
C328   C867    1.390   1_554 S
C328   C842    1.418   1_554 S
Cu329  O353    1.939   .     S
Cu329  O349    1.954   .     S
Cu329  Cu330   2.684   .     S
Cu329  O347    1.961   .     S
Cu329  O351    1.959   .     S
Cu329  N345    2.017   .     S
Cu330  O350    1.939   .     S
Cu330  O354    1.954   .     S
Cu330  O348    1.959   .     S
Cu330  N346    2.017   .     S
Cu330  O352    1.961   .     S
H339   C864    1.084   .     S
H343   C867    1.083   1_554 S
C355   H356    1.071   .     S
O357   C235    1.222   1_655 S
C358   H359    1.086   .     S
C358   O360    1.221   .     D
C361   O408    1.291   .     A
C361   C377    1.452   .     S
C361   O407    1.295   .     A
C362   C363    1.420   .     A
C362   C904    1.425   .     S
C362   C928    1.418   .     S
C363   C370    1.423   .     A
C363   C367    1.413   .     A
C364   C368    1.402   .     A
C364   C902    1.425   1_554 S
C364   C905    1.420   1_554 S
C365   C366    1.391   .     A
C365   C904    1.420   .     S
C365   C924    1.404   .     S
C366   C367    1.387   .     A
C366   H398    1.084   .     S
C367   H404    1.079   .     S
C368   C385    1.398   .     A
C368   H400    1.076   .     S
C369   C385    1.399   .     A
C369   C384    1.393   .     A
C369   H391    1.083   .     S
C370   C386    1.403   .     A
C370   C372    1.476   .     S
C371   C418    1.484   .     S
C371   C377    1.419   .     A
C371   C13     1.392   1_565 S
C372   O410    1.295   .     A
C372   O409    1.303   .     A
C373   H392    1.085   .     S
C373   C374    1.397   .     A
C374   C382    1.444   .     S
C374   C375    1.396   .     A
C375   H393    1.084   .     S
C376   H394    1.083   .     S
C376   C377    1.402   .     A
C376   C15     1.382   1_565 S
C378   H395    1.082   .     S
C378   N406    1.353   .     A
C378   C439    1.418   .     S
C379   N405    1.390   .     A
C379   C415    1.484   .     S
C379   C498    1.418   1_455 S
C380   N405    1.367   .     A
C380   H396    1.082   .     S
C380   C501    1.418   1_455 S
C381   H397    1.082   .     S
C381   N406    1.368   .     A
C381   C440    1.418   .     S
C382   O411    1.291   .     A
C382   O412    1.292   .     A
C383   O413    1.295   .     A
C383   C385    1.464   .     S
C383   O414    1.298   .     A
C384   C905    1.404   1_554 S
C384   H939    1.084   1_554 S
C386   C387    1.386   .     A
C386   H401    1.082   .     S
C387   C928    1.390   .     S
C387   H943    1.083   .     S
C388   H402    1.077   .     S
C388   C927    1.390   1_554 S
C388   C902    1.418   1_554 S
Cu389  O413    1.939   .     S
Cu389  O409    1.954   .     S
Cu389  Cu390   2.684   .     S
Cu389  O407    1.961   .     S
Cu389  O411    1.959   .     S
Cu389  N405    2.017   .     S
Cu390  O410    1.939   .     S
Cu390  O414    1.954   .     S
Cu390  O408    1.959   .     S
Cu390  N406    2.017   .     S
Cu390  O412    1.961   .     S
H399   C924    1.084   .     S
H403   C927    1.083   1_554 S
C415   H416    1.071   .     S
C415   O537    1.222   1_455 S
O417   C475    1.222   .     S
C418   H419    1.086   .     S
C418   O420    1.221   .     D
C421   O468    1.291   .     A
C421   C437    1.452   .     S
C421   O467    1.295   .     A
C422   C423    1.420   .     A
C422   C964    1.425   .     S
C422   C988    1.418   .     S
C423   C430    1.423   .     A
C423   C427    1.413   .     A
C424   C428    1.402   .     A
C424   C962    1.425   1_554 S
C424   C965    1.420   1_554 S
C425   C426    1.391   .     A
C425   C964    1.420   .     S
C425   C984    1.404   .     S
C426   C427    1.387   .     A
C426   H458    1.084   .     S
C427   H464    1.079   .     S
C428   C445    1.398   .     A
C428   H460    1.076   .     S
C429   C445    1.399   .     A
C429   C444    1.393   .     A
C429   H451    1.083   .     S
C430   C446    1.403   .     A
C430   C432    1.476   .     S
C431   C478    1.484   .     S
C431   C437    1.419   .     A
C431   C73     1.392   1_565 S
C432   O470    1.295   .     A
C432   O469    1.303   .     A
C433   H452    1.085   .     S
C433   C434    1.397   .     A
C434   C442    1.444   .     S
C434   C435    1.396   .     A
C435   H453    1.084   .     S
C436   H454    1.083   .     S
C436   C437    1.402   .     A
C436   C75     1.382   1_565 S
C438   H455    1.082   .     S
C438   N466    1.353   .     A
C438   C499    1.418   .     S
C439   N465    1.390   .     A
C439   C475    1.484   .     S
C440   N465    1.367   .     A
C440   H456    1.082   .     S
C441   H457    1.082   .     S
C441   N466    1.368   .     A
C441   C500    1.418   .     S
C442   O471    1.291   .     A
C442   O472    1.292   .     A
C443   O473    1.295   .     A
C443   C445    1.464   .     S
C443   O474    1.298   .     A
C444   C965    1.404   1_554 S
C444   H999    1.084   1_554 S
C446   C447    1.386   .     A
C446   H461    1.082   .     S
C447   C988    1.390   .     S
C447   H1003   1.083   .     S
C448   H462    1.077   .     S
C448   C987    1.390   1_554 S
C448   C962    1.418   1_554 S
Cu449  O473    1.939   .     S
Cu449  O469    1.954   .     S
Cu449  Cu450   2.684   .     S
Cu449  O467    1.961   .     S
Cu449  O471    1.959   .     S
Cu449  N465    2.017   .     S
Cu450  O470    1.939   .     S
Cu450  O474    1.954   .     S
Cu450  O468    1.959   .     S
Cu450  N466    2.017   .     S
Cu450  O472    1.961   .     S
H459   C984    1.084   .     S
H463   C987    1.083   1_554 S
C475   H476    1.071   .     S
O477   C535    1.222   .     S
C478   H479    1.086   .     S
C478   O480    1.221   .     D
C481   O528    1.291   .     A
C481   C497    1.452   .     S
C481   O527    1.295   .     A
C482   C483    1.420   .     A
C482   C1024   1.425   .     S
C482   C1048   1.418   .     S
C483   C490    1.423   .     A
C483   C487    1.413   .     A
C484   C488    1.402   .     A
C484   C1022   1.425   1_554 S
C484   C1025   1.420   1_554 S
C485   C486    1.391   .     A
C485   C1024   1.420   .     S
C485   C1044   1.404   .     S
C486   C487    1.387   .     A
C486   H518    1.084   .     S
C487   H524    1.079   .     S
C488   C505    1.398   .     A
C488   H520    1.076   .     S
C489   C505    1.399   .     A
C489   C504    1.393   .     A
C489   H511    1.083   .     S
C490   C506    1.403   .     A
C490   C492    1.476   .     S
C491   C538    1.484   .     S
C491   C497    1.419   .     A
C491   C133    1.392   1_565 S
C492   O530    1.295   .     A
C492   O529    1.303   .     A
C493   H512    1.085   .     S
C493   C494    1.397   .     A
C494   C502    1.444   .     S
C494   C495    1.396   .     A
C495   H513    1.084   .     S
C496   H514    1.083   .     S
C496   C497    1.402   .     A
C496   C135    1.382   1_565 S
C498   H515    1.082   .     S
C498   N526    1.353   .     A
C498   C379    1.418   1_655 S
C499   N525    1.390   .     A
C499   C535    1.484   .     S
C500   N525    1.367   .     A
C500   H516    1.082   .     S
C501   H517    1.082   .     S
C501   N526    1.368   .     A
C501   C380    1.418   1_655 S
C502   O531    1.291   .     A
C502   O532    1.292   .     A
C503   O533    1.295   .     A
C503   C505    1.464   .     S
C503   O534    1.298   .     A
C504   C1025   1.404   1_554 S
C504   H1059   1.084   1_554 S
C506   C507    1.386   .     A
C506   H521    1.082   .     S
C507   C1048   1.390   .     S
C507   H1063   1.083   .     S
C508   H522    1.077   .     S
C508   C1047   1.390   1_554 S
C508   C1022   1.418   1_554 S
Cu509  O533    1.939   .     S
Cu509  O529    1.954   .     S
Cu509  Cu510   2.684   .     S
Cu509  O527    1.961   .     S
Cu509  O531    1.959   .     S
Cu509  N525    2.017   .     S
Cu510  O530    1.939   .     S
Cu510  O534    1.954   .     S
Cu510  O528    1.959   .     S
Cu510  N526    2.017   .     S
Cu510  O532    1.961   .     S
H519   C1044   1.084   .     S
H523   C1047   1.083   1_554 S
C535   H536    1.071   .     S
O537   C415    1.222   1_655 S
C538   H539    1.086   .     S
C538   O540    1.221   .     D
C541   O588    1.291   .     A
C541   C557    1.452   .     S
C541   O587    1.295   .     A
C542   C543    1.420   .     A
C542   C4      1.425   1_556 S
C542   C28     1.418   1_556 S
C543   C550    1.423   .     A
C543   C547    1.413   .     A
C544   C548    1.402   .     A
C545   C546    1.391   .     A
C545   C4      1.420   1_556 S
C545   C24     1.404   1_556 S
C546   C547    1.387   .     A
C546   H578    1.084   .     S
C547   H584    1.079   .     S
C548   C565    1.398   .     A
C548   H580    1.076   .     S
C549   C565    1.399   .     A
C549   C564    1.393   .     A
C549   H571    1.083   .     S
C550   C566    1.403   .     A
C550   C552    1.476   .     S
C551   C598    1.484   .     S
C551   C557    1.419   .     A
C551   C733    1.392   .     S
C552   O590    1.295   .     A
C552   O589    1.303   .     A
C553   H572    1.085   .     S
C553   C554    1.397   .     A
C553   C911    1.392   1_545 S
C554   C562    1.444   .     S
C554   C555    1.396   .     A
C555   H573    1.084   .     S
C555   C916    1.382   1_545 S
C556   H574    1.083   .     S
C556   C557    1.402   .     A
C556   C735    1.382   .     S
C558   H575    1.082   .     S
C558   N586    1.353   .     A
C558   C619    1.418   .     S
C559   N585    1.390   .     A
C559   C595    1.484   .     S
C559   C678    1.418   1_455 S
C560   N585    1.367   .     A
C560   H576    1.082   .     S
C560   C681    1.418   1_455 S
C561   H577    1.082   .     S
C561   N586    1.368   .     A
C561   C620    1.418   .     S
C562   O591    1.291   .     A
C562   O592    1.292   .     A
C563   O593    1.295   .     A
C563   C565    1.464   .     S
C563   O594    1.298   .     A
C566   C567    1.386   .     A
C566   H581    1.082   .     S
C567   C28     1.390   1_556 S
C567   H43     1.083   1_556 S
C568   H582    1.077   .     S
Cu569  O593    1.939   .     S
Cu569  O589    1.954   .     S
Cu569  Cu570   2.684   .     S
Cu569  O587    1.961   .     S
Cu569  O591    1.959   .     S
Cu569  N585    2.017   .     S
Cu570  O590    1.939   .     S
Cu570  O594    1.954   .     S
Cu570  O588    1.959   .     S
Cu570  N586    2.017   .     S
Cu570  O592    1.961   .     S
H579   C24     1.084   1_556 S
C595   H596    1.071   .     S
C595   O717    1.222   1_455 S
O597   C655    1.222   .     S
C598   H599    1.086   .     S
C598   O600    1.221   .     D
C601   O648    1.291   .     A
C601   C617    1.452   .     S
C601   O647    1.295   .     A
C602   C603    1.420   .     A
C602   C64     1.425   1_556 S
C602   C88     1.418   1_556 S
C603   C610    1.423   .     A
C603   C607    1.413   .     A
C604   C608    1.402   .     A
C605   C606    1.391   .     A
C605   C64     1.420   1_556 S
C605   C84     1.404   1_556 S
C606   C607    1.387   .     A
C606   H638    1.084   .     S
C607   H644    1.079   .     S
C608   C625    1.398   .     A
C608   H640    1.076   .     S
C609   C625    1.399   .     A
C609   C624    1.393   .     A
C609   H631    1.083   .     S
C610   C626    1.403   .     A
C610   C612    1.476   .     S
C611   C658    1.484   .     S
C611   C617    1.419   .     A
C611   C793    1.392   .     S
C612   O650    1.295   .     A
C612   O649    1.303   .     A
C613   H632    1.085   .     S
C613   C614    1.397   .     A
C613   C971    1.392   1_545 S
C614   C622    1.444   .     S
C614   C615    1.396   .     A
C615   H633    1.084   .     S
C615   C976    1.382   1_545 S
C616   H634    1.083   .     S
C616   C617    1.402   .     A
C616   C795    1.382   .     S
C618   H635    1.082   .     S
C618   N646    1.353   .     A
C618   C679    1.418   .     S
C619   N645    1.390   .     A
C619   C655    1.484   .     S
C620   N645    1.367   .     A
C620   H636    1.082   .     S
C621   H637    1.082   .     S
C621   N646    1.368   .     A
C621   C680    1.418   .     S
C622   O651    1.291   .     A
C622   O652    1.292   .     A
C623   O653    1.295   .     A
C623   C625    1.464   .     S
C623   O654    1.298   .     A
C626   C627    1.386   .     A
C626   H641    1.082   .     S
C627   C88     1.390   1_556 S
C627   H103    1.083   1_556 S
C628   H642    1.077   .     S
Cu629  O653    1.939   .     S
Cu629  O649    1.954   .     S
Cu629  Cu630   2.684   .     S
Cu629  O647    1.961   .     S
Cu629  O651    1.959   .     S
Cu629  N645    2.017   .     S
Cu630  O650    1.939   .     S
Cu630  O654    1.954   .     S
Cu630  O648    1.959   .     S
Cu630  N646    2.017   .     S
Cu630  O652    1.961   .     S
H639   C84     1.084   1_556 S
C655   H656    1.071   .     S
O657   C715    1.222   .     S
C658   H659    1.086   .     S
C658   O660    1.221   .     D
C661   O708    1.291   .     A
C661   C677    1.452   .     S
C661   O707    1.295   .     A
C662   C663    1.420   .     A
C662   C124    1.425   1_556 S
C662   C148    1.418   1_556 S
C663   C670    1.423   .     A
C663   C667    1.413   .     A
C664   C668    1.402   .     A
C665   C666    1.391   .     A
C665   C124    1.420   1_556 S
C665   C144    1.404   1_556 S
C666   C667    1.387   .     A
C666   H698    1.084   .     S
C667   H704    1.079   .     S
C668   C685    1.398   .     A
C668   H700    1.076   .     S
C669   C685    1.399   .     A
C669   C684    1.393   .     A
C669   H691    1.083   .     S
C670   C686    1.403   .     A
C670   C672    1.476   .     S
C671   C718    1.484   .     S
C671   C677    1.419   .     A
C671   C853    1.392   .     S
C672   O710    1.295   .     A
C672   O709    1.303   .     A
C673   H692    1.085   .     S
C673   C674    1.397   .     A
C673   C1031   1.392   1_545 S
C674   C682    1.444   .     S
C674   C675    1.396   .     A
C675   H693    1.084   .     S
C675   C1036   1.382   1_545 S
C676   H694    1.083   .     S
C676   C677    1.402   .     A
C676   C855    1.382   .     S
C678   H695    1.082   .     S
C678   N706    1.353   .     A
C678   C559    1.418   1_655 S
C679   N705    1.390   .     A
C679   C715    1.484   .     S
C680   N705    1.367   .     A
C680   H696    1.082   .     S
C681   H697    1.082   .     S
C681   N706    1.368   .     A
C681   C560    1.418   1_655 S
C682   O711    1.291   .     A
C682   O712    1.292   .     A
C683   O713    1.295   .     A
C683   C685    1.464   .     S
C683   O714    1.298   .     A
C686   C687    1.386   .     A
C686   H701    1.082   .     S
C687   C148    1.390   1_556 S
C687   H163    1.083   1_556 S
C688   H702    1.077   .     S
Cu689  O713    1.939   .     S
Cu689  O709    1.954   .     S
Cu689  Cu690   2.684   .     S
Cu689  O707    1.961   .     S
Cu689  O711    1.959   .     S
Cu689  N705    2.017   .     S
Cu690  O710    1.939   .     S
Cu690  O714    1.954   .     S
Cu690  O708    1.959   .     S
Cu690  N706    2.017   .     S
Cu690  O712    1.961   .     S
H699   C144    1.084   1_556 S
C715   H716    1.071   .     S
O717   C595    1.222   1_655 S
C718   H719    1.086   .     S
C718   O720    1.221   .     D
C721   O768    1.291   .     A
C721   C737    1.452   .     S
C721   O767    1.295   .     A
C722   C723    1.420   .     A
C722   C184    1.425   1_556 S
C722   C208    1.418   1_556 S
C723   C730    1.423   .     A
C723   C727    1.413   .     A
C724   C728    1.402   .     A
C725   C726    1.391   .     A
C725   C184    1.420   1_556 S
C725   C204    1.404   1_556 S
C726   C727    1.387   .     A
C726   H758    1.084   .     S
C727   H764    1.079   .     S
C728   C745    1.398   .     A
C728   H760    1.076   .     S
C729   C745    1.399   .     A
C729   C744    1.393   .     A
C729   H751    1.083   .     S
C730   C746    1.403   .     A
C730   C732    1.476   .     S
C731   C778    1.484   .     S
C731   C737    1.419   .     A
C731   C913    1.392   .     S
C732   O770    1.295   .     A
C732   O769    1.303   .     A
C733   H752    1.085   .     S
C733   C734    1.397   .     A
C734   C742    1.444   .     S
C734   C735    1.396   .     A
C735   H753    1.084   .     S
C736   H754    1.083   .     S
C736   C737    1.402   .     A
C736   C915    1.382   .     S
C738   H755    1.082   .     S
C738   N766    1.353   .     A
C738   C799    1.418   .     S
C739   N765    1.390   .     A
C739   C775    1.484   .     S
C739   C858    1.418   1_455 S
C740   N765    1.367   .     A
C740   H756    1.082   .     S
C740   C861    1.418   1_455 S
C741   H757    1.082   .     S
C741   N766    1.368   .     A
C741   C800    1.418   .     S
C742   O771    1.291   .     A
C742   O772    1.292   .     A
C743   O773    1.295   .     A
C743   C745    1.464   .     S
C743   O774    1.298   .     A
C746   C747    1.386   .     A
C746   H761    1.082   .     S
C747   C208    1.390   1_556 S
C747   H223    1.083   1_556 S
C748   H762    1.077   .     S
Cu749  O773    1.939   .     S
Cu749  O769    1.954   .     S
Cu749  Cu750   2.684   .     S
Cu749  O767    1.961   .     S
Cu749  O771    1.959   .     S
Cu749  N765    2.017   .     S
Cu750  O770    1.939   .     S
Cu750  O774    1.954   .     S
Cu750  O768    1.959   .     S
Cu750  N766    2.017   .     S
Cu750  O772    1.961   .     S
H759   C204    1.084   1_556 S
C775   H776    1.071   .     S
C775   O897    1.222   1_455 S
O777   C835    1.222   .     S
C778   H779    1.086   .     S
C778   O780    1.221   .     D
C781   O828    1.291   .     A
C781   C797    1.452   .     S
C781   O827    1.295   .     A
C782   C783    1.420   .     A
C782   C244    1.425   1_556 S
C782   C268    1.418   1_556 S
C783   C790    1.423   .     A
C783   C787    1.413   .     A
C784   C788    1.402   .     A
C785   C786    1.391   .     A
C785   C244    1.420   1_556 S
C785   C264    1.404   1_556 S
C786   C787    1.387   .     A
C786   H818    1.084   .     S
C787   H824    1.079   .     S
C788   C805    1.398   .     A
C788   H820    1.076   .     S
C789   C805    1.399   .     A
C789   C804    1.393   .     A
C789   H811    1.083   .     S
C790   C806    1.403   .     A
C790   C792    1.476   .     S
C791   C838    1.484   .     S
C791   C797    1.419   .     A
C791   C973    1.392   .     S
C792   O830    1.295   .     A
C792   O829    1.303   .     A
C793   H812    1.085   .     S
C793   C794    1.397   .     A
C794   C802    1.444   .     S
C794   C795    1.396   .     A
C795   H813    1.084   .     S
C796   H814    1.083   .     S
C796   C797    1.402   .     A
C796   C975    1.382   .     S
C798   H815    1.082   .     S
C798   N826    1.353   .     A
C798   C859    1.418   .     S
C799   N825    1.390   .     A
C799   C835    1.484   .     S
C800   N825    1.367   .     A
C800   H816    1.082   .     S
C801   H817    1.082   .     S
C801   N826    1.368   .     A
C801   C860    1.418   .     S
C802   O831    1.291   .     A
C802   O832    1.292   .     A
C803   O833    1.295   .     A
C803   C805    1.464   .     S
C803   O834    1.298   .     A
C806   C807    1.386   .     A
C806   H821    1.082   .     S
C807   C268    1.390   1_556 S
C807   H283    1.083   1_556 S
C808   H822    1.077   .     S
Cu809  O833    1.939   .     S
Cu809  O829    1.954   .     S
Cu809  Cu810   2.684   .     S
Cu809  O827    1.961   .     S
Cu809  O831    1.959   .     S
Cu809  N825    2.017   .     S
Cu810  O830    1.939   .     S
Cu810  O834    1.954   .     S
Cu810  O828    1.959   .     S
Cu810  N826    2.017   .     S
Cu810  O832    1.961   .     S
H819   C264    1.084   1_556 S
C835   H836    1.071   .     S
O837   C895    1.222   .     S
C838   H839    1.086   .     S
C838   O840    1.221   .     D
C841   O888    1.291   .     A
C841   C857    1.452   .     S
C841   O887    1.295   .     A
C842   C843    1.420   .     A
C842   C304    1.425   1_556 S
C842   C328    1.418   1_556 S
C843   C850    1.423   .     A
C843   C847    1.413   .     A
C844   C848    1.402   .     A
C845   C846    1.391   .     A
C845   C304    1.420   1_556 S
C845   C324    1.404   1_556 S
C846   C847    1.387   .     A
C846   H878    1.084   .     S
C847   H884    1.079   .     S
C848   C865    1.398   .     A
C848   H880    1.076   .     S
C849   C865    1.399   .     A
C849   C864    1.393   .     A
C849   H871    1.083   .     S
C850   C866    1.403   .     A
C850   C852    1.476   .     S
C851   C898    1.484   .     S
C851   C857    1.419   .     A
C851   C1033   1.392   .     S
C852   O890    1.295   .     A
C852   O889    1.303   .     A
C853   H872    1.085   .     S
C853   C854    1.397   .     A
C854   C862    1.444   .     S
C854   C855    1.396   .     A
C855   H873    1.084   .     S
C856   H874    1.083   .     S
C856   C857    1.402   .     A
C856   C1035   1.382   .     S
C858   H875    1.082   .     S
C858   N886    1.353   .     A
C858   C739    1.418   1_655 S
C859   N885    1.390   .     A
C859   C895    1.484   .     S
C860   N885    1.367   .     A
C860   H876    1.082   .     S
C861   H877    1.082   .     S
C861   N886    1.368   .     A
C861   C740    1.418   1_655 S
C862   O891    1.291   .     A
C862   O892    1.292   .     A
C863   O893    1.295   .     A
C863   C865    1.464   .     S
C863   O894    1.298   .     A
C866   C867    1.386   .     A
C866   H881    1.082   .     S
C867   C328    1.390   1_556 S
C867   H343    1.083   1_556 S
C868   H882    1.077   .     S
Cu869  O893    1.939   .     S
Cu869  O889    1.954   .     S
Cu869  Cu870   2.684   .     S
Cu869  O887    1.961   .     S
Cu869  O891    1.959   .     S
Cu869  N885    2.017   .     S
Cu870  O890    1.939   .     S
Cu870  O894    1.954   .     S
Cu870  O888    1.959   .     S
Cu870  N886    2.017   .     S
Cu870  O892    1.961   .     S
H879   C324    1.084   1_556 S
C895   H896    1.071   .     S
O897   C775    1.222   1_655 S
C898   H899    1.086   .     S
C898   O900    1.221   .     D
C901   O948    1.291   .     A
C901   C917    1.452   .     S
C901   O947    1.295   .     A
C902   C903    1.420   .     A
C902   C364    1.425   1_556 S
C902   C388    1.418   1_556 S
C903   C910    1.423   .     A
C903   C907    1.413   .     A
C904   C908    1.402   .     A
C905   C906    1.391   .     A
C905   C364    1.420   1_556 S
C905   C384    1.404   1_556 S
C906   C907    1.387   .     A
C906   H938    1.084   .     S
C907   H944    1.079   .     S
C908   C925    1.398   .     A
C908   H940    1.076   .     S
C909   C925    1.399   .     A
C909   C924    1.393   .     A
C909   H931    1.083   .     S
C910   C926    1.403   .     A
C910   C912    1.476   .     S
C911   C958    1.484   .     S
C911   C917    1.419   .     A
C911   C553    1.392   1_565 S
C912   O950    1.295   .     A
C912   O949    1.303   .     A
C913   H932    1.085   .     S
C913   C914    1.397   .     A
C914   C922    1.444   .     S
C914   C915    1.396   .     A
C915   H933    1.084   .     S
C916   H934    1.083   .     S
C916   C917    1.402   .     A
C916   C555    1.382   1_565 S
C918   H935    1.082   .     S
C918   N946    1.353   .     A
C918   C979    1.418   .     S
C919   N945    1.390   .     A
C919   C955    1.484   .     S
C919   C1038   1.418   1_455 S
C920   N945    1.367   .     A
C920   H936    1.082   .     S
C920   C1041   1.418   1_455 S
C921   H937    1.082   .     S
C921   N946    1.368   .     A
C921   C980    1.418   .     S
C922   O951    1.291   .     A
C922   O952    1.292   .     A
C923   O953    1.295   .     A
C923   C925    1.464   .     S
C923   O954    1.298   .     A
C926   C927    1.386   .     A
C926   H941    1.082   .     S
C927   C388    1.390   1_556 S
C927   H403    1.083   1_556 S
C928   H942    1.077   .     S
Cu929  O953    1.939   .     S
Cu929  O949    1.954   .     S
Cu929  Cu930   2.684   .     S
Cu929  O947    1.961   .     S
Cu929  O951    1.959   .     S
Cu929  N945    2.017   .     S
Cu930  O950    1.939   .     S
Cu930  O954    1.954   .     S
Cu930  O948    1.959   .     S
Cu930  N946    2.017   .     S
Cu930  O952    1.961   .     S
H939   C384    1.084   1_556 S
C955   H956    1.071   .     S
C955   O1077   1.222   1_455 S
O957   C1015   1.222   .     S
C958   H959    1.086   .     S
C958   O960    1.221   .     D
C961   O1008   1.291   .     A
C961   C977    1.452   .     S
C961   O1007   1.295   .     A
C962   C963    1.420   .     A
C962   C424    1.425   1_556 S
C962   C448    1.418   1_556 S
C963   C970    1.423   .     A
C963   C967    1.413   .     A
C964   C968    1.402   .     A
C965   C966    1.391   .     A
C965   C424    1.420   1_556 S
C965   C444    1.404   1_556 S
C966   C967    1.387   .     A
C966   H998    1.084   .     S
C967   H1004   1.079   .     S
C968   C985    1.398   .     A
C968   H1000   1.076   .     S
C969   C985    1.399   .     A
C969   C984    1.393   .     A
C969   H991    1.083   .     S
C970   C986    1.403   .     A
C970   C972    1.476   .     S
C971   C1018   1.484   .     S
C971   C977    1.419   .     A
C971   C613    1.392   1_565 S
C972   O1010   1.295   .     A
C972   O1009   1.303   .     A
C973   H992    1.085   .     S
C973   C974    1.397   .     A
C974   C982    1.444   .     S
C974   C975    1.396   .     A
C975   H993    1.084   .     S
C976   H994    1.083   .     S
C976   C977    1.402   .     A
C976   C615    1.382   1_565 S
C978   H995    1.082   .     S
C978   N1006   1.353   .     A
C978   C1039   1.418   .     S
C979   N1005   1.390   .     A
C979   C1015   1.484   .     S
C980   N1005   1.367   .     A
C980   H996    1.082   .     S
C981   H997    1.082   .     S
C981   N1006   1.368   .     A
C981   C1040   1.418   .     S
C982   O1011   1.291   .     A
C982   O1012   1.292   .     A
C983   O1013   1.295   .     A
C983   C985    1.464   .     S
C983   O1014   1.298   .     A
C986   C987    1.386   .     A
C986   H1001   1.082   .     S
C987   C448    1.390   1_556 S
C987   H463    1.083   1_556 S
C988   H1002   1.077   .     S
Cu989  O1013   1.939   .     S
Cu989  O1009   1.954   .     S
Cu989  Cu990   2.684   .     S
Cu989  O1007   1.961   .     S
Cu989  O1011   1.959   .     S
Cu989  N1005   2.017   .     S
Cu990  O1010   1.939   .     S
Cu990  O1014   1.954   .     S
Cu990  O1008   1.959   .     S
Cu990  N1006   2.017   .     S
Cu990  O1012   1.961   .     S
H999   C444    1.084   1_556 S
C1015  H1016   1.071   .     S
O1017  C1075   1.222   .     S
C1018  H1019   1.086   .     S
C1018  O1020   1.221   .     D
C1021  O1068   1.291   .     A
C1021  C1037   1.452   .     S
C1021  O1067   1.295   .     A
C1022  C1023   1.420   .     A
C1022  C484    1.425   1_556 S
C1022  C508    1.418   1_556 S
C1023  C1030   1.423   .     A
C1023  C1027   1.413   .     A
C1024  C1028   1.402   .     A
C1025  C1026   1.391   .     A
C1025  C484    1.420   1_556 S
C1025  C504    1.404   1_556 S
C1026  C1027   1.387   .     A
C1026  H1058   1.084   .     S
C1027  H1064   1.079   .     S
C1028  C1045   1.398   .     A
C1028  H1060   1.076   .     S
C1029  C1045   1.399   .     A
C1029  C1044   1.393   .     A
C1029  H1051   1.083   .     S
C1030  C1046   1.403   .     A
C1030  C1032   1.476   .     S
C1031  C1078   1.484   .     S
C1031  C1037   1.419   .     A
C1031  C673    1.392   1_565 S
C1032  O1070   1.295   .     A
C1032  O1069   1.303   .     A
C1033  H1052   1.085   .     S
C1033  C1034   1.397   .     A
C1034  C1042   1.444   .     S
C1034  C1035   1.396   .     A
C1035  H1053   1.084   .     S
C1036  H1054   1.083   .     S
C1036  C1037   1.402   .     A
C1036  C675    1.382   1_565 S
C1038  H1055   1.082   .     S
C1038  N1066   1.353   .     A
C1038  C919    1.418   1_655 S
C1039  N1065   1.390   .     A
C1039  C1075   1.484   .     S
C1040  N1065   1.367   .     A
C1040  H1056   1.082   .     S
C1041  H1057   1.082   .     S
C1041  N1066   1.368   .     A
C1041  C920    1.418   1_655 S
C1042  O1071   1.291   .     A
C1042  O1072   1.292   .     A
C1043  O1073   1.295   .     A
C1043  C1045   1.464   .     S
C1043  O1074   1.298   .     A
C1046  C1047   1.386   .     A
C1046  H1061   1.082   .     S
C1047  C508    1.390   1_556 S
C1047  H523    1.083   1_556 S
C1048  H1062   1.077   .     S
Cu1049 O1073   1.939   .     S
Cu1049 O1069   1.954   .     S
Cu1049 Cu1050  2.684   .     S
Cu1049 O1067   1.961   .     S
Cu1049 O1071   1.959   .     S
Cu1049 N1065   2.017   .     S
Cu1050 O1070   1.939   .     S
Cu1050 O1074   1.954   .     S
Cu1050 O1068   1.959   .     S
Cu1050 N1066   2.017   .     S
Cu1050 O1072   1.961   .     S
H1059  C504    1.084   1_556 S
C1075  H1076   1.071   .     S
O1077  C955    1.222   1_655 S
C1078  H1079   1.086   .     S
C1078  O1080   1.221   .     D
