data_str_m3_o1_o10_pcu_sym.148
_audit_creation_date              2020-01-03
_audit_creation_method            'Materials Studio'
_symmetry_space_group_name_H-M    'P1'
_symmetry_Int_Tables_number       1
_symmetry_cell_setting            triclinic
loop_
_symmetry_equiv_pos_as_xyz
  x,y,z
_cell_length_a                    25.7390
_cell_length_b                    32.0648
_cell_length_c                    29.7850
_cell_angle_alpha                 90.1440
_cell_angle_beta                  97.5255
_cell_angle_gamma                 92.3693
loop_
_atom_site_label
_atom_site_type_symbol
_atom_site_fract_x
_atom_site_fract_y
_atom_site_fract_z
_atom_site_U_iso_or_equiv
_atom_site_adp_type
_atom_site_occupancy
C1     C     0.17378   0.08729   0.16728   0.00000  Uiso   1.00
C2     C     0.16210   0.24666   0.16606   0.00000  Uiso   1.00
C3     C     0.06751   0.16365   0.15542   0.00000  Uiso   1.00
C4     C     0.26621   0.16844   0.17788   0.00000  Uiso   1.00
C5     C     0.01335   0.15491   0.15264   0.00000  Uiso   1.00
C6     C     0.32087   0.17645   0.18053   0.00000  Uiso   1.00
C7     C     0.18032   0.02139   0.12625   0.00000  Uiso   1.00
C8     C     0.16274   0.31370   0.20629   0.00000  Uiso   1.00
C9     C     0.16444   0.31299   0.12423   0.00000  Uiso   1.00
C10    C     0.18105   0.02137   0.20818   0.00000  Uiso   1.00
C11    C     0.15944   0.29163   0.16505   0.00000  Uiso   1.00
C12    C     0.18241   0.04307   0.16761   0.00000  Uiso   1.00
C13    C     0.20358   0.18994   0.02806   0.00000  Uiso   1.00
C14    C     0.12801   0.14488   0.30478   0.00000  Uiso   1.00
C15    C     0.20020   0.19293   0.31343   0.00000  Uiso   1.00
C16    C     0.12790   0.14517   0.01969   0.00000  Uiso   1.00
N17    N     0.16665   0.16666   0.28573   0.00000  Uiso   1.00
N18    N     0.16668   0.16668   0.04760   0.00000  Uiso   1.00
O19    O     0.16666   0.10558   0.20487   0.00000  Uiso   1.00
O20    O     0.16667   0.22775   0.12846   0.00000  Uiso   1.00
O21    O     0.16666   0.10559   0.12843   0.00000  Uiso   1.00
O22    O     0.16667   0.22774   0.20490   0.00000  Uiso   1.00
O23    O     0.09058   0.16666   0.19595   0.00000  Uiso   1.00
O24    O     0.24275   0.16667   0.13739   0.00000  Uiso   1.00
O25    O     0.09058   0.16667   0.11950   0.00000  Uiso   1.00
O26    O     0.24275   0.16666   0.21383   0.00000  Uiso   1.00
Zn27   Zn    0.16667   0.16666   0.21771   0.00000  Uiso   1.00
Zn28   Zn    0.16667   0.16667   0.11563   0.00000  Uiso   1.00
Br29   Br    0.32025   0.10467   0.12051   0.00000  Uiso   1.00
Br30   Br    0.01532   0.23011   0.20479   0.00000  Uiso   1.00
Br31   Br    0.20697   0.04570   0.07386   0.00000  Uiso   1.00
Br32   Br    0.13056   0.29314   0.25734   0.00000  Uiso   1.00
Br33   Br    0.14206   0.28900   0.06448   0.00000  Uiso   1.00
Br34   Br    0.21330   0.04422   0.26584   0.00000  Uiso   1.00
N35    N     0.24202   0.21569   0.05514   0.00000  Uiso   1.00
H36    H     0.23456   0.22557   0.08620   0.00000  Uiso   1.00
C37    C     0.29671   0.20911   0.05181   0.00000  Uiso   1.00
H38    H     0.31750   0.20210   0.08548   0.00000  Uiso   1.00
H39    H     0.31545   0.23822   0.04041   0.00000  Uiso   1.00
H40    H     0.30171   0.18292   0.02847   0.00000  Uiso   1.00
N41    N     0.08282   0.12940   0.27593   0.00000  Uiso   1.00
H42    H     0.04786   0.14115   0.28247   0.00000  Uiso   1.00
C43    C     0.07934   0.08550   0.26407   0.00000  Uiso   1.00
H44    H     0.07453   0.08199   0.22669   0.00000  Uiso   1.00
H45    H     0.04448   0.07016   0.27639   0.00000  Uiso   1.00
H46    H     0.11456   0.06929   0.27886   0.00000  Uiso   1.00
N47    N     0.21867   0.23093   0.29555   0.00000  Uiso   1.00
H48    H     0.21314   0.25703   0.31442   0.00000  Uiso   1.00
C49    C     0.26910   0.23229   0.27978   0.00000  Uiso   1.00
H50    H     0.29584   0.25597   0.29910   0.00000  Uiso   1.00
H51    H     0.26307   0.24273   0.24425   0.00000  Uiso   1.00
H52    H     0.28774   0.20161   0.28278   0.00000  Uiso   1.00
N53    N     0.08453   0.12719   0.03887   0.00000  Uiso   1.00
H54    H     0.04953   0.14107   0.02880   0.00000  Uiso   1.00
C55    C     0.07997   0.08210   0.04088   0.00000  Uiso   1.00
H56    H     0.04105   0.07068   0.02370   0.00000  Uiso   1.00
H57    H     0.08316   0.07230   0.07677   0.00000  Uiso   1.00
H58    H     0.11076   0.06712   0.02453   0.00000  Uiso   1.00
C59    C     0.50711   0.08729   0.16728   0.00000  Uiso   1.00
C60    C     0.49543   0.24666   0.16606   0.00000  Uiso   1.00
C61    C     0.40084   0.16365   0.15542   0.00000  Uiso   1.00
C62    C     0.59955   0.16844   0.17788   0.00000  Uiso   1.00
C63    C     0.34668   0.15491   0.15264   0.00000  Uiso   1.00
C64    C     0.65420   0.17645   0.18053   0.00000  Uiso   1.00
C65    C     0.51365   0.02139   0.12625   0.00000  Uiso   1.00
C66    C     0.49608   0.31370   0.20629   0.00000  Uiso   1.00
C67    C     0.49778   0.31299   0.12423   0.00000  Uiso   1.00
C68    C     0.51438   0.02137   0.20818   0.00000  Uiso   1.00
C69    C     0.49277   0.29163   0.16505   0.00000  Uiso   1.00
C70    C     0.51575   0.04307   0.16761   0.00000  Uiso   1.00
C71    C     0.53692   0.18994   0.02806   0.00000  Uiso   1.00
C72    C     0.46135   0.14488   0.30478   0.00000  Uiso   1.00
C73    C     0.53353   0.19293   0.31343   0.00000  Uiso   1.00
C74    C     0.46123   0.14517   0.01969   0.00000  Uiso   1.00
N75    N     0.49999   0.16666   0.28573   0.00000  Uiso   1.00
N76    N     0.50001   0.16668   0.04760   0.00000  Uiso   1.00
O77    O     0.50000   0.10558   0.20487   0.00000  Uiso   1.00
O78    O     0.50000   0.22775   0.12846   0.00000  Uiso   1.00
O79    O     0.50000   0.10559   0.12843   0.00000  Uiso   1.00
O80    O     0.50000   0.22774   0.20490   0.00000  Uiso   1.00
O81    O     0.42392   0.16666   0.19595   0.00000  Uiso   1.00
O82    O     0.57608   0.16667   0.13739   0.00000  Uiso   1.00
O83    O     0.42392   0.16667   0.11950   0.00000  Uiso   1.00
O84    O     0.57608   0.16666   0.21383   0.00000  Uiso   1.00
Zn85   Zn    0.50000   0.16666   0.21771   0.00000  Uiso   1.00
Zn86   Zn    0.50000   0.16667   0.11563   0.00000  Uiso   1.00
Br87   Br    0.65358   0.10467   0.12051   0.00000  Uiso   1.00
Br88   Br    0.34865   0.23011   0.20479   0.00000  Uiso   1.00
Br89   Br    0.54030   0.04570   0.07386   0.00000  Uiso   1.00
Br90   Br    0.46390   0.29314   0.25734   0.00000  Uiso   1.00
Br91   Br    0.47539   0.28900   0.06448   0.00000  Uiso   1.00
Br92   Br    0.54663   0.04422   0.26584   0.00000  Uiso   1.00
N93    N     0.57535   0.21569   0.05514   0.00000  Uiso   1.00
H94    H     0.56789   0.22557   0.08620   0.00000  Uiso   1.00
C95    C     0.63004   0.20911   0.05181   0.00000  Uiso   1.00
H96    H     0.65083   0.20210   0.08548   0.00000  Uiso   1.00
H97    H     0.64878   0.23822   0.04041   0.00000  Uiso   1.00
H98    H     0.63505   0.18292   0.02847   0.00000  Uiso   1.00
N99    N     0.41615   0.12940   0.27593   0.00000  Uiso   1.00
H100   H     0.38119   0.14115   0.28247   0.00000  Uiso   1.00
C101   C     0.41268   0.08550   0.26407   0.00000  Uiso   1.00
H102   H     0.40787   0.08199   0.22669   0.00000  Uiso   1.00
H103   H     0.37781   0.07016   0.27639   0.00000  Uiso   1.00
H104   H     0.44790   0.06929   0.27886   0.00000  Uiso   1.00
N105   N     0.55201   0.23093   0.29555   0.00000  Uiso   1.00
H106   H     0.54648   0.25703   0.31442   0.00000  Uiso   1.00
C107   C     0.60243   0.23229   0.27978   0.00000  Uiso   1.00
H108   H     0.62918   0.25597   0.29910   0.00000  Uiso   1.00
H109   H     0.59640   0.24273   0.24425   0.00000  Uiso   1.00
H110   H     0.62107   0.20161   0.28278   0.00000  Uiso   1.00
N111   N     0.41786   0.12719   0.03887   0.00000  Uiso   1.00
H112   H     0.38286   0.14107   0.02880   0.00000  Uiso   1.00
C113   C     0.41330   0.08210   0.04088   0.00000  Uiso   1.00
H114   H     0.37439   0.07068   0.02370   0.00000  Uiso   1.00
H115   H     0.41650   0.07230   0.07677   0.00000  Uiso   1.00
H116   H     0.44409   0.06712   0.02453   0.00000  Uiso   1.00
C117   C     0.84045   0.08729   0.16728   0.00000  Uiso   1.00
C118   C     0.82877   0.24666   0.16606   0.00000  Uiso   1.00
C119   C     0.73417   0.16365   0.15542   0.00000  Uiso   1.00
C120   C     0.93288   0.16844   0.17788   0.00000  Uiso   1.00
C121   C     0.68002   0.15491   0.15264   0.00000  Uiso   1.00
C122   C     0.98753   0.17645   0.18053   0.00000  Uiso   1.00
C123   C     0.84699   0.02139   0.12625   0.00000  Uiso   1.00
C124   C     0.82941   0.31370   0.20629   0.00000  Uiso   1.00
C125   C     0.83111   0.31299   0.12423   0.00000  Uiso   1.00
C126   C     0.84772   0.02137   0.20818   0.00000  Uiso   1.00
C127   C     0.82610   0.29163   0.16505   0.00000  Uiso   1.00
C128   C     0.84908   0.04307   0.16761   0.00000  Uiso   1.00
C129   C     0.87025   0.18994   0.02806   0.00000  Uiso   1.00
C130   C     0.79468   0.14488   0.30478   0.00000  Uiso   1.00
C131   C     0.86687   0.19293   0.31343   0.00000  Uiso   1.00
C132   C     0.79456   0.14517   0.01969   0.00000  Uiso   1.00
N133   N     0.83332   0.16666   0.28573   0.00000  Uiso   1.00
N134   N     0.83335   0.16668   0.04760   0.00000  Uiso   1.00
O135   O     0.83333   0.10558   0.20487   0.00000  Uiso   1.00
O136   O     0.83334   0.22775   0.12846   0.00000  Uiso   1.00
O137   O     0.83333   0.10559   0.12843   0.00000  Uiso   1.00
O138   O     0.83334   0.22774   0.20490   0.00000  Uiso   1.00
O139   O     0.75725   0.16666   0.19595   0.00000  Uiso   1.00
O140   O     0.90942   0.16667   0.13739   0.00000  Uiso   1.00
O141   O     0.75725   0.16667   0.11950   0.00000  Uiso   1.00
O142   O     0.90942   0.16666   0.21383   0.00000  Uiso   1.00
Zn143  Zn    0.83333   0.16666   0.21771   0.00000  Uiso   1.00
Zn144  Zn    0.83333   0.16667   0.11563   0.00000  Uiso   1.00
Br145  Br    0.98691   0.10467   0.12051   0.00000  Uiso   1.00
Br146  Br    0.68198   0.23011   0.20479   0.00000  Uiso   1.00
Br147  Br    0.87363   0.04570   0.07386   0.00000  Uiso   1.00
Br148  Br    0.79723   0.29314   0.25734   0.00000  Uiso   1.00
Br149  Br    0.80872   0.28900   0.06448   0.00000  Uiso   1.00
Br150  Br    0.87996   0.04422   0.26584   0.00000  Uiso   1.00
N151   N     0.90869   0.21569   0.05514   0.00000  Uiso   1.00
H152   H     0.90122   0.22557   0.08620   0.00000  Uiso   1.00
C153   C     0.96338   0.20911   0.05181   0.00000  Uiso   1.00
H154   H     0.98417   0.20210   0.08548   0.00000  Uiso   1.00
H155   H     0.98211   0.23822   0.04041   0.00000  Uiso   1.00
H156   H     0.96838   0.18292   0.02847   0.00000  Uiso   1.00
N157   N     0.74948   0.12940   0.27593   0.00000  Uiso   1.00
H158   H     0.71452   0.14115   0.28247   0.00000  Uiso   1.00
C159   C     0.74601   0.08550   0.26407   0.00000  Uiso   1.00
H160   H     0.74120   0.08199   0.22669   0.00000  Uiso   1.00
H161   H     0.71115   0.07016   0.27639   0.00000  Uiso   1.00
H162   H     0.78123   0.06929   0.27886   0.00000  Uiso   1.00
N163   N     0.88534   0.23093   0.29555   0.00000  Uiso   1.00
H164   H     0.87981   0.25703   0.31442   0.00000  Uiso   1.00
C165   C     0.93577   0.23229   0.27978   0.00000  Uiso   1.00
H166   H     0.96251   0.25597   0.29910   0.00000  Uiso   1.00
H167   H     0.92974   0.24273   0.24425   0.00000  Uiso   1.00
H168   H     0.95440   0.20161   0.28278   0.00000  Uiso   1.00
N169   N     0.75120   0.12719   0.03887   0.00000  Uiso   1.00
H170   H     0.71620   0.14107   0.02880   0.00000  Uiso   1.00
C171   C     0.74664   0.08210   0.04088   0.00000  Uiso   1.00
H172   H     0.70772   0.07068   0.02370   0.00000  Uiso   1.00
H173   H     0.74983   0.07230   0.07677   0.00000  Uiso   1.00
H174   H     0.77742   0.06712   0.02453   0.00000  Uiso   1.00
C175   C     0.17378   0.42062   0.16728   0.00000  Uiso   1.00
C176   C     0.16210   0.57999   0.16606   0.00000  Uiso   1.00
C177   C     0.06751   0.49699   0.15542   0.00000  Uiso   1.00
C178   C     0.26621   0.50177   0.17788   0.00000  Uiso   1.00
C179   C     0.01335   0.48825   0.15264   0.00000  Uiso   1.00
C180   C     0.32087   0.50979   0.18053   0.00000  Uiso   1.00
C181   C     0.18032   0.35472   0.12625   0.00000  Uiso   1.00
C182   C     0.16274   0.64703   0.20629   0.00000  Uiso   1.00
C183   C     0.16444   0.64632   0.12423   0.00000  Uiso   1.00
C184   C     0.18105   0.35470   0.20818   0.00000  Uiso   1.00
C185   C     0.15944   0.62496   0.16505   0.00000  Uiso   1.00
C186   C     0.18241   0.37640   0.16761   0.00000  Uiso   1.00
C187   C     0.20358   0.52327   0.02806   0.00000  Uiso   1.00
C188   C     0.12801   0.47821   0.30478   0.00000  Uiso   1.00
C189   C     0.20020   0.52626   0.31343   0.00000  Uiso   1.00
C190   C     0.12790   0.47850   0.01969   0.00000  Uiso   1.00
N191   N     0.16665   0.49999   0.28573   0.00000  Uiso   1.00
N192   N     0.16668   0.50001   0.04760   0.00000  Uiso   1.00
O193   O     0.16666   0.43892   0.20487   0.00000  Uiso   1.00
O194   O     0.16667   0.56108   0.12846   0.00000  Uiso   1.00
O195   O     0.16666   0.43893   0.12843   0.00000  Uiso   1.00
O196   O     0.16667   0.56107   0.20490   0.00000  Uiso   1.00
O197   O     0.09058   0.50000   0.19595   0.00000  Uiso   1.00
O198   O     0.24275   0.50000   0.13739   0.00000  Uiso   1.00
O199   O     0.09058   0.50000   0.11950   0.00000  Uiso   1.00
O200   O     0.24275   0.50000   0.21383   0.00000  Uiso   1.00
Zn201  Zn    0.16667   0.49999   0.21771   0.00000  Uiso   1.00
Zn202  Zn    0.16667   0.50001   0.11563   0.00000  Uiso   1.00
Br203  Br    0.32025   0.43801   0.12051   0.00000  Uiso   1.00
Br204  Br    0.01532   0.56345   0.20479   0.00000  Uiso   1.00
Br205  Br    0.20697   0.37903   0.07386   0.00000  Uiso   1.00
Br206  Br    0.13056   0.62648   0.25734   0.00000  Uiso   1.00
Br207  Br    0.14206   0.62233   0.06448   0.00000  Uiso   1.00
Br208  Br    0.21330   0.37755   0.26584   0.00000  Uiso   1.00
N209   N     0.24202   0.54902   0.05514   0.00000  Uiso   1.00
H210   H     0.23456   0.55890   0.08620   0.00000  Uiso   1.00
C211   C     0.29671   0.54244   0.05181   0.00000  Uiso   1.00
H212   H     0.31750   0.53543   0.08548   0.00000  Uiso   1.00
H213   H     0.31545   0.57155   0.04041   0.00000  Uiso   1.00
H214   H     0.30171   0.51625   0.02847   0.00000  Uiso   1.00
N215   N     0.08282   0.46273   0.27593   0.00000  Uiso   1.00
H216   H     0.04786   0.47448   0.28247   0.00000  Uiso   1.00
C217   C     0.07934   0.41883   0.26407   0.00000  Uiso   1.00
H218   H     0.07453   0.41533   0.22669   0.00000  Uiso   1.00
H219   H     0.04448   0.40350   0.27639   0.00000  Uiso   1.00
H220   H     0.11456   0.40262   0.27886   0.00000  Uiso   1.00
N221   N     0.21867   0.56427   0.29555   0.00000  Uiso   1.00
H222   H     0.21314   0.59036   0.31442   0.00000  Uiso   1.00
C223   C     0.26910   0.56562   0.27978   0.00000  Uiso   1.00
H224   H     0.29584   0.58930   0.29910   0.00000  Uiso   1.00
H225   H     0.26307   0.57607   0.24425   0.00000  Uiso   1.00
H226   H     0.28774   0.53494   0.28278   0.00000  Uiso   1.00
N227   N     0.08453   0.46053   0.03887   0.00000  Uiso   1.00
H228   H     0.04953   0.47440   0.02880   0.00000  Uiso   1.00
C229   C     0.07997   0.41543   0.04088   0.00000  Uiso   1.00
H230   H     0.04105   0.40401   0.02370   0.00000  Uiso   1.00
H231   H     0.08316   0.40563   0.07677   0.00000  Uiso   1.00
H232   H     0.11076   0.40045   0.02453   0.00000  Uiso   1.00
C233   C     0.50711   0.42062   0.16728   0.00000  Uiso   1.00
C234   C     0.49543   0.57999   0.16606   0.00000  Uiso   1.00
C235   C     0.40084   0.49699   0.15542   0.00000  Uiso   1.00
C236   C     0.59955   0.50177   0.17788   0.00000  Uiso   1.00
C237   C     0.34668   0.48825   0.15264   0.00000  Uiso   1.00
C238   C     0.65420   0.50979   0.18053   0.00000  Uiso   1.00
C239   C     0.51365   0.35472   0.12625   0.00000  Uiso   1.00
C240   C     0.49608   0.64703   0.20629   0.00000  Uiso   1.00
C241   C     0.49778   0.64632   0.12423   0.00000  Uiso   1.00
C242   C     0.51438   0.35470   0.20818   0.00000  Uiso   1.00
C243   C     0.49277   0.62496   0.16505   0.00000  Uiso   1.00
C244   C     0.51575   0.37640   0.16761   0.00000  Uiso   1.00
C245   C     0.53692   0.52327   0.02806   0.00000  Uiso   1.00
C246   C     0.46135   0.47821   0.30478   0.00000  Uiso   1.00
C247   C     0.53353   0.52626   0.31343   0.00000  Uiso   1.00
C248   C     0.46123   0.47850   0.01969   0.00000  Uiso   1.00
N249   N     0.49999   0.49999   0.28573   0.00000  Uiso   1.00
N250   N     0.50001   0.50001   0.04760   0.00000  Uiso   1.00
O251   O     0.50000   0.43892   0.20487   0.00000  Uiso   1.00
O252   O     0.50000   0.56108   0.12846   0.00000  Uiso   1.00
O253   O     0.50000   0.43893   0.12843   0.00000  Uiso   1.00
O254   O     0.50000   0.56107   0.20490   0.00000  Uiso   1.00
O255   O     0.42392   0.50000   0.19595   0.00000  Uiso   1.00
O256   O     0.57608   0.50000   0.13739   0.00000  Uiso   1.00
O257   O     0.42392   0.50000   0.11950   0.00000  Uiso   1.00
O258   O     0.57608   0.50000   0.21383   0.00000  Uiso   1.00
Zn259  Zn    0.50000   0.49999   0.21771   0.00000  Uiso   1.00
Zn260  Zn    0.50000   0.50001   0.11563   0.00000  Uiso   1.00
Br261  Br    0.65358   0.43801   0.12051   0.00000  Uiso   1.00
Br262  Br    0.34865   0.56345   0.20479   0.00000  Uiso   1.00
Br263  Br    0.54030   0.37903   0.07386   0.00000  Uiso   1.00
Br264  Br    0.46390   0.62648   0.25734   0.00000  Uiso   1.00
Br265  Br    0.47539   0.62233   0.06448   0.00000  Uiso   1.00
Br266  Br    0.54663   0.37755   0.26584   0.00000  Uiso   1.00
N267   N     0.57535   0.54902   0.05514   0.00000  Uiso   1.00
H268   H     0.56789   0.55890   0.08620   0.00000  Uiso   1.00
C269   C     0.63004   0.54244   0.05181   0.00000  Uiso   1.00
H270   H     0.65083   0.53543   0.08548   0.00000  Uiso   1.00
H271   H     0.64878   0.57155   0.04041   0.00000  Uiso   1.00
H272   H     0.63505   0.51625   0.02847   0.00000  Uiso   1.00
N273   N     0.41615   0.46273   0.27593   0.00000  Uiso   1.00
H274   H     0.38119   0.47448   0.28247   0.00000  Uiso   1.00
C275   C     0.41268   0.41883   0.26407   0.00000  Uiso   1.00
H276   H     0.40787   0.41533   0.22669   0.00000  Uiso   1.00
H277   H     0.37781   0.40350   0.27639   0.00000  Uiso   1.00
H278   H     0.44790   0.40262   0.27886   0.00000  Uiso   1.00
N279   N     0.55201   0.56427   0.29555   0.00000  Uiso   1.00
H280   H     0.54648   0.59036   0.31442   0.00000  Uiso   1.00
C281   C     0.60243   0.56562   0.27978   0.00000  Uiso   1.00
H282   H     0.62918   0.58930   0.29910   0.00000  Uiso   1.00
H283   H     0.59640   0.57607   0.24425   0.00000  Uiso   1.00
H284   H     0.62107   0.53494   0.28278   0.00000  Uiso   1.00
N285   N     0.41786   0.46053   0.03887   0.00000  Uiso   1.00
H286   H     0.38286   0.47440   0.02880   0.00000  Uiso   1.00
C287   C     0.41330   0.41543   0.04088   0.00000  Uiso   1.00
H288   H     0.37439   0.40401   0.02370   0.00000  Uiso   1.00
H289   H     0.41650   0.40563   0.07677   0.00000  Uiso   1.00
H290   H     0.44409   0.40045   0.02453   0.00000  Uiso   1.00
C291   C     0.84045   0.42062   0.16728   0.00000  Uiso   1.00
C292   C     0.82877   0.57999   0.16606   0.00000  Uiso   1.00
C293   C     0.73417   0.49699   0.15542   0.00000  Uiso   1.00
C294   C     0.93288   0.50177   0.17788   0.00000  Uiso   1.00
C295   C     0.68002   0.48825   0.15264   0.00000  Uiso   1.00
C296   C     0.98753   0.50979   0.18053   0.00000  Uiso   1.00
C297   C     0.84699   0.35472   0.12625   0.00000  Uiso   1.00
C298   C     0.82941   0.64703   0.20629   0.00000  Uiso   1.00
C299   C     0.83111   0.64632   0.12423   0.00000  Uiso   1.00
C300   C     0.84772   0.35470   0.20818   0.00000  Uiso   1.00
C301   C     0.82610   0.62496   0.16505   0.00000  Uiso   1.00
C302   C     0.84908   0.37640   0.16761   0.00000  Uiso   1.00
C303   C     0.87025   0.52327   0.02806   0.00000  Uiso   1.00
C304   C     0.79468   0.47821   0.30478   0.00000  Uiso   1.00
C305   C     0.86687   0.52626   0.31343   0.00000  Uiso   1.00
C306   C     0.79456   0.47850   0.01969   0.00000  Uiso   1.00
N307   N     0.83332   0.49999   0.28573   0.00000  Uiso   1.00
N308   N     0.83335   0.50001   0.04760   0.00000  Uiso   1.00
O309   O     0.83333   0.43892   0.20487   0.00000  Uiso   1.00
O310   O     0.83334   0.56108   0.12846   0.00000  Uiso   1.00
O311   O     0.83333   0.43893   0.12843   0.00000  Uiso   1.00
O312   O     0.83334   0.56107   0.20490   0.00000  Uiso   1.00
O313   O     0.75725   0.50000   0.19595   0.00000  Uiso   1.00
O314   O     0.90942   0.50000   0.13739   0.00000  Uiso   1.00
O315   O     0.75725   0.50000   0.11950   0.00000  Uiso   1.00
O316   O     0.90942   0.50000   0.21383   0.00000  Uiso   1.00
Zn317  Zn    0.83333   0.49999   0.21771   0.00000  Uiso   1.00
Zn318  Zn    0.83333   0.50001   0.11563   0.00000  Uiso   1.00
Br319  Br    0.98691   0.43801   0.12051   0.00000  Uiso   1.00
Br320  Br    0.68198   0.56345   0.20479   0.00000  Uiso   1.00
Br321  Br    0.87363   0.37903   0.07386   0.00000  Uiso   1.00
Br322  Br    0.79723   0.62648   0.25734   0.00000  Uiso   1.00
Br323  Br    0.80872   0.62233   0.06448   0.00000  Uiso   1.00
Br324  Br    0.87996   0.37755   0.26584   0.00000  Uiso   1.00
N325   N     0.90869   0.54902   0.05514   0.00000  Uiso   1.00
H326   H     0.90122   0.55890   0.08620   0.00000  Uiso   1.00
C327   C     0.96338   0.54244   0.05181   0.00000  Uiso   1.00
H328   H     0.98417   0.53543   0.08548   0.00000  Uiso   1.00
H329   H     0.98211   0.57155   0.04041   0.00000  Uiso   1.00
H330   H     0.96838   0.51625   0.02847   0.00000  Uiso   1.00
N331   N     0.74948   0.46273   0.27593   0.00000  Uiso   1.00
H332   H     0.71452   0.47448   0.28247   0.00000  Uiso   1.00
C333   C     0.74601   0.41883   0.26407   0.00000  Uiso   1.00
H334   H     0.74120   0.41533   0.22669   0.00000  Uiso   1.00
H335   H     0.71115   0.40350   0.27639   0.00000  Uiso   1.00
H336   H     0.78123   0.40262   0.27886   0.00000  Uiso   1.00
N337   N     0.88534   0.56427   0.29555   0.00000  Uiso   1.00
H338   H     0.87981   0.59036   0.31442   0.00000  Uiso   1.00
C339   C     0.93577   0.56562   0.27978   0.00000  Uiso   1.00
H340   H     0.96251   0.58930   0.29910   0.00000  Uiso   1.00
H341   H     0.92974   0.57607   0.24425   0.00000  Uiso   1.00
H342   H     0.95440   0.53494   0.28278   0.00000  Uiso   1.00
N343   N     0.75120   0.46053   0.03887   0.00000  Uiso   1.00
H344   H     0.71620   0.47440   0.02880   0.00000  Uiso   1.00
C345   C     0.74664   0.41543   0.04088   0.00000  Uiso   1.00
H346   H     0.70772   0.40401   0.02370   0.00000  Uiso   1.00
H347   H     0.74983   0.40563   0.07677   0.00000  Uiso   1.00
H348   H     0.77742   0.40045   0.02453   0.00000  Uiso   1.00
C349   C     0.17378   0.75395   0.16728   0.00000  Uiso   1.00
C350   C     0.16210   0.91333   0.16606   0.00000  Uiso   1.00
C351   C     0.06751   0.83032   0.15542   0.00000  Uiso   1.00
C352   C     0.26621   0.83511   0.17788   0.00000  Uiso   1.00
C353   C     0.01335   0.82158   0.15264   0.00000  Uiso   1.00
C354   C     0.32087   0.84312   0.18053   0.00000  Uiso   1.00
C355   C     0.18032   0.68805   0.12625   0.00000  Uiso   1.00
C356   C     0.16274   0.98036   0.20629   0.00000  Uiso   1.00
C357   C     0.16444   0.97965   0.12423   0.00000  Uiso   1.00
C358   C     0.18105   0.68804   0.20818   0.00000  Uiso   1.00
C359   C     0.15944   0.95829   0.16505   0.00000  Uiso   1.00
C360   C     0.18241   0.70973   0.16761   0.00000  Uiso   1.00
C361   C     0.20358   0.85661   0.02806   0.00000  Uiso   1.00
C362   C     0.12801   0.81154   0.30478   0.00000  Uiso   1.00
C363   C     0.20020   0.85960   0.31343   0.00000  Uiso   1.00
C364   C     0.12790   0.81183   0.01969   0.00000  Uiso   1.00
N365   N     0.16665   0.83332   0.28573   0.00000  Uiso   1.00
N366   N     0.16668   0.83334   0.04760   0.00000  Uiso   1.00
O367   O     0.16666   0.77225   0.20487   0.00000  Uiso   1.00
O368   O     0.16667   0.89442   0.12846   0.00000  Uiso   1.00
O369   O     0.16666   0.77226   0.12843   0.00000  Uiso   1.00
O370   O     0.16667   0.89441   0.20490   0.00000  Uiso   1.00
O371   O     0.09058   0.83333   0.19595   0.00000  Uiso   1.00
O372   O     0.24275   0.83334   0.13739   0.00000  Uiso   1.00
O373   O     0.09058   0.83334   0.11950   0.00000  Uiso   1.00
O374   O     0.24275   0.83333   0.21383   0.00000  Uiso   1.00
Zn375  Zn    0.16667   0.83333   0.21771   0.00000  Uiso   1.00
Zn376  Zn    0.16667   0.83334   0.11563   0.00000  Uiso   1.00
Br377  Br    0.32025   0.77134   0.12051   0.00000  Uiso   1.00
Br378  Br    0.01532   0.89678   0.20479   0.00000  Uiso   1.00
Br379  Br    0.20697   0.71236   0.07386   0.00000  Uiso   1.00
Br380  Br    0.13056   0.95981   0.25734   0.00000  Uiso   1.00
Br381  Br    0.14206   0.95566   0.06448   0.00000  Uiso   1.00
Br382  Br    0.21330   0.71089   0.26584   0.00000  Uiso   1.00
N383   N     0.24202   0.88236   0.05514   0.00000  Uiso   1.00
H384   H     0.23456   0.89223   0.08620   0.00000  Uiso   1.00
C385   C     0.29671   0.87577   0.05181   0.00000  Uiso   1.00
H386   H     0.31750   0.86876   0.08548   0.00000  Uiso   1.00
H387   H     0.31545   0.90488   0.04041   0.00000  Uiso   1.00
H388   H     0.30171   0.84959   0.02847   0.00000  Uiso   1.00
N389   N     0.08282   0.79606   0.27593   0.00000  Uiso   1.00
H390   H     0.04786   0.80782   0.28247   0.00000  Uiso   1.00
C391   C     0.07934   0.75216   0.26407   0.00000  Uiso   1.00
H392   H     0.07453   0.74866   0.22669   0.00000  Uiso   1.00
H393   H     0.04448   0.73683   0.27639   0.00000  Uiso   1.00
H394   H     0.11456   0.73595   0.27886   0.00000  Uiso   1.00
N395   N     0.21867   0.89760   0.29555   0.00000  Uiso   1.00
H396   H     0.21314   0.92370   0.31442   0.00000  Uiso   1.00
C397   C     0.26910   0.89896   0.27978   0.00000  Uiso   1.00
H398   H     0.29584   0.92263   0.29910   0.00000  Uiso   1.00
H399   H     0.26307   0.90940   0.24425   0.00000  Uiso   1.00
H400   H     0.28774   0.86828   0.28278   0.00000  Uiso   1.00
N401   N     0.08453   0.79386   0.03887   0.00000  Uiso   1.00
H402   H     0.04953   0.80773   0.02880   0.00000  Uiso   1.00
C403   C     0.07997   0.74876   0.04088   0.00000  Uiso   1.00
H404   H     0.04105   0.73735   0.02370   0.00000  Uiso   1.00
H405   H     0.08316   0.73897   0.07677   0.00000  Uiso   1.00
H406   H     0.11076   0.73378   0.02453   0.00000  Uiso   1.00
C407   C     0.50711   0.75395   0.16728   0.00000  Uiso   1.00
C408   C     0.49543   0.91333   0.16606   0.00000  Uiso   1.00
C409   C     0.40084   0.83032   0.15542   0.00000  Uiso   1.00
C410   C     0.59955   0.83511   0.17788   0.00000  Uiso   1.00
C411   C     0.34668   0.82158   0.15264   0.00000  Uiso   1.00
C412   C     0.65420   0.84312   0.18053   0.00000  Uiso   1.00
C413   C     0.51365   0.68805   0.12625   0.00000  Uiso   1.00
C414   C     0.49608   0.98036   0.20629   0.00000  Uiso   1.00
C415   C     0.49778   0.97965   0.12423   0.00000  Uiso   1.00
C416   C     0.51438   0.68804   0.20818   0.00000  Uiso   1.00
C417   C     0.49277   0.95829   0.16505   0.00000  Uiso   1.00
C418   C     0.51575   0.70973   0.16761   0.00000  Uiso   1.00
C419   C     0.53692   0.85661   0.02806   0.00000  Uiso   1.00
C420   C     0.46135   0.81154   0.30478   0.00000  Uiso   1.00
C421   C     0.53353   0.85960   0.31343   0.00000  Uiso   1.00
C422   C     0.46123   0.81183   0.01969   0.00000  Uiso   1.00
N423   N     0.49999   0.83332   0.28573   0.00000  Uiso   1.00
N424   N     0.50001   0.83334   0.04760   0.00000  Uiso   1.00
O425   O     0.50000   0.77225   0.20487   0.00000  Uiso   1.00
O426   O     0.50000   0.89442   0.12846   0.00000  Uiso   1.00
O427   O     0.50000   0.77226   0.12843   0.00000  Uiso   1.00
O428   O     0.50000   0.89441   0.20490   0.00000  Uiso   1.00
O429   O     0.42392   0.83333   0.19595   0.00000  Uiso   1.00
O430   O     0.57608   0.83334   0.13739   0.00000  Uiso   1.00
O431   O     0.42392   0.83334   0.11950   0.00000  Uiso   1.00
O432   O     0.57608   0.83333   0.21383   0.00000  Uiso   1.00
Zn433  Zn    0.50000   0.83333   0.21771   0.00000  Uiso   1.00
Zn434  Zn    0.50000   0.83334   0.11563   0.00000  Uiso   1.00
Br435  Br    0.65358   0.77134   0.12051   0.00000  Uiso   1.00
Br436  Br    0.34865   0.89678   0.20479   0.00000  Uiso   1.00
Br437  Br    0.54030   0.71236   0.07386   0.00000  Uiso   1.00
Br438  Br    0.46390   0.95981   0.25734   0.00000  Uiso   1.00
Br439  Br    0.47539   0.95566   0.06448   0.00000  Uiso   1.00
Br440  Br    0.54663   0.71089   0.26584   0.00000  Uiso   1.00
N441   N     0.57535   0.88236   0.05514   0.00000  Uiso   1.00
H442   H     0.56789   0.89223   0.08620   0.00000  Uiso   1.00
C443   C     0.63004   0.87577   0.05181   0.00000  Uiso   1.00
H444   H     0.65083   0.86876   0.08548   0.00000  Uiso   1.00
H445   H     0.64878   0.90488   0.04041   0.00000  Uiso   1.00
H446   H     0.63505   0.84959   0.02847   0.00000  Uiso   1.00
N447   N     0.41615   0.79606   0.27593   0.00000  Uiso   1.00
H448   H     0.38119   0.80782   0.28247   0.00000  Uiso   1.00
C449   C     0.41268   0.75216   0.26407   0.00000  Uiso   1.00
H450   H     0.40787   0.74866   0.22669   0.00000  Uiso   1.00
H451   H     0.37781   0.73683   0.27639   0.00000  Uiso   1.00
H452   H     0.44790   0.73595   0.27886   0.00000  Uiso   1.00
N453   N     0.55201   0.89760   0.29555   0.00000  Uiso   1.00
H454   H     0.54648   0.92370   0.31442   0.00000  Uiso   1.00
C455   C     0.60243   0.89896   0.27978   0.00000  Uiso   1.00
H456   H     0.62918   0.92263   0.29910   0.00000  Uiso   1.00
H457   H     0.59640   0.90940   0.24425   0.00000  Uiso   1.00
H458   H     0.62107   0.86828   0.28278   0.00000  Uiso   1.00
N459   N     0.41786   0.79386   0.03887   0.00000  Uiso   1.00
H460   H     0.38286   0.80773   0.02880   0.00000  Uiso   1.00
C461   C     0.41330   0.74876   0.04088   0.00000  Uiso   1.00
H462   H     0.37439   0.73735   0.02370   0.00000  Uiso   1.00
H463   H     0.41650   0.73897   0.07677   0.00000  Uiso   1.00
H464   H     0.44409   0.73378   0.02453   0.00000  Uiso   1.00
C465   C     0.84045   0.75395   0.16728   0.00000  Uiso   1.00
C466   C     0.82877   0.91333   0.16606   0.00000  Uiso   1.00
C467   C     0.73417   0.83032   0.15542   0.00000  Uiso   1.00
C468   C     0.93288   0.83511   0.17788   0.00000  Uiso   1.00
C469   C     0.68002   0.82158   0.15264   0.00000  Uiso   1.00
C470   C     0.98753   0.84312   0.18053   0.00000  Uiso   1.00
C471   C     0.84699   0.68805   0.12625   0.00000  Uiso   1.00
C472   C     0.82941   0.98036   0.20629   0.00000  Uiso   1.00
C473   C     0.83111   0.97965   0.12423   0.00000  Uiso   1.00
C474   C     0.84772   0.68804   0.20818   0.00000  Uiso   1.00
C475   C     0.82610   0.95829   0.16505   0.00000  Uiso   1.00
C476   C     0.84908   0.70973   0.16761   0.00000  Uiso   1.00
C477   C     0.87025   0.85661   0.02806   0.00000  Uiso   1.00
C478   C     0.79468   0.81154   0.30478   0.00000  Uiso   1.00
C479   C     0.86687   0.85960   0.31343   0.00000  Uiso   1.00
C480   C     0.79456   0.81183   0.01969   0.00000  Uiso   1.00
N481   N     0.83332   0.83332   0.28573   0.00000  Uiso   1.00
N482   N     0.83335   0.83334   0.04760   0.00000  Uiso   1.00
O483   O     0.83333   0.77225   0.20487   0.00000  Uiso   1.00
O484   O     0.83334   0.89442   0.12846   0.00000  Uiso   1.00
O485   O     0.83333   0.77226   0.12843   0.00000  Uiso   1.00
O486   O     0.83334   0.89441   0.20490   0.00000  Uiso   1.00
O487   O     0.75725   0.83333   0.19595   0.00000  Uiso   1.00
O488   O     0.90942   0.83334   0.13739   0.00000  Uiso   1.00
O489   O     0.75725   0.83334   0.11950   0.00000  Uiso   1.00
O490   O     0.90942   0.83333   0.21383   0.00000  Uiso   1.00
Zn491  Zn    0.83333   0.83333   0.21771   0.00000  Uiso   1.00
Zn492  Zn    0.83333   0.83334   0.11563   0.00000  Uiso   1.00
Br493  Br    0.98691   0.77134   0.12051   0.00000  Uiso   1.00
Br494  Br    0.68198   0.89678   0.20479   0.00000  Uiso   1.00
Br495  Br    0.87363   0.71236   0.07386   0.00000  Uiso   1.00
Br496  Br    0.79723   0.95981   0.25734   0.00000  Uiso   1.00
Br497  Br    0.80872   0.95566   0.06448   0.00000  Uiso   1.00
Br498  Br    0.87996   0.71089   0.26584   0.00000  Uiso   1.00
N499   N     0.90869   0.88236   0.05514   0.00000  Uiso   1.00
H500   H     0.90122   0.89223   0.08620   0.00000  Uiso   1.00
C501   C     0.96338   0.87577   0.05181   0.00000  Uiso   1.00
H502   H     0.98417   0.86876   0.08548   0.00000  Uiso   1.00
H503   H     0.98211   0.90488   0.04041   0.00000  Uiso   1.00
H504   H     0.96838   0.84959   0.02847   0.00000  Uiso   1.00
N505   N     0.74948   0.79606   0.27593   0.00000  Uiso   1.00
H506   H     0.71452   0.80782   0.28247   0.00000  Uiso   1.00
C507   C     0.74601   0.75216   0.26407   0.00000  Uiso   1.00
H508   H     0.74120   0.74866   0.22669   0.00000  Uiso   1.00
H509   H     0.71115   0.73683   0.27639   0.00000  Uiso   1.00
H510   H     0.78123   0.73595   0.27886   0.00000  Uiso   1.00
N511   N     0.88534   0.89760   0.29555   0.00000  Uiso   1.00
H512   H     0.87981   0.92370   0.31442   0.00000  Uiso   1.00
C513   C     0.93577   0.89896   0.27978   0.00000  Uiso   1.00
H514   H     0.96251   0.92263   0.29910   0.00000  Uiso   1.00
H515   H     0.92974   0.90940   0.24425   0.00000  Uiso   1.00
H516   H     0.95440   0.86828   0.28278   0.00000  Uiso   1.00
N517   N     0.75120   0.79386   0.03887   0.00000  Uiso   1.00
H518   H     0.71620   0.80773   0.02880   0.00000  Uiso   1.00
C519   C     0.74664   0.74876   0.04088   0.00000  Uiso   1.00
H520   H     0.70772   0.73735   0.02370   0.00000  Uiso   1.00
H521   H     0.74983   0.73897   0.07677   0.00000  Uiso   1.00
H522   H     0.77742   0.73378   0.02453   0.00000  Uiso   1.00
C523   C     0.17378   0.08729   0.50062   0.00000  Uiso   1.00
C524   C     0.16210   0.24666   0.49939   0.00000  Uiso   1.00
C525   C     0.06751   0.16365   0.48875   0.00000  Uiso   1.00
C526   C     0.26621   0.16844   0.51121   0.00000  Uiso   1.00
C527   C     0.01335   0.15491   0.48597   0.00000  Uiso   1.00
C528   C     0.32087   0.17645   0.51386   0.00000  Uiso   1.00
C529   C     0.18032   0.02139   0.45958   0.00000  Uiso   1.00
C530   C     0.16274   0.31370   0.53962   0.00000  Uiso   1.00
C531   C     0.16444   0.31299   0.45756   0.00000  Uiso   1.00
C532   C     0.18105   0.02137   0.54152   0.00000  Uiso   1.00
C533   C     0.15944   0.29163   0.49838   0.00000  Uiso   1.00
C534   C     0.18241   0.04307   0.50095   0.00000  Uiso   1.00
C535   C     0.20358   0.18994   0.36139   0.00000  Uiso   1.00
C536   C     0.12801   0.14488   0.63811   0.00000  Uiso   1.00
C537   C     0.20020   0.19293   0.64676   0.00000  Uiso   1.00
C538   C     0.12790   0.14517   0.35302   0.00000  Uiso   1.00
N539   N     0.16665   0.16666   0.61907   0.00000  Uiso   1.00
N540   N     0.16668   0.16668   0.38093   0.00000  Uiso   1.00
O541   O     0.16666   0.10558   0.53821   0.00000  Uiso   1.00
O542   O     0.16667   0.22775   0.46179   0.00000  Uiso   1.00
O543   O     0.16666   0.10559   0.46176   0.00000  Uiso   1.00
O544   O     0.16667   0.22774   0.53824   0.00000  Uiso   1.00
O545   O     0.09058   0.16666   0.52928   0.00000  Uiso   1.00
O546   O     0.24275   0.16667   0.47072   0.00000  Uiso   1.00
O547   O     0.09058   0.16667   0.45284   0.00000  Uiso   1.00
O548   O     0.24275   0.16666   0.54716   0.00000  Uiso   1.00
Zn549  Zn    0.16667   0.16666   0.55104   0.00000  Uiso   1.00
Zn550  Zn    0.16667   0.16667   0.44896   0.00000  Uiso   1.00
Br551  Br    0.32025   0.10467   0.45384   0.00000  Uiso   1.00
Br552  Br    0.01532   0.23011   0.53812   0.00000  Uiso   1.00
Br553  Br    0.20697   0.04570   0.40719   0.00000  Uiso   1.00
Br554  Br    0.13056   0.29314   0.59068   0.00000  Uiso   1.00
Br555  Br    0.14206   0.28900   0.39781   0.00000  Uiso   1.00
Br556  Br    0.21330   0.04422   0.59918   0.00000  Uiso   1.00
N557   N     0.24202   0.21569   0.38847   0.00000  Uiso   1.00
H558   H     0.23456   0.22557   0.41953   0.00000  Uiso   1.00
C559   C     0.29671   0.20911   0.38515   0.00000  Uiso   1.00
H560   H     0.31750   0.20210   0.41882   0.00000  Uiso   1.00
H561   H     0.31545   0.23822   0.37375   0.00000  Uiso   1.00
H562   H     0.30171   0.18292   0.36180   0.00000  Uiso   1.00
N563   N     0.08282   0.12940   0.60926   0.00000  Uiso   1.00
H564   H     0.04786   0.14115   0.61581   0.00000  Uiso   1.00
C565   C     0.07934   0.08550   0.59741   0.00000  Uiso   1.00
H566   H     0.07453   0.08199   0.56002   0.00000  Uiso   1.00
H567   H     0.04448   0.07016   0.60972   0.00000  Uiso   1.00
H568   H     0.11456   0.06929   0.61219   0.00000  Uiso   1.00
N569   N     0.21867   0.23093   0.62888   0.00000  Uiso   1.00
H570   H     0.21314   0.25703   0.64775   0.00000  Uiso   1.00
C571   C     0.26910   0.23229   0.61311   0.00000  Uiso   1.00
H572   H     0.29584   0.25597   0.63244   0.00000  Uiso   1.00
H573   H     0.26307   0.24273   0.57759   0.00000  Uiso   1.00
H574   H     0.28774   0.20161   0.61611   0.00000  Uiso   1.00
N575   N     0.08453   0.12719   0.37220   0.00000  Uiso   1.00
H576   H     0.04953   0.14107   0.36213   0.00000  Uiso   1.00
C577   C     0.07997   0.08210   0.37421   0.00000  Uiso   1.00
H578   H     0.04105   0.07068   0.35704   0.00000  Uiso   1.00
H579   H     0.08316   0.07230   0.41010   0.00000  Uiso   1.00
H580   H     0.11076   0.06712   0.35787   0.00000  Uiso   1.00
C581   C     0.50711   0.08729   0.50062   0.00000  Uiso   1.00
C582   C     0.49543   0.24666   0.49939   0.00000  Uiso   1.00
C583   C     0.40084   0.16365   0.48875   0.00000  Uiso   1.00
C584   C     0.59955   0.16844   0.51121   0.00000  Uiso   1.00
C585   C     0.34668   0.15491   0.48597   0.00000  Uiso   1.00
C586   C     0.65420   0.17645   0.51386   0.00000  Uiso   1.00
C587   C     0.51365   0.02139   0.45958   0.00000  Uiso   1.00
C588   C     0.49608   0.31370   0.53962   0.00000  Uiso   1.00
C589   C     0.49778   0.31299   0.45756   0.00000  Uiso   1.00
C590   C     0.51438   0.02137   0.54152   0.00000  Uiso   1.00
C591   C     0.49277   0.29163   0.49838   0.00000  Uiso   1.00
C592   C     0.51575   0.04307   0.50095   0.00000  Uiso   1.00
C593   C     0.53692   0.18994   0.36139   0.00000  Uiso   1.00
C594   C     0.46135   0.14488   0.63811   0.00000  Uiso   1.00
C595   C     0.53353   0.19293   0.64676   0.00000  Uiso   1.00
C596   C     0.46123   0.14517   0.35302   0.00000  Uiso   1.00
N597   N     0.49999   0.16666   0.61907   0.00000  Uiso   1.00
N598   N     0.50001   0.16668   0.38093   0.00000  Uiso   1.00
O599   O     0.50000   0.10558   0.53821   0.00000  Uiso   1.00
O600   O     0.50000   0.22775   0.46179   0.00000  Uiso   1.00
O601   O     0.50000   0.10559   0.46176   0.00000  Uiso   1.00
O602   O     0.50000   0.22774   0.53824   0.00000  Uiso   1.00
O603   O     0.42392   0.16666   0.52928   0.00000  Uiso   1.00
O604   O     0.57608   0.16667   0.47072   0.00000  Uiso   1.00
O605   O     0.42392   0.16667   0.45284   0.00000  Uiso   1.00
O606   O     0.57608   0.16666   0.54716   0.00000  Uiso   1.00
Zn607  Zn    0.50000   0.16666   0.55104   0.00000  Uiso   1.00
Zn608  Zn    0.50000   0.16667   0.44896   0.00000  Uiso   1.00
Br609  Br    0.65358   0.10467   0.45384   0.00000  Uiso   1.00
Br610  Br    0.34865   0.23011   0.53812   0.00000  Uiso   1.00
Br611  Br    0.54030   0.04570   0.40719   0.00000  Uiso   1.00
Br612  Br    0.46390   0.29314   0.59068   0.00000  Uiso   1.00
Br613  Br    0.47539   0.28900   0.39781   0.00000  Uiso   1.00
Br614  Br    0.54663   0.04422   0.59918   0.00000  Uiso   1.00
N615   N     0.57535   0.21569   0.38847   0.00000  Uiso   1.00
H616   H     0.56789   0.22557   0.41953   0.00000  Uiso   1.00
C617   C     0.63004   0.20911   0.38515   0.00000  Uiso   1.00
H618   H     0.65083   0.20210   0.41882   0.00000  Uiso   1.00
H619   H     0.64878   0.23822   0.37375   0.00000  Uiso   1.00
H620   H     0.63505   0.18292   0.36180   0.00000  Uiso   1.00
N621   N     0.41615   0.12940   0.60926   0.00000  Uiso   1.00
H622   H     0.38119   0.14115   0.61581   0.00000  Uiso   1.00
C623   C     0.41268   0.08550   0.59741   0.00000  Uiso   1.00
H624   H     0.40787   0.08199   0.56002   0.00000  Uiso   1.00
H625   H     0.37781   0.07016   0.60972   0.00000  Uiso   1.00
H626   H     0.44790   0.06929   0.61219   0.00000  Uiso   1.00
N627   N     0.55201   0.23093   0.62888   0.00000  Uiso   1.00
H628   H     0.54648   0.25703   0.64775   0.00000  Uiso   1.00
C629   C     0.60243   0.23229   0.61311   0.00000  Uiso   1.00
H630   H     0.62918   0.25597   0.63244   0.00000  Uiso   1.00
H631   H     0.59640   0.24273   0.57759   0.00000  Uiso   1.00
H632   H     0.62107   0.20161   0.61611   0.00000  Uiso   1.00
N633   N     0.41786   0.12719   0.37220   0.00000  Uiso   1.00
H634   H     0.38286   0.14107   0.36213   0.00000  Uiso   1.00
C635   C     0.41330   0.08210   0.37421   0.00000  Uiso   1.00
H636   H     0.37439   0.07068   0.35704   0.00000  Uiso   1.00
H637   H     0.41650   0.07230   0.41010   0.00000  Uiso   1.00
H638   H     0.44409   0.06712   0.35787   0.00000  Uiso   1.00
C639   C     0.84045   0.08729   0.50062   0.00000  Uiso   1.00
C640   C     0.82877   0.24666   0.49939   0.00000  Uiso   1.00
C641   C     0.73417   0.16365   0.48875   0.00000  Uiso   1.00
C642   C     0.93288   0.16844   0.51121   0.00000  Uiso   1.00
C643   C     0.68002   0.15491   0.48597   0.00000  Uiso   1.00
C644   C     0.98753   0.17645   0.51386   0.00000  Uiso   1.00
C645   C     0.84699   0.02139   0.45958   0.00000  Uiso   1.00
C646   C     0.82941   0.31370   0.53962   0.00000  Uiso   1.00
C647   C     0.83111   0.31299   0.45756   0.00000  Uiso   1.00
C648   C     0.84772   0.02137   0.54152   0.00000  Uiso   1.00
C649   C     0.82610   0.29163   0.49838   0.00000  Uiso   1.00
C650   C     0.84908   0.04307   0.50095   0.00000  Uiso   1.00
C651   C     0.87025   0.18994   0.36139   0.00000  Uiso   1.00
C652   C     0.79468   0.14488   0.63811   0.00000  Uiso   1.00
C653   C     0.86687   0.19293   0.64676   0.00000  Uiso   1.00
C654   C     0.79456   0.14517   0.35302   0.00000  Uiso   1.00
N655   N     0.83332   0.16666   0.61907   0.00000  Uiso   1.00
N656   N     0.83335   0.16668   0.38093   0.00000  Uiso   1.00
O657   O     0.83333   0.10558   0.53821   0.00000  Uiso   1.00
O658   O     0.83334   0.22775   0.46179   0.00000  Uiso   1.00
O659   O     0.83333   0.10559   0.46176   0.00000  Uiso   1.00
O660   O     0.83334   0.22774   0.53824   0.00000  Uiso   1.00
O661   O     0.75725   0.16666   0.52928   0.00000  Uiso   1.00
O662   O     0.90942   0.16667   0.47072   0.00000  Uiso   1.00
O663   O     0.75725   0.16667   0.45284   0.00000  Uiso   1.00
O664   O     0.90942   0.16666   0.54716   0.00000  Uiso   1.00
Zn665  Zn    0.83333   0.16666   0.55104   0.00000  Uiso   1.00
Zn666  Zn    0.83333   0.16667   0.44896   0.00000  Uiso   1.00
Br667  Br    0.98691   0.10467   0.45384   0.00000  Uiso   1.00
Br668  Br    0.68198   0.23011   0.53812   0.00000  Uiso   1.00
Br669  Br    0.87363   0.04570   0.40719   0.00000  Uiso   1.00
Br670  Br    0.79723   0.29314   0.59068   0.00000  Uiso   1.00
Br671  Br    0.80872   0.28900   0.39781   0.00000  Uiso   1.00
Br672  Br    0.87996   0.04422   0.59918   0.00000  Uiso   1.00
N673   N     0.90869   0.21569   0.38847   0.00000  Uiso   1.00
H674   H     0.90122   0.22557   0.41953   0.00000  Uiso   1.00
C675   C     0.96338   0.20911   0.38515   0.00000  Uiso   1.00
H676   H     0.98417   0.20210   0.41882   0.00000  Uiso   1.00
H677   H     0.98211   0.23822   0.37375   0.00000  Uiso   1.00
H678   H     0.96838   0.18292   0.36180   0.00000  Uiso   1.00
N679   N     0.74948   0.12940   0.60926   0.00000  Uiso   1.00
H680   H     0.71452   0.14115   0.61581   0.00000  Uiso   1.00
C681   C     0.74601   0.08550   0.59741   0.00000  Uiso   1.00
H682   H     0.74120   0.08199   0.56002   0.00000  Uiso   1.00
H683   H     0.71115   0.07016   0.60972   0.00000  Uiso   1.00
H684   H     0.78123   0.06929   0.61219   0.00000  Uiso   1.00
N685   N     0.88534   0.23093   0.62888   0.00000  Uiso   1.00
H686   H     0.87981   0.25703   0.64775   0.00000  Uiso   1.00
C687   C     0.93577   0.23229   0.61311   0.00000  Uiso   1.00
H688   H     0.96251   0.25597   0.63244   0.00000  Uiso   1.00
H689   H     0.92974   0.24273   0.57759   0.00000  Uiso   1.00
H690   H     0.95440   0.20161   0.61611   0.00000  Uiso   1.00
N691   N     0.75120   0.12719   0.37220   0.00000  Uiso   1.00
H692   H     0.71620   0.14107   0.36213   0.00000  Uiso   1.00
C693   C     0.74664   0.08210   0.37421   0.00000  Uiso   1.00
H694   H     0.70772   0.07068   0.35704   0.00000  Uiso   1.00
H695   H     0.74983   0.07230   0.41010   0.00000  Uiso   1.00
H696   H     0.77742   0.06712   0.35787   0.00000  Uiso   1.00
C697   C     0.17378   0.42062   0.50062   0.00000  Uiso   1.00
C698   C     0.16210   0.57999   0.49939   0.00000  Uiso   1.00
C699   C     0.06751   0.49699   0.48875   0.00000  Uiso   1.00
C700   C     0.26621   0.50177   0.51121   0.00000  Uiso   1.00
C701   C     0.01335   0.48825   0.48597   0.00000  Uiso   1.00
C702   C     0.32087   0.50979   0.51386   0.00000  Uiso   1.00
C703   C     0.18032   0.35472   0.45958   0.00000  Uiso   1.00
C704   C     0.16274   0.64703   0.53962   0.00000  Uiso   1.00
C705   C     0.16444   0.64632   0.45756   0.00000  Uiso   1.00
C706   C     0.18105   0.35470   0.54152   0.00000  Uiso   1.00
C707   C     0.15944   0.62496   0.49838   0.00000  Uiso   1.00
C708   C     0.18241   0.37640   0.50095   0.00000  Uiso   1.00
C709   C     0.20358   0.52327   0.36139   0.00000  Uiso   1.00
C710   C     0.12801   0.47821   0.63811   0.00000  Uiso   1.00
C711   C     0.20020   0.52626   0.64676   0.00000  Uiso   1.00
C712   C     0.12790   0.47850   0.35302   0.00000  Uiso   1.00
N713   N     0.16665   0.49999   0.61907   0.00000  Uiso   1.00
N714   N     0.16668   0.50001   0.38093   0.00000  Uiso   1.00
O715   O     0.16666   0.43892   0.53821   0.00000  Uiso   1.00
O716   O     0.16667   0.56108   0.46179   0.00000  Uiso   1.00
O717   O     0.16666   0.43893   0.46176   0.00000  Uiso   1.00
O718   O     0.16667   0.56107   0.53824   0.00000  Uiso   1.00
O719   O     0.09058   0.50000   0.52928   0.00000  Uiso   1.00
O720   O     0.24275   0.50000   0.47072   0.00000  Uiso   1.00
O721   O     0.09058   0.50000   0.45284   0.00000  Uiso   1.00
O722   O     0.24275   0.50000   0.54716   0.00000  Uiso   1.00
Zn723  Zn    0.16667   0.49999   0.55104   0.00000  Uiso   1.00
Zn724  Zn    0.16667   0.50001   0.44896   0.00000  Uiso   1.00
Br725  Br    0.32025   0.43801   0.45384   0.00000  Uiso   1.00
Br726  Br    0.01532   0.56345   0.53812   0.00000  Uiso   1.00
Br727  Br    0.20697   0.37903   0.40719   0.00000  Uiso   1.00
Br728  Br    0.13056   0.62648   0.59068   0.00000  Uiso   1.00
Br729  Br    0.14206   0.62233   0.39781   0.00000  Uiso   1.00
Br730  Br    0.21330   0.37755   0.59918   0.00000  Uiso   1.00
N731   N     0.24202   0.54902   0.38847   0.00000  Uiso   1.00
H732   H     0.23456   0.55890   0.41953   0.00000  Uiso   1.00
C733   C     0.29671   0.54244   0.38515   0.00000  Uiso   1.00
H734   H     0.31750   0.53543   0.41882   0.00000  Uiso   1.00
H735   H     0.31545   0.57155   0.37375   0.00000  Uiso   1.00
H736   H     0.30171   0.51625   0.36180   0.00000  Uiso   1.00
N737   N     0.08282   0.46273   0.60926   0.00000  Uiso   1.00
H738   H     0.04786   0.47448   0.61581   0.00000  Uiso   1.00
C739   C     0.07934   0.41883   0.59741   0.00000  Uiso   1.00
H740   H     0.07453   0.41533   0.56002   0.00000  Uiso   1.00
H741   H     0.04448   0.40350   0.60972   0.00000  Uiso   1.00
H742   H     0.11456   0.40262   0.61219   0.00000  Uiso   1.00
N743   N     0.21867   0.56427   0.62888   0.00000  Uiso   1.00
H744   H     0.21314   0.59036   0.64775   0.00000  Uiso   1.00
C745   C     0.26910   0.56562   0.61311   0.00000  Uiso   1.00
H746   H     0.29584   0.58930   0.63244   0.00000  Uiso   1.00
H747   H     0.26307   0.57607   0.57759   0.00000  Uiso   1.00
H748   H     0.28774   0.53494   0.61611   0.00000  Uiso   1.00
N749   N     0.08453   0.46053   0.37220   0.00000  Uiso   1.00
H750   H     0.04953   0.47440   0.36213   0.00000  Uiso   1.00
C751   C     0.07997   0.41543   0.37421   0.00000  Uiso   1.00
H752   H     0.04105   0.40401   0.35704   0.00000  Uiso   1.00
H753   H     0.08316   0.40563   0.41010   0.00000  Uiso   1.00
H754   H     0.11076   0.40045   0.35787   0.00000  Uiso   1.00
C755   C     0.50711   0.42062   0.50062   0.00000  Uiso   1.00
C756   C     0.49543   0.57999   0.49939   0.00000  Uiso   1.00
C757   C     0.40084   0.49699   0.48875   0.00000  Uiso   1.00
C758   C     0.59955   0.50177   0.51121   0.00000  Uiso   1.00
C759   C     0.34668   0.48825   0.48597   0.00000  Uiso   1.00
C760   C     0.65420   0.50979   0.51386   0.00000  Uiso   1.00
C761   C     0.51365   0.35472   0.45958   0.00000  Uiso   1.00
C762   C     0.49608   0.64703   0.53962   0.00000  Uiso   1.00
C763   C     0.49778   0.64632   0.45756   0.00000  Uiso   1.00
C764   C     0.51438   0.35470   0.54152   0.00000  Uiso   1.00
C765   C     0.49277   0.62496   0.49838   0.00000  Uiso   1.00
C766   C     0.51575   0.37640   0.50095   0.00000  Uiso   1.00
C767   C     0.53692   0.52327   0.36139   0.00000  Uiso   1.00
C768   C     0.46135   0.47821   0.63811   0.00000  Uiso   1.00
C769   C     0.53353   0.52626   0.64676   0.00000  Uiso   1.00
C770   C     0.46123   0.47850   0.35302   0.00000  Uiso   1.00
N771   N     0.49999   0.49999   0.61907   0.00000  Uiso   1.00
N772   N     0.50001   0.50001   0.38093   0.00000  Uiso   1.00
O773   O     0.50000   0.43892   0.53821   0.00000  Uiso   1.00
O774   O     0.50000   0.56108   0.46179   0.00000  Uiso   1.00
O775   O     0.50000   0.43893   0.46176   0.00000  Uiso   1.00
O776   O     0.50000   0.56107   0.53824   0.00000  Uiso   1.00
O777   O     0.42392   0.50000   0.52928   0.00000  Uiso   1.00
O778   O     0.57608   0.50000   0.47072   0.00000  Uiso   1.00
O779   O     0.42392   0.50000   0.45284   0.00000  Uiso   1.00
O780   O     0.57608   0.50000   0.54716   0.00000  Uiso   1.00
Zn781  Zn    0.50000   0.49999   0.55104   0.00000  Uiso   1.00
Zn782  Zn    0.50000   0.50001   0.44896   0.00000  Uiso   1.00
Br783  Br    0.65358   0.43801   0.45384   0.00000  Uiso   1.00
Br784  Br    0.34865   0.56345   0.53812   0.00000  Uiso   1.00
Br785  Br    0.54030   0.37903   0.40719   0.00000  Uiso   1.00
Br786  Br    0.46390   0.62648   0.59068   0.00000  Uiso   1.00
Br787  Br    0.47539   0.62233   0.39781   0.00000  Uiso   1.00
Br788  Br    0.54663   0.37755   0.59918   0.00000  Uiso   1.00
N789   N     0.57535   0.54902   0.38847   0.00000  Uiso   1.00
H790   H     0.56789   0.55890   0.41953   0.00000  Uiso   1.00
C791   C     0.63004   0.54244   0.38515   0.00000  Uiso   1.00
H792   H     0.65083   0.53543   0.41882   0.00000  Uiso   1.00
H793   H     0.64878   0.57155   0.37375   0.00000  Uiso   1.00
H794   H     0.63505   0.51625   0.36180   0.00000  Uiso   1.00
N795   N     0.41615   0.46273   0.60926   0.00000  Uiso   1.00
H796   H     0.38119   0.47448   0.61581   0.00000  Uiso   1.00
C797   C     0.41268   0.41883   0.59741   0.00000  Uiso   1.00
H798   H     0.40787   0.41533   0.56002   0.00000  Uiso   1.00
H799   H     0.37781   0.40350   0.60972   0.00000  Uiso   1.00
H800   H     0.44790   0.40262   0.61219   0.00000  Uiso   1.00
N801   N     0.55201   0.56427   0.62888   0.00000  Uiso   1.00
H802   H     0.54648   0.59036   0.64775   0.00000  Uiso   1.00
C803   C     0.60243   0.56562   0.61311   0.00000  Uiso   1.00
H804   H     0.62918   0.58930   0.63244   0.00000  Uiso   1.00
H805   H     0.59640   0.57607   0.57759   0.00000  Uiso   1.00
H806   H     0.62107   0.53494   0.61611   0.00000  Uiso   1.00
N807   N     0.41786   0.46053   0.37220   0.00000  Uiso   1.00
H808   H     0.38286   0.47440   0.36213   0.00000  Uiso   1.00
C809   C     0.41330   0.41543   0.37421   0.00000  Uiso   1.00
H810   H     0.37439   0.40401   0.35704   0.00000  Uiso   1.00
H811   H     0.41650   0.40563   0.41010   0.00000  Uiso   1.00
H812   H     0.44409   0.40045   0.35787   0.00000  Uiso   1.00
C813   C     0.84045   0.42062   0.50062   0.00000  Uiso   1.00
C814   C     0.82877   0.57999   0.49939   0.00000  Uiso   1.00
C815   C     0.73417   0.49699   0.48875   0.00000  Uiso   1.00
C816   C     0.93288   0.50177   0.51121   0.00000  Uiso   1.00
C817   C     0.68002   0.48825   0.48597   0.00000  Uiso   1.00
C818   C     0.98753   0.50979   0.51386   0.00000  Uiso   1.00
C819   C     0.84699   0.35472   0.45958   0.00000  Uiso   1.00
C820   C     0.82941   0.64703   0.53962   0.00000  Uiso   1.00
C821   C     0.83111   0.64632   0.45756   0.00000  Uiso   1.00
C822   C     0.84772   0.35470   0.54152   0.00000  Uiso   1.00
C823   C     0.82610   0.62496   0.49838   0.00000  Uiso   1.00
C824   C     0.84908   0.37640   0.50095   0.00000  Uiso   1.00
C825   C     0.87025   0.52327   0.36139   0.00000  Uiso   1.00
C826   C     0.79468   0.47821   0.63811   0.00000  Uiso   1.00
C827   C     0.86687   0.52626   0.64676   0.00000  Uiso   1.00
C828   C     0.79456   0.47850   0.35302   0.00000  Uiso   1.00
N829   N     0.83332   0.49999   0.61907   0.00000  Uiso   1.00
N830   N     0.83335   0.50001   0.38093   0.00000  Uiso   1.00
O831   O     0.83333   0.43892   0.53821   0.00000  Uiso   1.00
O832   O     0.83334   0.56108   0.46179   0.00000  Uiso   1.00
O833   O     0.83333   0.43893   0.46176   0.00000  Uiso   1.00
O834   O     0.83334   0.56107   0.53824   0.00000  Uiso   1.00
O835   O     0.75725   0.50000   0.52928   0.00000  Uiso   1.00
O836   O     0.90942   0.50000   0.47072   0.00000  Uiso   1.00
O837   O     0.75725   0.50000   0.45284   0.00000  Uiso   1.00
O838   O     0.90942   0.50000   0.54716   0.00000  Uiso   1.00
Zn839  Zn    0.83333   0.49999   0.55104   0.00000  Uiso   1.00
Zn840  Zn    0.83333   0.50001   0.44896   0.00000  Uiso   1.00
Br841  Br    0.98691   0.43801   0.45384   0.00000  Uiso   1.00
Br842  Br    0.68198   0.56345   0.53812   0.00000  Uiso   1.00
Br843  Br    0.87363   0.37903   0.40719   0.00000  Uiso   1.00
Br844  Br    0.79723   0.62648   0.59068   0.00000  Uiso   1.00
Br845  Br    0.80872   0.62233   0.39781   0.00000  Uiso   1.00
Br846  Br    0.87996   0.37755   0.59918   0.00000  Uiso   1.00
N847   N     0.90869   0.54902   0.38847   0.00000  Uiso   1.00
H848   H     0.90122   0.55890   0.41953   0.00000  Uiso   1.00
C849   C     0.96338   0.54244   0.38515   0.00000  Uiso   1.00
H850   H     0.98417   0.53543   0.41882   0.00000  Uiso   1.00
H851   H     0.98211   0.57155   0.37375   0.00000  Uiso   1.00
H852   H     0.96838   0.51625   0.36180   0.00000  Uiso   1.00
N853   N     0.74948   0.46273   0.60926   0.00000  Uiso   1.00
H854   H     0.71452   0.47448   0.61581   0.00000  Uiso   1.00
C855   C     0.74601   0.41883   0.59741   0.00000  Uiso   1.00
H856   H     0.74120   0.41533   0.56002   0.00000  Uiso   1.00
H857   H     0.71115   0.40350   0.60972   0.00000  Uiso   1.00
H858   H     0.78123   0.40262   0.61219   0.00000  Uiso   1.00
N859   N     0.88534   0.56427   0.62888   0.00000  Uiso   1.00
H860   H     0.87981   0.59036   0.64775   0.00000  Uiso   1.00
C861   C     0.93577   0.56562   0.61311   0.00000  Uiso   1.00
H862   H     0.96251   0.58930   0.63244   0.00000  Uiso   1.00
H863   H     0.92974   0.57607   0.57759   0.00000  Uiso   1.00
H864   H     0.95440   0.53494   0.61611   0.00000  Uiso   1.00
N865   N     0.75120   0.46053   0.37220   0.00000  Uiso   1.00
H866   H     0.71620   0.47440   0.36213   0.00000  Uiso   1.00
C867   C     0.74664   0.41543   0.37421   0.00000  Uiso   1.00
H868   H     0.70772   0.40401   0.35704   0.00000  Uiso   1.00
H869   H     0.74983   0.40563   0.41010   0.00000  Uiso   1.00
H870   H     0.77742   0.40045   0.35787   0.00000  Uiso   1.00
C871   C     0.17378   0.75395   0.50062   0.00000  Uiso   1.00
C872   C     0.16210   0.91333   0.49939   0.00000  Uiso   1.00
C873   C     0.06751   0.83032   0.48875   0.00000  Uiso   1.00
C874   C     0.26621   0.83511   0.51121   0.00000  Uiso   1.00
C875   C     0.01335   0.82158   0.48597   0.00000  Uiso   1.00
C876   C     0.32087   0.84312   0.51386   0.00000  Uiso   1.00
C877   C     0.18032   0.68805   0.45958   0.00000  Uiso   1.00
C878   C     0.16274   0.98036   0.53962   0.00000  Uiso   1.00
C879   C     0.16444   0.97965   0.45756   0.00000  Uiso   1.00
C880   C     0.18105   0.68804   0.54152   0.00000  Uiso   1.00
C881   C     0.15944   0.95829   0.49838   0.00000  Uiso   1.00
C882   C     0.18241   0.70973   0.50095   0.00000  Uiso   1.00
C883   C     0.20358   0.85661   0.36139   0.00000  Uiso   1.00
C884   C     0.12801   0.81154   0.63811   0.00000  Uiso   1.00
C885   C     0.20020   0.85960   0.64676   0.00000  Uiso   1.00
C886   C     0.12790   0.81183   0.35302   0.00000  Uiso   1.00
N887   N     0.16665   0.83332   0.61907   0.00000  Uiso   1.00
N888   N     0.16668   0.83334   0.38093   0.00000  Uiso   1.00
O889   O     0.16666   0.77225   0.53821   0.00000  Uiso   1.00
O890   O     0.16667   0.89442   0.46179   0.00000  Uiso   1.00
O891   O     0.16666   0.77226   0.46176   0.00000  Uiso   1.00
O892   O     0.16667   0.89441   0.53824   0.00000  Uiso   1.00
O893   O     0.09058   0.83333   0.52928   0.00000  Uiso   1.00
O894   O     0.24275   0.83334   0.47072   0.00000  Uiso   1.00
O895   O     0.09058   0.83334   0.45284   0.00000  Uiso   1.00
O896   O     0.24275   0.83333   0.54716   0.00000  Uiso   1.00
Zn897  Zn    0.16667   0.83333   0.55104   0.00000  Uiso   1.00
Zn898  Zn    0.16667   0.83334   0.44896   0.00000  Uiso   1.00
Br899  Br    0.32025   0.77134   0.45384   0.00000  Uiso   1.00
Br900  Br    0.01532   0.89678   0.53812   0.00000  Uiso   1.00
Br901  Br    0.20697   0.71236   0.40719   0.00000  Uiso   1.00
Br902  Br    0.13056   0.95981   0.59068   0.00000  Uiso   1.00
Br903  Br    0.14206   0.95566   0.39781   0.00000  Uiso   1.00
Br904  Br    0.21330   0.71089   0.59918   0.00000  Uiso   1.00
N905   N     0.24202   0.88236   0.38847   0.00000  Uiso   1.00
H906   H     0.23456   0.89223   0.41953   0.00000  Uiso   1.00
C907   C     0.29671   0.87577   0.38515   0.00000  Uiso   1.00
H908   H     0.31750   0.86876   0.41882   0.00000  Uiso   1.00
H909   H     0.31545   0.90488   0.37375   0.00000  Uiso   1.00
H910   H     0.30171   0.84959   0.36180   0.00000  Uiso   1.00
N911   N     0.08282   0.79606   0.60926   0.00000  Uiso   1.00
H912   H     0.04786   0.80782   0.61581   0.00000  Uiso   1.00
C913   C     0.07934   0.75216   0.59741   0.00000  Uiso   1.00
H914   H     0.07453   0.74866   0.56002   0.00000  Uiso   1.00
H915   H     0.04448   0.73683   0.60972   0.00000  Uiso   1.00
H916   H     0.11456   0.73595   0.61219   0.00000  Uiso   1.00
N917   N     0.21867   0.89760   0.62888   0.00000  Uiso   1.00
H918   H     0.21314   0.92370   0.64775   0.00000  Uiso   1.00
C919   C     0.26910   0.89896   0.61311   0.00000  Uiso   1.00
H920   H     0.29584   0.92263   0.63244   0.00000  Uiso   1.00
H921   H     0.26307   0.90940   0.57759   0.00000  Uiso   1.00
H922   H     0.28774   0.86828   0.61611   0.00000  Uiso   1.00
N923   N     0.08453   0.79386   0.37220   0.00000  Uiso   1.00
H924   H     0.04953   0.80773   0.36213   0.00000  Uiso   1.00
C925   C     0.07997   0.74876   0.37421   0.00000  Uiso   1.00
H926   H     0.04105   0.73735   0.35704   0.00000  Uiso   1.00
H927   H     0.08316   0.73897   0.41010   0.00000  Uiso   1.00
H928   H     0.11076   0.73378   0.35787   0.00000  Uiso   1.00
C929   C     0.50711   0.75395   0.50062   0.00000  Uiso   1.00
C930   C     0.49543   0.91333   0.49939   0.00000  Uiso   1.00
C931   C     0.40084   0.83032   0.48875   0.00000  Uiso   1.00
C932   C     0.59955   0.83511   0.51121   0.00000  Uiso   1.00
C933   C     0.34668   0.82158   0.48597   0.00000  Uiso   1.00
C934   C     0.65420   0.84312   0.51386   0.00000  Uiso   1.00
C935   C     0.51365   0.68805   0.45958   0.00000  Uiso   1.00
C936   C     0.49608   0.98036   0.53962   0.00000  Uiso   1.00
C937   C     0.49778   0.97965   0.45756   0.00000  Uiso   1.00
C938   C     0.51438   0.68804   0.54152   0.00000  Uiso   1.00
C939   C     0.49277   0.95829   0.49838   0.00000  Uiso   1.00
C940   C     0.51575   0.70973   0.50095   0.00000  Uiso   1.00
C941   C     0.53692   0.85661   0.36139   0.00000  Uiso   1.00
C942   C     0.46135   0.81154   0.63811   0.00000  Uiso   1.00
C943   C     0.53353   0.85960   0.64676   0.00000  Uiso   1.00
C944   C     0.46123   0.81183   0.35302   0.00000  Uiso   1.00
N945   N     0.49999   0.83332   0.61907   0.00000  Uiso   1.00
N946   N     0.50001   0.83334   0.38093   0.00000  Uiso   1.00
O947   O     0.50000   0.77225   0.53821   0.00000  Uiso   1.00
O948   O     0.50000   0.89442   0.46179   0.00000  Uiso   1.00
O949   O     0.50000   0.77226   0.46176   0.00000  Uiso   1.00
O950   O     0.50000   0.89441   0.53824   0.00000  Uiso   1.00
O951   O     0.42392   0.83333   0.52928   0.00000  Uiso   1.00
O952   O     0.57608   0.83334   0.47072   0.00000  Uiso   1.00
O953   O     0.42392   0.83334   0.45284   0.00000  Uiso   1.00
O954   O     0.57608   0.83333   0.54716   0.00000  Uiso   1.00
Zn955  Zn    0.50000   0.83333   0.55104   0.00000  Uiso   1.00
Zn956  Zn    0.50000   0.83334   0.44896   0.00000  Uiso   1.00
Br957  Br    0.65358   0.77134   0.45384   0.00000  Uiso   1.00
Br958  Br    0.34865   0.89678   0.53812   0.00000  Uiso   1.00
Br959  Br    0.54030   0.71236   0.40719   0.00000  Uiso   1.00
Br960  Br    0.46390   0.95981   0.59068   0.00000  Uiso   1.00
Br961  Br    0.47539   0.95566   0.39781   0.00000  Uiso   1.00
Br962  Br    0.54663   0.71089   0.59918   0.00000  Uiso   1.00
N963   N     0.57535   0.88236   0.38847   0.00000  Uiso   1.00
H964   H     0.56789   0.89223   0.41953   0.00000  Uiso   1.00
C965   C     0.63004   0.87577   0.38515   0.00000  Uiso   1.00
H966   H     0.65083   0.86876   0.41882   0.00000  Uiso   1.00
H967   H     0.64878   0.90488   0.37375   0.00000  Uiso   1.00
H968   H     0.63505   0.84959   0.36180   0.00000  Uiso   1.00
N969   N     0.41615   0.79606   0.60926   0.00000  Uiso   1.00
H970   H     0.38119   0.80782   0.61581   0.00000  Uiso   1.00
C971   C     0.41268   0.75216   0.59741   0.00000  Uiso   1.00
H972   H     0.40787   0.74866   0.56002   0.00000  Uiso   1.00
H973   H     0.37781   0.73683   0.60972   0.00000  Uiso   1.00
H974   H     0.44790   0.73595   0.61219   0.00000  Uiso   1.00
N975   N     0.55201   0.89760   0.62888   0.00000  Uiso   1.00
H976   H     0.54648   0.92370   0.64775   0.00000  Uiso   1.00
C977   C     0.60243   0.89896   0.61311   0.00000  Uiso   1.00
H978   H     0.62918   0.92263   0.63244   0.00000  Uiso   1.00
H979   H     0.59640   0.90940   0.57759   0.00000  Uiso   1.00
H980   H     0.62107   0.86828   0.61611   0.00000  Uiso   1.00
N981   N     0.41786   0.79386   0.37220   0.00000  Uiso   1.00
H982   H     0.38286   0.80773   0.36213   0.00000  Uiso   1.00
C983   C     0.41330   0.74876   0.37421   0.00000  Uiso   1.00
H984   H     0.37439   0.73735   0.35704   0.00000  Uiso   1.00
H985   H     0.41650   0.73897   0.41010   0.00000  Uiso   1.00
H986   H     0.44409   0.73378   0.35787   0.00000  Uiso   1.00
C987   C     0.84045   0.75395   0.50062   0.00000  Uiso   1.00
C988   C     0.82877   0.91333   0.49939   0.00000  Uiso   1.00
C989   C     0.73417   0.83032   0.48875   0.00000  Uiso   1.00
C990   C     0.93288   0.83511   0.51121   0.00000  Uiso   1.00
C991   C     0.68002   0.82158   0.48597   0.00000  Uiso   1.00
C992   C     0.98753   0.84312   0.51386   0.00000  Uiso   1.00
C993   C     0.84699   0.68805   0.45958   0.00000  Uiso   1.00
C994   C     0.82941   0.98036   0.53962   0.00000  Uiso   1.00
C995   C     0.83111   0.97965   0.45756   0.00000  Uiso   1.00
C996   C     0.84772   0.68804   0.54152   0.00000  Uiso   1.00
C997   C     0.82610   0.95829   0.49838   0.00000  Uiso   1.00
C998   C     0.84908   0.70973   0.50095   0.00000  Uiso   1.00
C999   C     0.87025   0.85661   0.36139   0.00000  Uiso   1.00
C1000  C     0.79468   0.81154   0.63811   0.00000  Uiso   1.00
C1001  C     0.86687   0.85960   0.64676   0.00000  Uiso   1.00
C1002  C     0.79456   0.81183   0.35302   0.00000  Uiso   1.00
N1003  N     0.83332   0.83332   0.61907   0.00000  Uiso   1.00
N1004  N     0.83335   0.83334   0.38093   0.00000  Uiso   1.00
O1005  O     0.83333   0.77225   0.53821   0.00000  Uiso   1.00
O1006  O     0.83334   0.89442   0.46179   0.00000  Uiso   1.00
O1007  O     0.83333   0.77226   0.46176   0.00000  Uiso   1.00
O1008  O     0.83334   0.89441   0.53824   0.00000  Uiso   1.00
O1009  O     0.75725   0.83333   0.52928   0.00000  Uiso   1.00
O1010  O     0.90942   0.83334   0.47072   0.00000  Uiso   1.00
O1011  O     0.75725   0.83334   0.45284   0.00000  Uiso   1.00
O1012  O     0.90942   0.83333   0.54716   0.00000  Uiso   1.00
Zn1013 Zn    0.83333   0.83333   0.55104   0.00000  Uiso   1.00
Zn1014 Zn    0.83333   0.83334   0.44896   0.00000  Uiso   1.00
Br1015 Br    0.98691   0.77134   0.45384   0.00000  Uiso   1.00
Br1016 Br    0.68198   0.89678   0.53812   0.00000  Uiso   1.00
Br1017 Br    0.87363   0.71236   0.40719   0.00000  Uiso   1.00
Br1018 Br    0.79723   0.95981   0.59068   0.00000  Uiso   1.00
Br1019 Br    0.80872   0.95566   0.39781   0.00000  Uiso   1.00
Br1020 Br    0.87996   0.71089   0.59918   0.00000  Uiso   1.00
N1021  N     0.90869   0.88236   0.38847   0.00000  Uiso   1.00
H1022  H     0.90122   0.89223   0.41953   0.00000  Uiso   1.00
C1023  C     0.96338   0.87577   0.38515   0.00000  Uiso   1.00
H1024  H     0.98417   0.86876   0.41882   0.00000  Uiso   1.00
H1025  H     0.98211   0.90488   0.37375   0.00000  Uiso   1.00
H1026  H     0.96838   0.84959   0.36180   0.00000  Uiso   1.00
N1027  N     0.74948   0.79606   0.60926   0.00000  Uiso   1.00
H1028  H     0.71452   0.80782   0.61581   0.00000  Uiso   1.00
C1029  C     0.74601   0.75216   0.59741   0.00000  Uiso   1.00
H1030  H     0.74120   0.74866   0.56002   0.00000  Uiso   1.00
H1031  H     0.71115   0.73683   0.60972   0.00000  Uiso   1.00
H1032  H     0.78123   0.73595   0.61219   0.00000  Uiso   1.00
N1033  N     0.88534   0.89760   0.62888   0.00000  Uiso   1.00
H1034  H     0.87981   0.92370   0.64775   0.00000  Uiso   1.00
C1035  C     0.93577   0.89896   0.61311   0.00000  Uiso   1.00
H1036  H     0.96251   0.92263   0.63244   0.00000  Uiso   1.00
H1037  H     0.92974   0.90940   0.57759   0.00000  Uiso   1.00
H1038  H     0.95440   0.86828   0.61611   0.00000  Uiso   1.00
N1039  N     0.75120   0.79386   0.37220   0.00000  Uiso   1.00
H1040  H     0.71620   0.80773   0.36213   0.00000  Uiso   1.00
C1041  C     0.74664   0.74876   0.37421   0.00000  Uiso   1.00
H1042  H     0.70772   0.73735   0.35704   0.00000  Uiso   1.00
H1043  H     0.74983   0.73897   0.41010   0.00000  Uiso   1.00
H1044  H     0.77742   0.73378   0.35787   0.00000  Uiso   1.00
C1045  C     0.17378   0.08729   0.83395   0.00000  Uiso   1.00
C1046  C     0.16210   0.24666   0.83272   0.00000  Uiso   1.00
C1047  C     0.06751   0.16365   0.82209   0.00000  Uiso   1.00
C1048  C     0.26621   0.16844   0.84455   0.00000  Uiso   1.00
C1049  C     0.01335   0.15491   0.81931   0.00000  Uiso   1.00
C1050  C     0.32087   0.17645   0.84719   0.00000  Uiso   1.00
C1051  C     0.18032   0.02139   0.79292   0.00000  Uiso   1.00
C1052  C     0.16274   0.31370   0.87296   0.00000  Uiso   1.00
C1053  C     0.16444   0.31299   0.79089   0.00000  Uiso   1.00
C1054  C     0.18105   0.02137   0.87485   0.00000  Uiso   1.00
C1055  C     0.15944   0.29163   0.83172   0.00000  Uiso   1.00
C1056  C     0.18241   0.04307   0.83428   0.00000  Uiso   1.00
C1057  C     0.20358   0.18994   0.69472   0.00000  Uiso   1.00
C1058  C     0.12801   0.14488   0.97144   0.00000  Uiso   1.00
C1059  C     0.20020   0.19293   0.98010   0.00000  Uiso   1.00
C1060  C     0.12790   0.14517   0.68636   0.00000  Uiso   1.00
N1061  N     0.16665   0.16666   0.95240   0.00000  Uiso   1.00
N1062  N     0.16668   0.16668   0.71427   0.00000  Uiso   1.00
O1063  O     0.16666   0.10558   0.87154   0.00000  Uiso   1.00
O1064  O     0.16667   0.22775   0.79513   0.00000  Uiso   1.00
O1065  O     0.16666   0.10559   0.79510   0.00000  Uiso   1.00
O1066  O     0.16667   0.22774   0.87157   0.00000  Uiso   1.00
O1067  O     0.09058   0.16666   0.86261   0.00000  Uiso   1.00
O1068  O     0.24275   0.16667   0.80405   0.00000  Uiso   1.00
O1069  O     0.09058   0.16667   0.78617   0.00000  Uiso   1.00
O1070  O     0.24275   0.16666   0.88050   0.00000  Uiso   1.00
Zn1071 Zn    0.16667   0.16666   0.88437   0.00000  Uiso   1.00
Zn1072 Zn    0.16667   0.16667   0.78229   0.00000  Uiso   1.00
Br1073 Br    0.32025   0.10467   0.78718   0.00000  Uiso   1.00
Br1074 Br    0.01532   0.23011   0.87146   0.00000  Uiso   1.00
Br1075 Br    0.20697   0.04570   0.74053   0.00000  Uiso   1.00
Br1076 Br    0.13056   0.29314   0.92401   0.00000  Uiso   1.00
Br1077 Br    0.14206   0.28900   0.73114   0.00000  Uiso   1.00
Br1078 Br    0.21330   0.04422   0.93251   0.00000  Uiso   1.00
N1079  N     0.24202   0.21569   0.72180   0.00000  Uiso   1.00
H1080  H     0.23456   0.22557   0.75286   0.00000  Uiso   1.00
C1081  C     0.29671   0.20911   0.71848   0.00000  Uiso   1.00
H1082  H     0.31750   0.20210   0.75215   0.00000  Uiso   1.00
H1083  H     0.31545   0.23822   0.70708   0.00000  Uiso   1.00
H1084  H     0.30171   0.18292   0.69514   0.00000  Uiso   1.00
N1085  N     0.08282   0.12940   0.94259   0.00000  Uiso   1.00
H1086  H     0.04786   0.14115   0.94914   0.00000  Uiso   1.00
C1087  C     0.07934   0.08550   0.93074   0.00000  Uiso   1.00
H1088  H     0.07453   0.08199   0.89336   0.00000  Uiso   1.00
H1089  H     0.04448   0.07016   0.94306   0.00000  Uiso   1.00
H1090  H     0.11456   0.06929   0.94553   0.00000  Uiso   1.00
N1091  N     0.21867   0.23093   0.96221   0.00000  Uiso   1.00
H1092  H     0.21314   0.25703   0.98109   0.00000  Uiso   1.00
C1093  C     0.26910   0.23229   0.94645   0.00000  Uiso   1.00
H1094  H     0.29584   0.25597   0.96577   0.00000  Uiso   1.00
H1095  H     0.26307   0.24273   0.91092   0.00000  Uiso   1.00
H1096  H     0.28774   0.20161   0.94945   0.00000  Uiso   1.00
N1097  N     0.08453   0.12719   0.70554   0.00000  Uiso   1.00
H1098  H     0.04953   0.14107   0.69547   0.00000  Uiso   1.00
C1099  C     0.07997   0.08210   0.70754   0.00000  Uiso   1.00
H1100  H     0.04105   0.07068   0.69037   0.00000  Uiso   1.00
H1101  H     0.08316   0.07230   0.74343   0.00000  Uiso   1.00
H1102  H     0.11076   0.06712   0.69120   0.00000  Uiso   1.00
C1103  C     0.50711   0.08729   0.83395   0.00000  Uiso   1.00
C1104  C     0.49543   0.24666   0.83272   0.00000  Uiso   1.00
C1105  C     0.40084   0.16365   0.82209   0.00000  Uiso   1.00
C1106  C     0.59955   0.16844   0.84455   0.00000  Uiso   1.00
C1107  C     0.34668   0.15491   0.81931   0.00000  Uiso   1.00
C1108  C     0.65420   0.17645   0.84719   0.00000  Uiso   1.00
C1109  C     0.51365   0.02139   0.79292   0.00000  Uiso   1.00
C1110  C     0.49608   0.31370   0.87296   0.00000  Uiso   1.00
C1111  C     0.49778   0.31299   0.79089   0.00000  Uiso   1.00
C1112  C     0.51438   0.02137   0.87485   0.00000  Uiso   1.00
C1113  C     0.49277   0.29163   0.83172   0.00000  Uiso   1.00
C1114  C     0.51575   0.04307   0.83428   0.00000  Uiso   1.00
C1115  C     0.53692   0.18994   0.69472   0.00000  Uiso   1.00
C1116  C     0.46135   0.14488   0.97144   0.00000  Uiso   1.00
C1117  C     0.53353   0.19293   0.98010   0.00000  Uiso   1.00
C1118  C     0.46123   0.14517   0.68636   0.00000  Uiso   1.00
N1119  N     0.49999   0.16666   0.95240   0.00000  Uiso   1.00
N1120  N     0.50001   0.16668   0.71427   0.00000  Uiso   1.00
O1121  O     0.50000   0.10558   0.87154   0.00000  Uiso   1.00
O1122  O     0.50000   0.22775   0.79513   0.00000  Uiso   1.00
O1123  O     0.50000   0.10559   0.79510   0.00000  Uiso   1.00
O1124  O     0.50000   0.22774   0.87157   0.00000  Uiso   1.00
O1125  O     0.42392   0.16666   0.86261   0.00000  Uiso   1.00
O1126  O     0.57608   0.16667   0.80405   0.00000  Uiso   1.00
O1127  O     0.42392   0.16667   0.78617   0.00000  Uiso   1.00
O1128  O     0.57608   0.16666   0.88050   0.00000  Uiso   1.00
Zn1129 Zn    0.50000   0.16666   0.88437   0.00000  Uiso   1.00
Zn1130 Zn    0.50000   0.16667   0.78229   0.00000  Uiso   1.00
Br1131 Br    0.65358   0.10467   0.78718   0.00000  Uiso   1.00
Br1132 Br    0.34865   0.23011   0.87146   0.00000  Uiso   1.00
Br1133 Br    0.54030   0.04570   0.74053   0.00000  Uiso   1.00
Br1134 Br    0.46390   0.29314   0.92401   0.00000  Uiso   1.00
Br1135 Br    0.47539   0.28900   0.73114   0.00000  Uiso   1.00
Br1136 Br    0.54663   0.04422   0.93251   0.00000  Uiso   1.00
N1137  N     0.57535   0.21569   0.72180   0.00000  Uiso   1.00
H1138  H     0.56789   0.22557   0.75286   0.00000  Uiso   1.00
C1139  C     0.63004   0.20911   0.71848   0.00000  Uiso   1.00
H1140  H     0.65083   0.20210   0.75215   0.00000  Uiso   1.00
H1141  H     0.64878   0.23822   0.70708   0.00000  Uiso   1.00
H1142  H     0.63505   0.18292   0.69514   0.00000  Uiso   1.00
N1143  N     0.41615   0.12940   0.94259   0.00000  Uiso   1.00
H1144  H     0.38119   0.14115   0.94914   0.00000  Uiso   1.00
C1145  C     0.41268   0.08550   0.93074   0.00000  Uiso   1.00
H1146  H     0.40787   0.08199   0.89336   0.00000  Uiso   1.00
H1147  H     0.37781   0.07016   0.94306   0.00000  Uiso   1.00
H1148  H     0.44790   0.06929   0.94553   0.00000  Uiso   1.00
N1149  N     0.55201   0.23093   0.96221   0.00000  Uiso   1.00
H1150  H     0.54648   0.25703   0.98109   0.00000  Uiso   1.00
C1151  C     0.60243   0.23229   0.94645   0.00000  Uiso   1.00
H1152  H     0.62918   0.25597   0.96577   0.00000  Uiso   1.00
H1153  H     0.59640   0.24273   0.91092   0.00000  Uiso   1.00
H1154  H     0.62107   0.20161   0.94945   0.00000  Uiso   1.00
N1155  N     0.41786   0.12719   0.70554   0.00000  Uiso   1.00
H1156  H     0.38286   0.14107   0.69547   0.00000  Uiso   1.00
C1157  C     0.41330   0.08210   0.70754   0.00000  Uiso   1.00
H1158  H     0.37439   0.07068   0.69037   0.00000  Uiso   1.00
H1159  H     0.41650   0.07230   0.74343   0.00000  Uiso   1.00
H1160  H     0.44409   0.06712   0.69120   0.00000  Uiso   1.00
C1161  C     0.84045   0.08729   0.83395   0.00000  Uiso   1.00
C1162  C     0.82877   0.24666   0.83272   0.00000  Uiso   1.00
C1163  C     0.73417   0.16365   0.82209   0.00000  Uiso   1.00
C1164  C     0.93288   0.16844   0.84455   0.00000  Uiso   1.00
C1165  C     0.68002   0.15491   0.81931   0.00000  Uiso   1.00
C1166  C     0.98753   0.17645   0.84719   0.00000  Uiso   1.00
C1167  C     0.84699   0.02139   0.79292   0.00000  Uiso   1.00
C1168  C     0.82941   0.31370   0.87296   0.00000  Uiso   1.00
C1169  C     0.83111   0.31299   0.79089   0.00000  Uiso   1.00
C1170  C     0.84772   0.02137   0.87485   0.00000  Uiso   1.00
C1171  C     0.82610   0.29163   0.83172   0.00000  Uiso   1.00
C1172  C     0.84908   0.04307   0.83428   0.00000  Uiso   1.00
C1173  C     0.87025   0.18994   0.69472   0.00000  Uiso   1.00
C1174  C     0.79468   0.14488   0.97144   0.00000  Uiso   1.00
C1175  C     0.86687   0.19293   0.98010   0.00000  Uiso   1.00
C1176  C     0.79456   0.14517   0.68636   0.00000  Uiso   1.00
N1177  N     0.83332   0.16666   0.95240   0.00000  Uiso   1.00
N1178  N     0.83335   0.16668   0.71427   0.00000  Uiso   1.00
O1179  O     0.83333   0.10558   0.87154   0.00000  Uiso   1.00
O1180  O     0.83334   0.22775   0.79513   0.00000  Uiso   1.00
O1181  O     0.83333   0.10559   0.79510   0.00000  Uiso   1.00
O1182  O     0.83334   0.22774   0.87157   0.00000  Uiso   1.00
O1183  O     0.75725   0.16666   0.86261   0.00000  Uiso   1.00
O1184  O     0.90942   0.16667   0.80405   0.00000  Uiso   1.00
O1185  O     0.75725   0.16667   0.78617   0.00000  Uiso   1.00
O1186  O     0.90942   0.16666   0.88050   0.00000  Uiso   1.00
Zn1187 Zn    0.83333   0.16666   0.88437   0.00000  Uiso   1.00
Zn1188 Zn    0.83333   0.16667   0.78229   0.00000  Uiso   1.00
Br1189 Br    0.98691   0.10467   0.78718   0.00000  Uiso   1.00
Br1190 Br    0.68198   0.23011   0.87146   0.00000  Uiso   1.00
Br1191 Br    0.87363   0.04570   0.74053   0.00000  Uiso   1.00
Br1192 Br    0.79723   0.29314   0.92401   0.00000  Uiso   1.00
Br1193 Br    0.80872   0.28900   0.73114   0.00000  Uiso   1.00
Br1194 Br    0.87996   0.04422   0.93251   0.00000  Uiso   1.00
N1195  N     0.90869   0.21569   0.72180   0.00000  Uiso   1.00
H1196  H     0.90122   0.22557   0.75286   0.00000  Uiso   1.00
C1197  C     0.96338   0.20911   0.71848   0.00000  Uiso   1.00
H1198  H     0.98417   0.20210   0.75215   0.00000  Uiso   1.00
H1199  H     0.98211   0.23822   0.70708   0.00000  Uiso   1.00
H1200  H     0.96838   0.18292   0.69514   0.00000  Uiso   1.00
N1201  N     0.74948   0.12940   0.94259   0.00000  Uiso   1.00
H1202  H     0.71452   0.14115   0.94914   0.00000  Uiso   1.00
C1203  C     0.74601   0.08550   0.93074   0.00000  Uiso   1.00
H1204  H     0.74120   0.08199   0.89336   0.00000  Uiso   1.00
H1205  H     0.71115   0.07016   0.94306   0.00000  Uiso   1.00
H1206  H     0.78123   0.06929   0.94553   0.00000  Uiso   1.00
N1207  N     0.88534   0.23093   0.96221   0.00000  Uiso   1.00
H1208  H     0.87981   0.25703   0.98109   0.00000  Uiso   1.00
C1209  C     0.93577   0.23229   0.94645   0.00000  Uiso   1.00
H1210  H     0.96251   0.25597   0.96577   0.00000  Uiso   1.00
H1211  H     0.92974   0.24273   0.91092   0.00000  Uiso   1.00
H1212  H     0.95440   0.20161   0.94945   0.00000  Uiso   1.00
N1213  N     0.75120   0.12719   0.70554   0.00000  Uiso   1.00
H1214  H     0.71620   0.14107   0.69547   0.00000  Uiso   1.00
C1215  C     0.74664   0.08210   0.70754   0.00000  Uiso   1.00
H1216  H     0.70772   0.07068   0.69037   0.00000  Uiso   1.00
H1217  H     0.74983   0.07230   0.74343   0.00000  Uiso   1.00
H1218  H     0.77742   0.06712   0.69120   0.00000  Uiso   1.00
C1219  C     0.17378   0.42062   0.83395   0.00000  Uiso   1.00
C1220  C     0.16210   0.57999   0.83272   0.00000  Uiso   1.00
C1221  C     0.06751   0.49699   0.82209   0.00000  Uiso   1.00
C1222  C     0.26621   0.50177   0.84455   0.00000  Uiso   1.00
C1223  C     0.01335   0.48825   0.81931   0.00000  Uiso   1.00
C1224  C     0.32087   0.50979   0.84719   0.00000  Uiso   1.00
C1225  C     0.18032   0.35472   0.79292   0.00000  Uiso   1.00
C1226  C     0.16274   0.64703   0.87296   0.00000  Uiso   1.00
C1227  C     0.16444   0.64632   0.79089   0.00000  Uiso   1.00
C1228  C     0.18105   0.35470   0.87485   0.00000  Uiso   1.00
C1229  C     0.15944   0.62496   0.83172   0.00000  Uiso   1.00
C1230  C     0.18241   0.37640   0.83428   0.00000  Uiso   1.00
C1231  C     0.20358   0.52327   0.69472   0.00000  Uiso   1.00
C1232  C     0.12801   0.47821   0.97144   0.00000  Uiso   1.00
C1233  C     0.20020   0.52626   0.98010   0.00000  Uiso   1.00
C1234  C     0.12790   0.47850   0.68636   0.00000  Uiso   1.00
N1235  N     0.16665   0.49999   0.95240   0.00000  Uiso   1.00
N1236  N     0.16668   0.50001   0.71427   0.00000  Uiso   1.00
O1237  O     0.16666   0.43892   0.87154   0.00000  Uiso   1.00
O1238  O     0.16667   0.56108   0.79513   0.00000  Uiso   1.00
O1239  O     0.16666   0.43893   0.79510   0.00000  Uiso   1.00
O1240  O     0.16667   0.56107   0.87157   0.00000  Uiso   1.00
O1241  O     0.09058   0.50000   0.86261   0.00000  Uiso   1.00
O1242  O     0.24275   0.50000   0.80405   0.00000  Uiso   1.00
O1243  O     0.09058   0.50000   0.78617   0.00000  Uiso   1.00
O1244  O     0.24275   0.50000   0.88050   0.00000  Uiso   1.00
Zn1245 Zn    0.16667   0.49999   0.88437   0.00000  Uiso   1.00
Zn1246 Zn    0.16667   0.50001   0.78229   0.00000  Uiso   1.00
Br1247 Br    0.32025   0.43801   0.78718   0.00000  Uiso   1.00
Br1248 Br    0.01532   0.56345   0.87146   0.00000  Uiso   1.00
Br1249 Br    0.20697   0.37903   0.74053   0.00000  Uiso   1.00
Br1250 Br    0.13056   0.62648   0.92401   0.00000  Uiso   1.00
Br1251 Br    0.14206   0.62233   0.73114   0.00000  Uiso   1.00
Br1252 Br    0.21330   0.37755   0.93251   0.00000  Uiso   1.00
N1253  N     0.24202   0.54902   0.72180   0.00000  Uiso   1.00
H1254  H     0.23456   0.55890   0.75286   0.00000  Uiso   1.00
C1255  C     0.29671   0.54244   0.71848   0.00000  Uiso   1.00
H1256  H     0.31750   0.53543   0.75215   0.00000  Uiso   1.00
H1257  H     0.31545   0.57155   0.70708   0.00000  Uiso   1.00
H1258  H     0.30171   0.51625   0.69514   0.00000  Uiso   1.00
N1259  N     0.08282   0.46273   0.94259   0.00000  Uiso   1.00
H1260  H     0.04786   0.47448   0.94914   0.00000  Uiso   1.00
C1261  C     0.07934   0.41883   0.93074   0.00000  Uiso   1.00
H1262  H     0.07453   0.41533   0.89336   0.00000  Uiso   1.00
H1263  H     0.04448   0.40350   0.94306   0.00000  Uiso   1.00
H1264  H     0.11456   0.40262   0.94553   0.00000  Uiso   1.00
N1265  N     0.21867   0.56427   0.96221   0.00000  Uiso   1.00
H1266  H     0.21314   0.59036   0.98109   0.00000  Uiso   1.00
C1267  C     0.26910   0.56562   0.94645   0.00000  Uiso   1.00
H1268  H     0.29584   0.58930   0.96577   0.00000  Uiso   1.00
H1269  H     0.26307   0.57607   0.91092   0.00000  Uiso   1.00
H1270  H     0.28774   0.53494   0.94945   0.00000  Uiso   1.00
N1271  N     0.08453   0.46053   0.70554   0.00000  Uiso   1.00
H1272  H     0.04953   0.47440   0.69547   0.00000  Uiso   1.00
C1273  C     0.07997   0.41543   0.70754   0.00000  Uiso   1.00
H1274  H     0.04105   0.40401   0.69037   0.00000  Uiso   1.00
H1275  H     0.08316   0.40563   0.74343   0.00000  Uiso   1.00
H1276  H     0.11076   0.40045   0.69120   0.00000  Uiso   1.00
C1277  C     0.50711   0.42062   0.83395   0.00000  Uiso   1.00
C1278  C     0.49543   0.57999   0.83272   0.00000  Uiso   1.00
C1279  C     0.40084   0.49699   0.82209   0.00000  Uiso   1.00
C1280  C     0.59955   0.50177   0.84455   0.00000  Uiso   1.00
C1281  C     0.34668   0.48825   0.81931   0.00000  Uiso   1.00
C1282  C     0.65420   0.50979   0.84719   0.00000  Uiso   1.00
C1283  C     0.51365   0.35472   0.79292   0.00000  Uiso   1.00
C1284  C     0.49608   0.64703   0.87296   0.00000  Uiso   1.00
C1285  C     0.49778   0.64632   0.79089   0.00000  Uiso   1.00
C1286  C     0.51438   0.35470   0.87485   0.00000  Uiso   1.00
C1287  C     0.49277   0.62496   0.83172   0.00000  Uiso   1.00
C1288  C     0.51575   0.37640   0.83428   0.00000  Uiso   1.00
C1289  C     0.53692   0.52327   0.69472   0.00000  Uiso   1.00
C1290  C     0.46135   0.47821   0.97144   0.00000  Uiso   1.00
C1291  C     0.53353   0.52626   0.98010   0.00000  Uiso   1.00
C1292  C     0.46123   0.47850   0.68636   0.00000  Uiso   1.00
N1293  N     0.49999   0.49999   0.95240   0.00000  Uiso   1.00
N1294  N     0.50001   0.50001   0.71427   0.00000  Uiso   1.00
O1295  O     0.50000   0.43892   0.87154   0.00000  Uiso   1.00
O1296  O     0.50000   0.56108   0.79513   0.00000  Uiso   1.00
O1297  O     0.50000   0.43893   0.79510   0.00000  Uiso   1.00
O1298  O     0.50000   0.56107   0.87157   0.00000  Uiso   1.00
O1299  O     0.42392   0.50000   0.86261   0.00000  Uiso   1.00
O1300  O     0.57608   0.50000   0.80405   0.00000  Uiso   1.00
O1301  O     0.42392   0.50000   0.78617   0.00000  Uiso   1.00
O1302  O     0.57608   0.50000   0.88050   0.00000  Uiso   1.00
Zn1303 Zn    0.50000   0.49999   0.88437   0.00000  Uiso   1.00
Zn1304 Zn    0.50000   0.50001   0.78229   0.00000  Uiso   1.00
Br1305 Br    0.65358   0.43801   0.78718   0.00000  Uiso   1.00
Br1306 Br    0.34865   0.56345   0.87146   0.00000  Uiso   1.00
Br1307 Br    0.54030   0.37903   0.74053   0.00000  Uiso   1.00
Br1308 Br    0.46390   0.62648   0.92401   0.00000  Uiso   1.00
Br1309 Br    0.47539   0.62233   0.73114   0.00000  Uiso   1.00
Br1310 Br    0.54663   0.37755   0.93251   0.00000  Uiso   1.00
N1311  N     0.57535   0.54902   0.72180   0.00000  Uiso   1.00
H1312  H     0.56789   0.55890   0.75286   0.00000  Uiso   1.00
C1313  C     0.63004   0.54244   0.71848   0.00000  Uiso   1.00
H1314  H     0.65083   0.53543   0.75215   0.00000  Uiso   1.00
H1315  H     0.64878   0.57155   0.70708   0.00000  Uiso   1.00
H1316  H     0.63505   0.51625   0.69514   0.00000  Uiso   1.00
N1317  N     0.41615   0.46273   0.94259   0.00000  Uiso   1.00
H1318  H     0.38119   0.47448   0.94914   0.00000  Uiso   1.00
C1319  C     0.41268   0.41883   0.93074   0.00000  Uiso   1.00
H1320  H     0.40787   0.41533   0.89336   0.00000  Uiso   1.00
H1321  H     0.37781   0.40350   0.94306   0.00000  Uiso   1.00
H1322  H     0.44790   0.40262   0.94553   0.00000  Uiso   1.00
N1323  N     0.55201   0.56427   0.96221   0.00000  Uiso   1.00
H1324  H     0.54648   0.59036   0.98109   0.00000  Uiso   1.00
C1325  C     0.60243   0.56562   0.94645   0.00000  Uiso   1.00
H1326  H     0.62918   0.58930   0.96577   0.00000  Uiso   1.00
H1327  H     0.59640   0.57607   0.91092   0.00000  Uiso   1.00
H1328  H     0.62107   0.53494   0.94945   0.00000  Uiso   1.00
N1329  N     0.41786   0.46053   0.70554   0.00000  Uiso   1.00
H1330  H     0.38286   0.47440   0.69547   0.00000  Uiso   1.00
C1331  C     0.41330   0.41543   0.70754   0.00000  Uiso   1.00
H1332  H     0.37439   0.40401   0.69037   0.00000  Uiso   1.00
H1333  H     0.41650   0.40563   0.74343   0.00000  Uiso   1.00
H1334  H     0.44409   0.40045   0.69120   0.00000  Uiso   1.00
C1335  C     0.84045   0.42062   0.83395   0.00000  Uiso   1.00
C1336  C     0.82877   0.57999   0.83272   0.00000  Uiso   1.00
C1337  C     0.73417   0.49699   0.82209   0.00000  Uiso   1.00
C1338  C     0.93288   0.50177   0.84455   0.00000  Uiso   1.00
C1339  C     0.68002   0.48825   0.81931   0.00000  Uiso   1.00
C1340  C     0.98753   0.50979   0.84719   0.00000  Uiso   1.00
C1341  C     0.84699   0.35472   0.79292   0.00000  Uiso   1.00
C1342  C     0.82941   0.64703   0.87296   0.00000  Uiso   1.00
C1343  C     0.83111   0.64632   0.79089   0.00000  Uiso   1.00
C1344  C     0.84772   0.35470   0.87485   0.00000  Uiso   1.00
C1345  C     0.82610   0.62496   0.83172   0.00000  Uiso   1.00
C1346  C     0.84908   0.37640   0.83428   0.00000  Uiso   1.00
C1347  C     0.87025   0.52327   0.69472   0.00000  Uiso   1.00
C1348  C     0.79468   0.47821   0.97144   0.00000  Uiso   1.00
C1349  C     0.86687   0.52626   0.98010   0.00000  Uiso   1.00
C1350  C     0.79456   0.47850   0.68636   0.00000  Uiso   1.00
N1351  N     0.83332   0.49999   0.95240   0.00000  Uiso   1.00
N1352  N     0.83335   0.50001   0.71427   0.00000  Uiso   1.00
O1353  O     0.83333   0.43892   0.87154   0.00000  Uiso   1.00
O1354  O     0.83334   0.56108   0.79513   0.00000  Uiso   1.00
O1355  O     0.83333   0.43893   0.79510   0.00000  Uiso   1.00
O1356  O     0.83334   0.56107   0.87157   0.00000  Uiso   1.00
O1357  O     0.75725   0.50000   0.86261   0.00000  Uiso   1.00
O1358  O     0.90942   0.50000   0.80405   0.00000  Uiso   1.00
O1359  O     0.75725   0.50000   0.78617   0.00000  Uiso   1.00
O1360  O     0.90942   0.50000   0.88050   0.00000  Uiso   1.00
Zn1361 Zn    0.83333   0.49999   0.88437   0.00000  Uiso   1.00
Zn1362 Zn    0.83333   0.50001   0.78229   0.00000  Uiso   1.00
Br1363 Br    0.98691   0.43801   0.78718   0.00000  Uiso   1.00
Br1364 Br    0.68198   0.56345   0.87146   0.00000  Uiso   1.00
Br1365 Br    0.87363   0.37903   0.74053   0.00000  Uiso   1.00
Br1366 Br    0.79723   0.62648   0.92401   0.00000  Uiso   1.00
Br1367 Br    0.80872   0.62233   0.73114   0.00000  Uiso   1.00
Br1368 Br    0.87996   0.37755   0.93251   0.00000  Uiso   1.00
N1369  N     0.90869   0.54902   0.72180   0.00000  Uiso   1.00
H1370  H     0.90122   0.55890   0.75286   0.00000  Uiso   1.00
C1371  C     0.96338   0.54244   0.71848   0.00000  Uiso   1.00
H1372  H     0.98417   0.53543   0.75215   0.00000  Uiso   1.00
H1373  H     0.98211   0.57155   0.70708   0.00000  Uiso   1.00
H1374  H     0.96838   0.51625   0.69514   0.00000  Uiso   1.00
N1375  N     0.74948   0.46273   0.94259   0.00000  Uiso   1.00
H1376  H     0.71452   0.47448   0.94914   0.00000  Uiso   1.00
C1377  C     0.74601   0.41883   0.93074   0.00000  Uiso   1.00
H1378  H     0.74120   0.41533   0.89336   0.00000  Uiso   1.00
H1379  H     0.71115   0.40350   0.94306   0.00000  Uiso   1.00
H1380  H     0.78123   0.40262   0.94553   0.00000  Uiso   1.00
N1381  N     0.88534   0.56427   0.96221   0.00000  Uiso   1.00
H1382  H     0.87981   0.59036   0.98109   0.00000  Uiso   1.00
C1383  C     0.93577   0.56562   0.94645   0.00000  Uiso   1.00
H1384  H     0.96251   0.58930   0.96577   0.00000  Uiso   1.00
H1385  H     0.92974   0.57607   0.91092   0.00000  Uiso   1.00
H1386  H     0.95440   0.53494   0.94945   0.00000  Uiso   1.00
N1387  N     0.75120   0.46053   0.70554   0.00000  Uiso   1.00
H1388  H     0.71620   0.47440   0.69547   0.00000  Uiso   1.00
C1389  C     0.74664   0.41543   0.70754   0.00000  Uiso   1.00
H1390  H     0.70772   0.40401   0.69037   0.00000  Uiso   1.00
H1391  H     0.74983   0.40563   0.74343   0.00000  Uiso   1.00
H1392  H     0.77742   0.40045   0.69120   0.00000  Uiso   1.00
C1393  C     0.17378   0.75395   0.83395   0.00000  Uiso   1.00
C1394  C     0.16210   0.91333   0.83272   0.00000  Uiso   1.00
C1395  C     0.06751   0.83032   0.82209   0.00000  Uiso   1.00
C1396  C     0.26621   0.83511   0.84455   0.00000  Uiso   1.00
C1397  C     0.01335   0.82158   0.81931   0.00000  Uiso   1.00
C1398  C     0.32087   0.84312   0.84719   0.00000  Uiso   1.00
C1399  C     0.18032   0.68805   0.79292   0.00000  Uiso   1.00
C1400  C     0.16274   0.98036   0.87296   0.00000  Uiso   1.00
C1401  C     0.16444   0.97965   0.79089   0.00000  Uiso   1.00
C1402  C     0.18105   0.68804   0.87485   0.00000  Uiso   1.00
C1403  C     0.15944   0.95829   0.83172   0.00000  Uiso   1.00
C1404  C     0.18241   0.70973   0.83428   0.00000  Uiso   1.00
C1405  C     0.20358   0.85661   0.69472   0.00000  Uiso   1.00
C1406  C     0.12801   0.81154   0.97144   0.00000  Uiso   1.00
C1407  C     0.20020   0.85960   0.98010   0.00000  Uiso   1.00
C1408  C     0.12790   0.81183   0.68636   0.00000  Uiso   1.00
N1409  N     0.16665   0.83332   0.95240   0.00000  Uiso   1.00
N1410  N     0.16668   0.83334   0.71427   0.00000  Uiso   1.00
O1411  O     0.16666   0.77225   0.87154   0.00000  Uiso   1.00
O1412  O     0.16667   0.89442   0.79513   0.00000  Uiso   1.00
O1413  O     0.16666   0.77226   0.79510   0.00000  Uiso   1.00
O1414  O     0.16667   0.89441   0.87157   0.00000  Uiso   1.00
O1415  O     0.09058   0.83333   0.86261   0.00000  Uiso   1.00
O1416  O     0.24275   0.83334   0.80405   0.00000  Uiso   1.00
O1417  O     0.09058   0.83334   0.78617   0.00000  Uiso   1.00
O1418  O     0.24275   0.83333   0.88050   0.00000  Uiso   1.00
Zn1419 Zn    0.16667   0.83333   0.88437   0.00000  Uiso   1.00
Zn1420 Zn    0.16667   0.83334   0.78229   0.00000  Uiso   1.00
Br1421 Br    0.32025   0.77134   0.78718   0.00000  Uiso   1.00
Br1422 Br    0.01532   0.89678   0.87146   0.00000  Uiso   1.00
Br1423 Br    0.20697   0.71236   0.74053   0.00000  Uiso   1.00
Br1424 Br    0.13056   0.95981   0.92401   0.00000  Uiso   1.00
Br1425 Br    0.14206   0.95566   0.73114   0.00000  Uiso   1.00
Br1426 Br    0.21330   0.71089   0.93251   0.00000  Uiso   1.00
N1427  N     0.24202   0.88236   0.72180   0.00000  Uiso   1.00
H1428  H     0.23456   0.89223   0.75286   0.00000  Uiso   1.00
C1429  C     0.29671   0.87577   0.71848   0.00000  Uiso   1.00
H1430  H     0.31750   0.86876   0.75215   0.00000  Uiso   1.00
H1431  H     0.31545   0.90488   0.70708   0.00000  Uiso   1.00
H1432  H     0.30171   0.84959   0.69514   0.00000  Uiso   1.00
N1433  N     0.08282   0.79606   0.94259   0.00000  Uiso   1.00
H1434  H     0.04786   0.80782   0.94914   0.00000  Uiso   1.00
C1435  C     0.07934   0.75216   0.93074   0.00000  Uiso   1.00
H1436  H     0.07453   0.74866   0.89336   0.00000  Uiso   1.00
H1437  H     0.04448   0.73683   0.94306   0.00000  Uiso   1.00
H1438  H     0.11456   0.73595   0.94553   0.00000  Uiso   1.00
N1439  N     0.21867   0.89760   0.96221   0.00000  Uiso   1.00
H1440  H     0.21314   0.92370   0.98109   0.00000  Uiso   1.00
C1441  C     0.26910   0.89896   0.94645   0.00000  Uiso   1.00
H1442  H     0.29584   0.92263   0.96577   0.00000  Uiso   1.00
H1443  H     0.26307   0.90940   0.91092   0.00000  Uiso   1.00
H1444  H     0.28774   0.86828   0.94945   0.00000  Uiso   1.00
N1445  N     0.08453   0.79386   0.70554   0.00000  Uiso   1.00
H1446  H     0.04953   0.80773   0.69547   0.00000  Uiso   1.00
C1447  C     0.07997   0.74876   0.70754   0.00000  Uiso   1.00
H1448  H     0.04105   0.73735   0.69037   0.00000  Uiso   1.00
H1449  H     0.08316   0.73897   0.74343   0.00000  Uiso   1.00
H1450  H     0.11076   0.73378   0.69120   0.00000  Uiso   1.00
C1451  C     0.50711   0.75395   0.83395   0.00000  Uiso   1.00
C1452  C     0.49543   0.91333   0.83272   0.00000  Uiso   1.00
C1453  C     0.40084   0.83032   0.82209   0.00000  Uiso   1.00
C1454  C     0.59955   0.83511   0.84455   0.00000  Uiso   1.00
C1455  C     0.34668   0.82158   0.81931   0.00000  Uiso   1.00
C1456  C     0.65420   0.84312   0.84719   0.00000  Uiso   1.00
C1457  C     0.51365   0.68805   0.79292   0.00000  Uiso   1.00
C1458  C     0.49608   0.98036   0.87296   0.00000  Uiso   1.00
C1459  C     0.49778   0.97965   0.79089   0.00000  Uiso   1.00
C1460  C     0.51438   0.68804   0.87485   0.00000  Uiso   1.00
C1461  C     0.49277   0.95829   0.83172   0.00000  Uiso   1.00
C1462  C     0.51575   0.70973   0.83428   0.00000  Uiso   1.00
C1463  C     0.53692   0.85661   0.69472   0.00000  Uiso   1.00
C1464  C     0.46135   0.81154   0.97144   0.00000  Uiso   1.00
C1465  C     0.53353   0.85960   0.98010   0.00000  Uiso   1.00
C1466  C     0.46123   0.81183   0.68636   0.00000  Uiso   1.00
N1467  N     0.49999   0.83332   0.95240   0.00000  Uiso   1.00
N1468  N     0.50001   0.83334   0.71427   0.00000  Uiso   1.00
O1469  O     0.50000   0.77225   0.87154   0.00000  Uiso   1.00
O1470  O     0.50000   0.89442   0.79513   0.00000  Uiso   1.00
O1471  O     0.50000   0.77226   0.79510   0.00000  Uiso   1.00
O1472  O     0.50000   0.89441   0.87157   0.00000  Uiso   1.00
O1473  O     0.42392   0.83333   0.86261   0.00000  Uiso   1.00
O1474  O     0.57608   0.83334   0.80405   0.00000  Uiso   1.00
O1475  O     0.42392   0.83334   0.78617   0.00000  Uiso   1.00
O1476  O     0.57608   0.83333   0.88050   0.00000  Uiso   1.00
Zn1477 Zn    0.50000   0.83333   0.88437   0.00000  Uiso   1.00
Zn1478 Zn    0.50000   0.83334   0.78229   0.00000  Uiso   1.00
Br1479 Br    0.65358   0.77134   0.78718   0.00000  Uiso   1.00
Br1480 Br    0.34865   0.89678   0.87146   0.00000  Uiso   1.00
Br1481 Br    0.54030   0.71236   0.74053   0.00000  Uiso   1.00
Br1482 Br    0.46390   0.95981   0.92401   0.00000  Uiso   1.00
Br1483 Br    0.47539   0.95566   0.73114   0.00000  Uiso   1.00
Br1484 Br    0.54663   0.71089   0.93251   0.00000  Uiso   1.00
N1485  N     0.57535   0.88236   0.72180   0.00000  Uiso   1.00
H1486  H     0.56789   0.89223   0.75286   0.00000  Uiso   1.00
C1487  C     0.63004   0.87577   0.71848   0.00000  Uiso   1.00
H1488  H     0.65083   0.86876   0.75215   0.00000  Uiso   1.00
H1489  H     0.64878   0.90488   0.70708   0.00000  Uiso   1.00
H1490  H     0.63505   0.84959   0.69514   0.00000  Uiso   1.00
N1491  N     0.41615   0.79606   0.94259   0.00000  Uiso   1.00
H1492  H     0.38119   0.80782   0.94914   0.00000  Uiso   1.00
C1493  C     0.41268   0.75216   0.93074   0.00000  Uiso   1.00
H1494  H     0.40787   0.74866   0.89336   0.00000  Uiso   1.00
H1495  H     0.37781   0.73683   0.94306   0.00000  Uiso   1.00
H1496  H     0.44790   0.73595   0.94553   0.00000  Uiso   1.00
N1497  N     0.55201   0.89760   0.96221   0.00000  Uiso   1.00
H1498  H     0.54648   0.92370   0.98109   0.00000  Uiso   1.00
C1499  C     0.60243   0.89896   0.94645   0.00000  Uiso   1.00
H1500  H     0.62918   0.92263   0.96577   0.00000  Uiso   1.00
H1501  H     0.59640   0.90940   0.91092   0.00000  Uiso   1.00
H1502  H     0.62107   0.86828   0.94945   0.00000  Uiso   1.00
N1503  N     0.41786   0.79386   0.70554   0.00000  Uiso   1.00
H1504  H     0.38286   0.80773   0.69547   0.00000  Uiso   1.00
C1505  C     0.41330   0.74876   0.70754   0.00000  Uiso   1.00
H1506  H     0.37439   0.73735   0.69037   0.00000  Uiso   1.00
H1507  H     0.41650   0.73897   0.74343   0.00000  Uiso   1.00
H1508  H     0.44409   0.73378   0.69120   0.00000  Uiso   1.00
C1509  C     0.84045   0.75395   0.83395   0.00000  Uiso   1.00
C1510  C     0.82877   0.91333   0.83272   0.00000  Uiso   1.00
C1511  C     0.73417   0.83032   0.82209   0.00000  Uiso   1.00
C1512  C     0.93288   0.83511   0.84455   0.00000  Uiso   1.00
C1513  C     0.68002   0.82158   0.81931   0.00000  Uiso   1.00
C1514  C     0.98753   0.84312   0.84719   0.00000  Uiso   1.00
C1515  C     0.84699   0.68805   0.79292   0.00000  Uiso   1.00
C1516  C     0.82941   0.98036   0.87296   0.00000  Uiso   1.00
C1517  C     0.83111   0.97965   0.79089   0.00000  Uiso   1.00
C1518  C     0.84772   0.68804   0.87485   0.00000  Uiso   1.00
C1519  C     0.82610   0.95829   0.83172   0.00000  Uiso   1.00
C1520  C     0.84908   0.70973   0.83428   0.00000  Uiso   1.00
C1521  C     0.87025   0.85661   0.69472   0.00000  Uiso   1.00
C1522  C     0.79468   0.81154   0.97144   0.00000  Uiso   1.00
C1523  C     0.86687   0.85960   0.98010   0.00000  Uiso   1.00
C1524  C     0.79456   0.81183   0.68636   0.00000  Uiso   1.00
N1525  N     0.83332   0.83332   0.95240   0.00000  Uiso   1.00
N1526  N     0.83335   0.83334   0.71427   0.00000  Uiso   1.00
O1527  O     0.83333   0.77225   0.87154   0.00000  Uiso   1.00
O1528  O     0.83334   0.89442   0.79513   0.00000  Uiso   1.00
O1529  O     0.83333   0.77226   0.79510   0.00000  Uiso   1.00
O1530  O     0.83334   0.89441   0.87157   0.00000  Uiso   1.00
O1531  O     0.75725   0.83333   0.86261   0.00000  Uiso   1.00
O1532  O     0.90942   0.83334   0.80405   0.00000  Uiso   1.00
O1533  O     0.75725   0.83334   0.78617   0.00000  Uiso   1.00
O1534  O     0.90942   0.83333   0.88050   0.00000  Uiso   1.00
Zn1535 Zn    0.83333   0.83333   0.88437   0.00000  Uiso   1.00
Zn1536 Zn    0.83333   0.83334   0.78229   0.00000  Uiso   1.00
Br1537 Br    0.98691   0.77134   0.78718   0.00000  Uiso   1.00
Br1538 Br    0.68198   0.89678   0.87146   0.00000  Uiso   1.00
Br1539 Br    0.87363   0.71236   0.74053   0.00000  Uiso   1.00
Br1540 Br    0.79723   0.95981   0.92401   0.00000  Uiso   1.00
Br1541 Br    0.80872   0.95566   0.73114   0.00000  Uiso   1.00
Br1542 Br    0.87996   0.71089   0.93251   0.00000  Uiso   1.00
N1543  N     0.90869   0.88236   0.72180   0.00000  Uiso   1.00
H1544  H     0.90122   0.89223   0.75286   0.00000  Uiso   1.00
C1545  C     0.96338   0.87577   0.71848   0.00000  Uiso   1.00
H1546  H     0.98417   0.86876   0.75215   0.00000  Uiso   1.00
H1547  H     0.98211   0.90488   0.70708   0.00000  Uiso   1.00
H1548  H     0.96838   0.84959   0.69514   0.00000  Uiso   1.00
N1549  N     0.74948   0.79606   0.94259   0.00000  Uiso   1.00
H1550  H     0.71452   0.80782   0.94914   0.00000  Uiso   1.00
C1551  C     0.74601   0.75216   0.93074   0.00000  Uiso   1.00
H1552  H     0.74120   0.74866   0.89336   0.00000  Uiso   1.00
H1553  H     0.71115   0.73683   0.94306   0.00000  Uiso   1.00
H1554  H     0.78123   0.73595   0.94553   0.00000  Uiso   1.00
N1555  N     0.88534   0.89760   0.96221   0.00000  Uiso   1.00
H1556  H     0.87981   0.92370   0.98109   0.00000  Uiso   1.00
C1557  C     0.93577   0.89896   0.94645   0.00000  Uiso   1.00
H1558  H     0.96251   0.92263   0.96577   0.00000  Uiso   1.00
H1559  H     0.92974   0.90940   0.91092   0.00000  Uiso   1.00
H1560  H     0.95440   0.86828   0.94945   0.00000  Uiso   1.00
N1561  N     0.75120   0.79386   0.70554   0.00000  Uiso   1.00
H1562  H     0.71620   0.80773   0.69547   0.00000  Uiso   1.00
C1563  C     0.74664   0.74876   0.70754   0.00000  Uiso   1.00
H1564  H     0.70772   0.73735   0.69037   0.00000  Uiso   1.00
H1565  H     0.74983   0.73897   0.74343   0.00000  Uiso   1.00
H1566  H     0.77742   0.73378   0.69120   0.00000  Uiso   1.00
loop_
_geom_bond_atom_site_label_1
_geom_bond_atom_site_label_2
_geom_bond_distance
_geom_bond_site_symmetry_2
_ccdc_geom_bond_type
C1     O21     1.294   .     A
C1     C12     1.444   .     S
C1     O19     1.300   .     A
C2     O22     1.302   .     A
C2     C11     1.447   .     S
C2     O20     1.293   .     A
C3     O23     1.275   .     A
C3     C5      1.402   .     S
C3     O25     1.292   .     A
C4     O26     1.297   .     A
C4     C6      1.411   .     S
C4     O24     1.276   .     A
C5     C122    1.337   1_455 S
C5     Br145   1.925   1_455 S
C6     C63     1.337   .     S
C6     Br88    1.937   .     S
C7     C12     1.407   .     A
C7     Br31    1.938   .     S
C7     C357    1.382   1_545 S
C8     C11     1.407   .     A
C8     Br32    1.929   .     S
C8     C184    1.377   .     S
C9     C11     1.415   .     A
C9     Br33    1.944   .     S
C9     C181    1.382   .     S
C10    Br34    1.935   .     S
C10    C12     1.400   .     A
C10    C356    1.377   1_545 S
C13    N18     1.373   .     A
C13    N35     1.425   .     S
C13    C1059   1.423   1_554 S
C14    N17     1.375   .     A
C14    N41     1.423   .     S
C14    C538    1.437   .     S
C15    N47     1.420   .     S
C15    N17     1.373   .     A
C15    C535    1.423   .     S
C16    N18     1.373   .     A
C16    N53     1.421   .     S
C16    C1058   1.437   1_554 S
N17    Zn27    2.026   .     S
N18    Zn28    2.026   .     S
O19    Zn27    1.994   .     S
O20    Zn28    1.994   .     S
O21    Zn28    1.996   .     S
O22    Zn27    1.996   .     S
O23    Zn27    1.981   .     S
O24    Zn28    1.981   .     S
O25    Zn28    1.977   .     S
O26    Zn27    1.977   .     S
Br29   C63     1.925   .     S
Br30   C122    1.937   1_455 S
N35    C37     1.448   .     S
N35    H36     1.021   .     S
C37    H38     1.101   .     S
C37    H40     1.111   .     S
C37    H39     1.107   .     S
N41    H42     1.031   .     S
N41    C43     1.447   .     S
C43    H44     1.109   .     S
C43    H45     1.110   .     S
C43    H46     1.105   .     S
N47    H48     1.032   .     S
N47    C49     1.436   .     S
C49    H52     1.111   .     S
C49    H50     1.110   .     S
C49    H51     1.104   .     S
N53    H54     1.031   .     S
N53    C55     1.448   .     S
C55    H56     1.111   .     S
C55    H57     1.109   .     S
C55    H58     1.108   .     S
C59    O79     1.294   .     A
C59    C70     1.444   .     S
C59    O77     1.300   .     A
C60    O80     1.302   .     A
C60    C69     1.447   .     S
C60    O78     1.293   .     A
C61    O81     1.275   .     A
C61    C63     1.402   .     S
C61    O83     1.292   .     A
C62    O84     1.297   .     A
C62    C64     1.411   .     S
C62    O82     1.276   .     A
C64    C121    1.337   .     S
C64    Br146   1.937   .     S
C65    C70     1.407   .     A
C65    Br89    1.938   .     S
C65    C415    1.382   1_545 S
C66    C69     1.407   .     A
C66    Br90    1.929   .     S
C66    C242    1.377   .     S
C67    C69     1.415   .     A
C67    Br91    1.944   .     S
C67    C239    1.382   .     S
C68    Br92    1.935   .     S
C68    C70     1.400   .     A
C68    C414    1.377   1_545 S
C71    N76     1.373   .     A
C71    N93     1.425   .     S
C71    C1117   1.423   1_554 S
C72    N75     1.375   .     A
C72    N99     1.423   .     S
C72    C596    1.437   .     S
C73    N105    1.420   .     S
C73    N75     1.373   .     A
C73    C593    1.423   .     S
C74    N76     1.373   .     A
C74    N111    1.421   .     S
C74    C1116   1.437   1_554 S
N75    Zn85    2.026   .     S
N76    Zn86    2.026   .     S
O77    Zn85    1.994   .     S
O78    Zn86    1.994   .     S
O79    Zn86    1.996   .     S
O80    Zn85    1.996   .     S
O81    Zn85    1.981   .     S
O82    Zn86    1.981   .     S
O83    Zn86    1.977   .     S
O84    Zn85    1.977   .     S
Br87   C121    1.925   .     S
N93    C95     1.448   .     S
N93    H94     1.021   .     S
C95    H96     1.101   .     S
C95    H98     1.111   .     S
C95    H97     1.107   .     S
N99    H100    1.031   .     S
N99    C101    1.447   .     S
C101   H102    1.109   .     S
C101   H103    1.110   .     S
C101   H104    1.105   .     S
N105   H106    1.032   .     S
N105   C107    1.436   .     S
C107   H110    1.111   .     S
C107   H108    1.110   .     S
C107   H109    1.104   .     S
N111   H112    1.031   .     S
N111   C113    1.448   .     S
C113   H114    1.111   .     S
C113   H115    1.109   .     S
C113   H116    1.108   .     S
C117   O137    1.294   .     A
C117   C128    1.444   .     S
C117   O135    1.300   .     A
C118   O138    1.302   .     A
C118   C127    1.447   .     S
C118   O136    1.293   .     A
C119   O139    1.275   .     A
C119   C121    1.402   .     S
C119   O141    1.292   .     A
C120   O142    1.297   .     A
C120   C122    1.411   .     S
C120   O140    1.276   .     A
C122   C5      1.337   1_655 S
C122   Br30    1.937   1_655 S
C123   C128    1.407   .     A
C123   Br147   1.938   .     S
C123   C473    1.382   1_545 S
C124   C127    1.407   .     A
C124   Br148   1.929   .     S
C124   C300    1.377   .     S
C125   C127    1.415   .     A
C125   Br149   1.944   .     S
C125   C297    1.382   .     S
C126   Br150   1.935   .     S
C126   C128    1.400   .     A
C126   C472    1.377   1_545 S
C129   N134    1.373   .     A
C129   N151    1.425   .     S
C129   C1175   1.423   1_554 S
C130   N133    1.375   .     A
C130   N157    1.423   .     S
C130   C654    1.437   .     S
C131   N163    1.420   .     S
C131   N133    1.373   .     A
C131   C651    1.423   .     S
C132   N134    1.373   .     A
C132   N169    1.421   .     S
C132   C1174   1.437   1_554 S
N133   Zn143   2.026   .     S
N134   Zn144   2.026   .     S
O135   Zn143   1.994   .     S
O136   Zn144   1.994   .     S
O137   Zn144   1.996   .     S
O138   Zn143   1.996   .     S
O139   Zn143   1.981   .     S
O140   Zn144   1.981   .     S
O141   Zn144   1.977   .     S
O142   Zn143   1.977   .     S
Br145  C5      1.925   1_655 S
N151   C153    1.448   .     S
N151   H152    1.021   .     S
C153   H154    1.101   .     S
C153   H156    1.111   .     S
C153   H155    1.107   .     S
N157   H158    1.031   .     S
N157   C159    1.447   .     S
C159   H160    1.109   .     S
C159   H161    1.110   .     S
C159   H162    1.105   .     S
N163   H164    1.032   .     S
N163   C165    1.436   .     S
C165   H168    1.111   .     S
C165   H166    1.110   .     S
C165   H167    1.104   .     S
N169   H170    1.031   .     S
N169   C171    1.448   .     S
C171   H172    1.111   .     S
C171   H173    1.109   .     S
C171   H174    1.108   .     S
C175   O195    1.294   .     A
C175   C186    1.444   .     S
C175   O193    1.300   .     A
C176   O196    1.302   .     A
C176   C185    1.447   .     S
C176   O194    1.293   .     A
C177   O197    1.275   .     A
C177   C179    1.402   .     S
C177   O199    1.292   .     A
C178   O200    1.297   .     A
C178   C180    1.411   .     S
C178   O198    1.276   .     A
C179   C296    1.337   1_455 S
C179   Br319   1.925   1_455 S
C180   C237    1.337   .     S
C180   Br262   1.937   .     S
C181   C186    1.407   .     A
C181   Br205   1.938   .     S
C182   C185    1.407   .     A
C182   Br206   1.929   .     S
C182   C358    1.377   .     S
C183   C185    1.415   .     A
C183   Br207   1.944   .     S
C183   C355    1.382   .     S
C184   Br208   1.935   .     S
C184   C186    1.400   .     A
C187   N192    1.373   .     A
C187   N209    1.425   .     S
C187   C1233   1.423   1_554 S
C188   N191    1.375   .     A
C188   N215    1.423   .     S
C188   C712    1.437   .     S
C189   N221    1.420   .     S
C189   N191    1.373   .     A
C189   C709    1.423   .     S
C190   N192    1.373   .     A
C190   N227    1.421   .     S
C190   C1232   1.437   1_554 S
N191   Zn201   2.026   .     S
N192   Zn202   2.026   .     S
O193   Zn201   1.994   .     S
O194   Zn202   1.994   .     S
O195   Zn202   1.996   .     S
O196   Zn201   1.996   .     S
O197   Zn201   1.981   .     S
O198   Zn202   1.981   .     S
O199   Zn202   1.977   .     S
O200   Zn201   1.977   .     S
Br203  C237    1.925   .     S
Br204  C296    1.937   1_455 S
N209   C211    1.448   .     S
N209   H210    1.021   .     S
C211   H212    1.101   .     S
C211   H214    1.111   .     S
C211   H213    1.107   .     S
N215   H216    1.031   .     S
N215   C217    1.447   .     S
C217   H218    1.109   .     S
C217   H219    1.110   .     S
C217   H220    1.105   .     S
N221   H222    1.032   .     S
N221   C223    1.436   .     S
C223   H226    1.111   .     S
C223   H224    1.110   .     S
C223   H225    1.104   .     S
N227   H228    1.031   .     S
N227   C229    1.448   .     S
C229   H230    1.111   .     S
C229   H231    1.109   .     S
C229   H232    1.108   .     S
C233   O253    1.294   .     A
C233   C244    1.444   .     S
C233   O251    1.300   .     A
C234   O254    1.302   .     A
C234   C243    1.447   .     S
C234   O252    1.293   .     A
C235   O255    1.275   .     A
C235   C237    1.402   .     S
C235   O257    1.292   .     A
C236   O258    1.297   .     A
C236   C238    1.411   .     S
C236   O256    1.276   .     A
C238   C295    1.337   .     S
C238   Br320   1.937   .     S
C239   C244    1.407   .     A
C239   Br263   1.938   .     S
C240   C243    1.407   .     A
C240   Br264   1.929   .     S
C240   C416    1.377   .     S
C241   C243    1.415   .     A
C241   Br265   1.944   .     S
C241   C413    1.382   .     S
C242   Br266   1.935   .     S
C242   C244    1.400   .     A
C245   N250    1.373   .     A
C245   N267    1.425   .     S
C245   C1291   1.423   1_554 S
C246   N249    1.375   .     A
C246   N273    1.423   .     S
C246   C770    1.437   .     S
C247   N279    1.420   .     S
C247   N249    1.373   .     A
C247   C767    1.423   .     S
C248   N250    1.373   .     A
C248   N285    1.421   .     S
C248   C1290   1.437   1_554 S
N249   Zn259   2.026   .     S
N250   Zn260   2.026   .     S
O251   Zn259   1.994   .     S
O252   Zn260   1.994   .     S
O253   Zn260   1.996   .     S
O254   Zn259   1.996   .     S
O255   Zn259   1.981   .     S
O256   Zn260   1.981   .     S
O257   Zn260   1.977   .     S
O258   Zn259   1.977   .     S
Br261  C295    1.925   .     S
N267   C269    1.448   .     S
N267   H268    1.021   .     S
C269   H270    1.101   .     S
C269   H272    1.111   .     S
C269   H271    1.107   .     S
N273   H274    1.031   .     S
N273   C275    1.447   .     S
C275   H276    1.109   .     S
C275   H277    1.110   .     S
C275   H278    1.105   .     S
N279   H280    1.032   .     S
N279   C281    1.436   .     S
C281   H284    1.111   .     S
C281   H282    1.110   .     S
C281   H283    1.104   .     S
N285   H286    1.031   .     S
N285   C287    1.448   .     S
C287   H288    1.111   .     S
C287   H289    1.109   .     S
C287   H290    1.108   .     S
C291   O311    1.294   .     A
C291   C302    1.444   .     S
C291   O309    1.300   .     A
C292   O312    1.302   .     A
C292   C301    1.447   .     S
C292   O310    1.293   .     A
C293   O313    1.275   .     A
C293   C295    1.402   .     S
C293   O315    1.292   .     A
C294   O316    1.297   .     A
C294   C296    1.411   .     S
C294   O314    1.276   .     A
C296   C179    1.337   1_655 S
C296   Br204   1.937   1_655 S
C297   C302    1.407   .     A
C297   Br321   1.938   .     S
C298   C301    1.407   .     A
C298   Br322   1.929   .     S
C298   C474    1.377   .     S
C299   C301    1.415   .     A
C299   Br323   1.944   .     S
C299   C471    1.382   .     S
C300   Br324   1.935   .     S
C300   C302    1.400   .     A
C303   N308    1.373   .     A
C303   N325    1.425   .     S
C303   C1349   1.423   1_554 S
C304   N307    1.375   .     A
C304   N331    1.423   .     S
C304   C828    1.437   .     S
C305   N337    1.420   .     S
C305   N307    1.373   .     A
C305   C825    1.423   .     S
C306   N308    1.373   .     A
C306   N343    1.421   .     S
C306   C1348   1.437   1_554 S
N307   Zn317   2.026   .     S
N308   Zn318   2.026   .     S
O309   Zn317   1.994   .     S
O310   Zn318   1.994   .     S
O311   Zn318   1.996   .     S
O312   Zn317   1.996   .     S
O313   Zn317   1.981   .     S
O314   Zn318   1.981   .     S
O315   Zn318   1.977   .     S
O316   Zn317   1.977   .     S
Br319  C179    1.925   1_655 S
N325   C327    1.448   .     S
N325   H326    1.021   .     S
C327   H328    1.101   .     S
C327   H330    1.111   .     S
C327   H329    1.107   .     S
N331   H332    1.031   .     S
N331   C333    1.447   .     S
C333   H334    1.109   .     S
C333   H335    1.110   .     S
C333   H336    1.105   .     S
N337   H338    1.032   .     S
N337   C339    1.436   .     S
C339   H342    1.111   .     S
C339   H340    1.110   .     S
C339   H341    1.104   .     S
N343   H344    1.031   .     S
N343   C345    1.448   .     S
C345   H346    1.111   .     S
C345   H347    1.109   .     S
C345   H348    1.108   .     S
C349   O369    1.294   .     A
C349   C360    1.444   .     S
C349   O367    1.300   .     A
C350   O370    1.302   .     A
C350   C359    1.447   .     S
C350   O368    1.293   .     A
C351   O371    1.275   .     A
C351   C353    1.402   .     S
C351   O373    1.292   .     A
C352   O374    1.297   .     A
C352   C354    1.411   .     S
C352   O372    1.276   .     A
C353   C470    1.337   1_455 S
C353   Br493   1.925   1_455 S
C354   C411    1.337   .     S
C354   Br436   1.937   .     S
C355   C360    1.407   .     A
C355   Br379   1.938   .     S
C356   C359    1.407   .     A
C356   Br380   1.929   .     S
C356   C10     1.377   1_565 S
C357   C359    1.415   .     A
C357   Br381   1.944   .     S
C357   C7      1.382   1_565 S
C358   Br382   1.935   .     S
C358   C360    1.400   .     A
C361   N366    1.373   .     A
C361   N383    1.425   .     S
C361   C1407   1.423   1_554 S
C362   N365    1.375   .     A
C362   N389    1.423   .     S
C362   C886    1.437   .     S
C363   N395    1.420   .     S
C363   N365    1.373   .     A
C363   C883    1.423   .     S
C364   N366    1.373   .     A
C364   N401    1.421   .     S
C364   C1406   1.437   1_554 S
N365   Zn375   2.026   .     S
N366   Zn376   2.026   .     S
O367   Zn375   1.994   .     S
O368   Zn376   1.994   .     S
O369   Zn376   1.996   .     S
O370   Zn375   1.996   .     S
O371   Zn375   1.981   .     S
O372   Zn376   1.981   .     S
O373   Zn376   1.977   .     S
O374   Zn375   1.977   .     S
Br377  C411    1.925   .     S
Br378  C470    1.937   1_455 S
N383   C385    1.448   .     S
N383   H384    1.021   .     S
C385   H386    1.101   .     S
C385   H388    1.111   .     S
C385   H387    1.107   .     S
N389   H390    1.031   .     S
N389   C391    1.447   .     S
C391   H392    1.109   .     S
C391   H393    1.110   .     S
C391   H394    1.105   .     S
N395   H396    1.032   .     S
N395   C397    1.436   .     S
C397   H400    1.111   .     S
C397   H398    1.110   .     S
C397   H399    1.104   .     S
N401   H402    1.031   .     S
N401   C403    1.448   .     S
C403   H404    1.111   .     S
C403   H405    1.109   .     S
C403   H406    1.108   .     S
C407   O427    1.294   .     A
C407   C418    1.444   .     S
C407   O425    1.300   .     A
C408   O428    1.302   .     A
C408   C417    1.447   .     S
C408   O426    1.293   .     A
C409   O429    1.275   .     A
C409   C411    1.402   .     S
C409   O431    1.292   .     A
C410   O432    1.297   .     A
C410   C412    1.411   .     S
C410   O430    1.276   .     A
C412   C469    1.337   .     S
C412   Br494   1.937   .     S
C413   C418    1.407   .     A
C413   Br437   1.938   .     S
C414   C417    1.407   .     A
C414   Br438   1.929   .     S
C414   C68     1.377   1_565 S
C415   C417    1.415   .     A
C415   Br439   1.944   .     S
C415   C65     1.382   1_565 S
C416   Br440   1.935   .     S
C416   C418    1.400   .     A
C419   N424    1.373   .     A
C419   N441    1.425   .     S
C419   C1465   1.423   1_554 S
C420   N423    1.375   .     A
C420   N447    1.423   .     S
C420   C944    1.437   .     S
C421   N453    1.420   .     S
C421   N423    1.373   .     A
C421   C941    1.423   .     S
C422   N424    1.373   .     A
C422   N459    1.421   .     S
C422   C1464   1.437   1_554 S
N423   Zn433   2.026   .     S
N424   Zn434   2.026   .     S
O425   Zn433   1.994   .     S
O426   Zn434   1.994   .     S
O427   Zn434   1.996   .     S
O428   Zn433   1.996   .     S
O429   Zn433   1.981   .     S
O430   Zn434   1.981   .     S
O431   Zn434   1.977   .     S
O432   Zn433   1.977   .     S
Br435  C469    1.925   .     S
N441   C443    1.448   .     S
N441   H442    1.021   .     S
C443   H444    1.101   .     S
C443   H446    1.111   .     S
C443   H445    1.107   .     S
N447   H448    1.031   .     S
N447   C449    1.447   .     S
C449   H450    1.109   .     S
C449   H451    1.110   .     S
C449   H452    1.105   .     S
N453   H454    1.032   .     S
N453   C455    1.436   .     S
C455   H458    1.111   .     S
C455   H456    1.110   .     S
C455   H457    1.104   .     S
N459   H460    1.031   .     S
N459   C461    1.448   .     S
C461   H462    1.111   .     S
C461   H463    1.109   .     S
C461   H464    1.108   .     S
C465   O485    1.294   .     A
C465   C476    1.444   .     S
C465   O483    1.300   .     A
C466   O486    1.302   .     A
C466   C475    1.447   .     S
C466   O484    1.293   .     A
C467   O487    1.275   .     A
C467   C469    1.402   .     S
C467   O489    1.292   .     A
C468   O490    1.297   .     A
C468   C470    1.411   .     S
C468   O488    1.276   .     A
C470   C353    1.337   1_655 S
C470   Br378   1.937   1_655 S
C471   C476    1.407   .     A
C471   Br495   1.938   .     S
C472   C475    1.407   .     A
C472   Br496   1.929   .     S
C472   C126    1.377   1_565 S
C473   C475    1.415   .     A
C473   Br497   1.944   .     S
C473   C123    1.382   1_565 S
C474   Br498   1.935   .     S
C474   C476    1.400   .     A
C477   N482    1.373   .     A
C477   N499    1.425   .     S
C477   C1523   1.423   1_554 S
C478   N481    1.375   .     A
C478   N505    1.423   .     S
C478   C1002   1.437   .     S
C479   N511    1.420   .     S
C479   N481    1.373   .     A
C479   C999    1.423   .     S
C480   N482    1.373   .     A
C480   N517    1.421   .     S
C480   C1522   1.437   1_554 S
N481   Zn491   2.026   .     S
N482   Zn492   2.026   .     S
O483   Zn491   1.994   .     S
O484   Zn492   1.994   .     S
O485   Zn492   1.996   .     S
O486   Zn491   1.996   .     S
O487   Zn491   1.981   .     S
O488   Zn492   1.981   .     S
O489   Zn492   1.977   .     S
O490   Zn491   1.977   .     S
Br493  C353    1.925   1_655 S
N499   C501    1.448   .     S
N499   H500    1.021   .     S
C501   H502    1.101   .     S
C501   H504    1.111   .     S
C501   H503    1.107   .     S
N505   H506    1.031   .     S
N505   C507    1.447   .     S
C507   H508    1.109   .     S
C507   H509    1.110   .     S
C507   H510    1.105   .     S
N511   H512    1.032   .     S
N511   C513    1.436   .     S
C513   H516    1.111   .     S
C513   H514    1.110   .     S
C513   H515    1.104   .     S
N517   H518    1.031   .     S
N517   C519    1.448   .     S
C519   H520    1.111   .     S
C519   H521    1.109   .     S
C519   H522    1.108   .     S
C523   O543    1.294   .     A
C523   C534    1.444   .     S
C523   O541    1.300   .     A
C524   O544    1.302   .     A
C524   C533    1.447   .     S
C524   O542    1.293   .     A
C525   O545    1.275   .     A
C525   C527    1.402   .     S
C525   O547    1.292   .     A
C526   O548    1.297   .     A
C526   C528    1.411   .     S
C526   O546    1.276   .     A
C527   C644    1.337   1_455 S
C527   Br667   1.925   1_455 S
C528   C585    1.337   .     S
C528   Br610   1.937   .     S
C529   C534    1.407   .     A
C529   Br553   1.938   .     S
C529   C879    1.382   1_545 S
C530   C533    1.407   .     A
C530   Br554   1.929   .     S
C530   C706    1.377   .     S
C531   C533    1.415   .     A
C531   Br555   1.944   .     S
C531   C703    1.382   .     S
C532   Br556   1.935   .     S
C532   C534    1.400   .     A
C532   C878    1.377   1_545 S
C535   N540    1.373   .     A
C535   N557    1.425   .     S
C536   N539    1.375   .     A
C536   N563    1.423   .     S
C536   C1060   1.437   .     S
C537   N569    1.420   .     S
C537   N539    1.373   .     A
C537   C1057   1.423   .     S
C538   N540    1.373   .     A
C538   N575    1.421   .     S
N539   Zn549   2.026   .     S
N540   Zn550   2.026   .     S
O541   Zn549   1.994   .     S
O542   Zn550   1.994   .     S
O543   Zn550   1.996   .     S
O544   Zn549   1.996   .     S
O545   Zn549   1.981   .     S
O546   Zn550   1.981   .     S
O547   Zn550   1.977   .     S
O548   Zn549   1.977   .     S
Br551  C585    1.925   .     S
Br552  C644    1.937   1_455 S
N557   C559    1.448   .     S
N557   H558    1.021   .     S
C559   H560    1.101   .     S
C559   H562    1.111   .     S
C559   H561    1.107   .     S
N563   H564    1.031   .     S
N563   C565    1.447   .     S
C565   H566    1.109   .     S
C565   H567    1.110   .     S
C565   H568    1.105   .     S
N569   H570    1.032   .     S
N569   C571    1.436   .     S
C571   H574    1.111   .     S
C571   H572    1.110   .     S
C571   H573    1.104   .     S
N575   H576    1.031   .     S
N575   C577    1.448   .     S
C577   H578    1.111   .     S
C577   H579    1.109   .     S
C577   H580    1.108   .     S
C581   O601    1.294   .     A
C581   C592    1.444   .     S
C581   O599    1.300   .     A
C582   O602    1.302   .     A
C582   C591    1.447   .     S
C582   O600    1.293   .     A
C583   O603    1.275   .     A
C583   C585    1.402   .     S
C583   O605    1.292   .     A
C584   O606    1.297   .     A
C584   C586    1.411   .     S
C584   O604    1.276   .     A
C586   C643    1.337   .     S
C586   Br668   1.937   .     S
C587   C592    1.407   .     A
C587   Br611   1.938   .     S
C587   C937    1.382   1_545 S
C588   C591    1.407   .     A
C588   Br612   1.929   .     S
C588   C764    1.377   .     S
C589   C591    1.415   .     A
C589   Br613   1.944   .     S
C589   C761    1.382   .     S
C590   Br614   1.935   .     S
C590   C592    1.400   .     A
C590   C936    1.377   1_545 S
C593   N598    1.373   .     A
C593   N615    1.425   .     S
C594   N597    1.375   .     A
C594   N621    1.423   .     S
C594   C1118   1.437   .     S
C595   N627    1.420   .     S
C595   N597    1.373   .     A
C595   C1115   1.423   .     S
C596   N598    1.373   .     A
C596   N633    1.421   .     S
N597   Zn607   2.026   .     S
N598   Zn608   2.026   .     S
O599   Zn607   1.994   .     S
O600   Zn608   1.994   .     S
O601   Zn608   1.996   .     S
O602   Zn607   1.996   .     S
O603   Zn607   1.981   .     S
O604   Zn608   1.981   .     S
O605   Zn608   1.977   .     S
O606   Zn607   1.977   .     S
Br609  C643    1.925   .     S
N615   C617    1.448   .     S
N615   H616    1.021   .     S
C617   H618    1.101   .     S
C617   H620    1.111   .     S
C617   H619    1.107   .     S
N621   H622    1.031   .     S
N621   C623    1.447   .     S
C623   H624    1.109   .     S
C623   H625    1.110   .     S
C623   H626    1.105   .     S
N627   H628    1.032   .     S
N627   C629    1.436   .     S
C629   H632    1.111   .     S
C629   H630    1.110   .     S
C629   H631    1.104   .     S
N633   H634    1.031   .     S
N633   C635    1.448   .     S
C635   H636    1.111   .     S
C635   H637    1.109   .     S
C635   H638    1.108   .     S
C639   O659    1.294   .     A
C639   C650    1.444   .     S
C639   O657    1.300   .     A
C640   O660    1.302   .     A
C640   C649    1.447   .     S
C640   O658    1.293   .     A
C641   O661    1.275   .     A
C641   C643    1.402   .     S
C641   O663    1.292   .     A
C642   O664    1.297   .     A
C642   C644    1.411   .     S
C642   O662    1.276   .     A
C644   C527    1.337   1_655 S
C644   Br552   1.937   1_655 S
C645   C650    1.407   .     A
C645   Br669   1.938   .     S
C645   C995    1.382   1_545 S
C646   C649    1.407   .     A
C646   Br670   1.929   .     S
C646   C822    1.377   .     S
C647   C649    1.415   .     A
C647   Br671   1.944   .     S
C647   C819    1.382   .     S
C648   Br672   1.935   .     S
C648   C650    1.400   .     A
C648   C994    1.377   1_545 S
C651   N656    1.373   .     A
C651   N673    1.425   .     S
C652   N655    1.375   .     A
C652   N679    1.423   .     S
C652   C1176   1.437   .     S
C653   N685    1.420   .     S
C653   N655    1.373   .     A
C653   C1173   1.423   .     S
C654   N656    1.373   .     A
C654   N691    1.421   .     S
N655   Zn665   2.026   .     S
N656   Zn666   2.026   .     S
O657   Zn665   1.994   .     S
O658   Zn666   1.994   .     S
O659   Zn666   1.996   .     S
O660   Zn665   1.996   .     S
O661   Zn665   1.981   .     S
O662   Zn666   1.981   .     S
O663   Zn666   1.977   .     S
O664   Zn665   1.977   .     S
Br667  C527    1.925   1_655 S
N673   C675    1.448   .     S
N673   H674    1.021   .     S
C675   H676    1.101   .     S
C675   H678    1.111   .     S
C675   H677    1.107   .     S
N679   H680    1.031   .     S
N679   C681    1.447   .     S
C681   H682    1.109   .     S
C681   H683    1.110   .     S
C681   H684    1.105   .     S
N685   H686    1.032   .     S
N685   C687    1.436   .     S
C687   H690    1.111   .     S
C687   H688    1.110   .     S
C687   H689    1.104   .     S
N691   H692    1.031   .     S
N691   C693    1.448   .     S
C693   H694    1.111   .     S
C693   H695    1.109   .     S
C693   H696    1.108   .     S
C697   O717    1.294   .     A
C697   C708    1.444   .     S
C697   O715    1.300   .     A
C698   O718    1.302   .     A
C698   C707    1.447   .     S
C698   O716    1.293   .     A
C699   O719    1.275   .     A
C699   C701    1.402   .     S
C699   O721    1.292   .     A
C700   O722    1.297   .     A
C700   C702    1.411   .     S
C700   O720    1.276   .     A
C701   C818    1.337   1_455 S
C701   Br841   1.925   1_455 S
C702   C759    1.337   .     S
C702   Br784   1.937   .     S
C703   C708    1.407   .     A
C703   Br727   1.938   .     S
C704   C707    1.407   .     A
C704   Br728   1.929   .     S
C704   C880    1.377   .     S
C705   C707    1.415   .     A
C705   Br729   1.944   .     S
C705   C877    1.382   .     S
C706   Br730   1.935   .     S
C706   C708    1.400   .     A
C709   N714    1.373   .     A
C709   N731    1.425   .     S
C710   N713    1.375   .     A
C710   N737    1.423   .     S
C710   C1234   1.437   .     S
C711   N743    1.420   .     S
C711   N713    1.373   .     A
C711   C1231   1.423   .     S
C712   N714    1.373   .     A
C712   N749    1.421   .     S
N713   Zn723   2.026   .     S
N714   Zn724   2.026   .     S
O715   Zn723   1.994   .     S
O716   Zn724   1.994   .     S
O717   Zn724   1.996   .     S
O718   Zn723   1.996   .     S
O719   Zn723   1.981   .     S
O720   Zn724   1.981   .     S
O721   Zn724   1.977   .     S
O722   Zn723   1.977   .     S
Br725  C759    1.925   .     S
Br726  C818    1.937   1_455 S
N731   C733    1.448   .     S
N731   H732    1.021   .     S
C733   H734    1.101   .     S
C733   H736    1.111   .     S
C733   H735    1.107   .     S
N737   H738    1.031   .     S
N737   C739    1.447   .     S
C739   H740    1.109   .     S
C739   H741    1.110   .     S
C739   H742    1.105   .     S
N743   H744    1.032   .     S
N743   C745    1.436   .     S
C745   H748    1.111   .     S
C745   H746    1.110   .     S
C745   H747    1.104   .     S
N749   H750    1.031   .     S
N749   C751    1.448   .     S
C751   H752    1.111   .     S
C751   H753    1.109   .     S
C751   H754    1.108   .     S
C755   O775    1.294   .     A
C755   C766    1.444   .     S
C755   O773    1.300   .     A
C756   O776    1.302   .     A
C756   C765    1.447   .     S
C756   O774    1.293   .     A
C757   O777    1.275   .     A
C757   C759    1.402   .     S
C757   O779    1.292   .     A
C758   O780    1.297   .     A
C758   C760    1.411   .     S
C758   O778    1.276   .     A
C760   C817    1.337   .     S
C760   Br842   1.937   .     S
C761   C766    1.407   .     A
C761   Br785   1.938   .     S
C762   C765    1.407   .     A
C762   Br786   1.929   .     S
C762   C938    1.377   .     S
C763   C765    1.415   .     A
C763   Br787   1.944   .     S
C763   C935    1.382   .     S
C764   Br788   1.935   .     S
C764   C766    1.400   .     A
C767   N772    1.373   .     A
C767   N789    1.425   .     S
C768   N771    1.375   .     A
C768   N795    1.423   .     S
C768   C1292   1.437   .     S
C769   N801    1.420   .     S
C769   N771    1.373   .     A
C769   C1289   1.423   .     S
C770   N772    1.373   .     A
C770   N807    1.421   .     S
N771   Zn781   2.026   .     S
N772   Zn782   2.026   .     S
O773   Zn781   1.994   .     S
O774   Zn782   1.994   .     S
O775   Zn782   1.996   .     S
O776   Zn781   1.996   .     S
O777   Zn781   1.981   .     S
O778   Zn782   1.981   .     S
O779   Zn782   1.977   .     S
O780   Zn781   1.977   .     S
Br783  C817    1.925   .     S
N789   C791    1.448   .     S
N789   H790    1.021   .     S
C791   H792    1.101   .     S
C791   H794    1.111   .     S
C791   H793    1.107   .     S
N795   H796    1.031   .     S
N795   C797    1.447   .     S
C797   H798    1.109   .     S
C797   H799    1.110   .     S
C797   H800    1.105   .     S
N801   H802    1.032   .     S
N801   C803    1.436   .     S
C803   H806    1.111   .     S
C803   H804    1.110   .     S
C803   H805    1.104   .     S
N807   H808    1.031   .     S
N807   C809    1.448   .     S
C809   H810    1.111   .     S
C809   H811    1.109   .     S
C809   H812    1.108   .     S
C813   O833    1.294   .     A
C813   C824    1.444   .     S
C813   O831    1.300   .     A
C814   O834    1.302   .     A
C814   C823    1.447   .     S
C814   O832    1.293   .     A
C815   O835    1.275   .     A
C815   C817    1.402   .     S
C815   O837    1.292   .     A
C816   O838    1.297   .     A
C816   C818    1.411   .     S
C816   O836    1.276   .     A
C818   C701    1.337   1_655 S
C818   Br726   1.937   1_655 S
C819   C824    1.407   .     A
C819   Br843   1.938   .     S
C820   C823    1.407   .     A
C820   Br844   1.929   .     S
C820   C996    1.377   .     S
C821   C823    1.415   .     A
C821   Br845   1.944   .     S
C821   C993    1.382   .     S
C822   Br846   1.935   .     S
C822   C824    1.400   .     A
C825   N830    1.373   .     A
C825   N847    1.425   .     S
C826   N829    1.375   .     A
C826   N853    1.423   .     S
C826   C1350   1.437   .     S
C827   N859    1.420   .     S
C827   N829    1.373   .     A
C827   C1347   1.423   .     S
C828   N830    1.373   .     A
C828   N865    1.421   .     S
N829   Zn839   2.026   .     S
N830   Zn840   2.026   .     S
O831   Zn839   1.994   .     S
O832   Zn840   1.994   .     S
O833   Zn840   1.996   .     S
O834   Zn839   1.996   .     S
O835   Zn839   1.981   .     S
O836   Zn840   1.981   .     S
O837   Zn840   1.977   .     S
O838   Zn839   1.977   .     S
Br841  C701    1.925   1_655 S
N847   C849    1.448   .     S
N847   H848    1.021   .     S
C849   H850    1.101   .     S
C849   H852    1.111   .     S
C849   H851    1.107   .     S
N853   H854    1.031   .     S
N853   C855    1.447   .     S
C855   H856    1.109   .     S
C855   H857    1.110   .     S
C855   H858    1.105   .     S
N859   H860    1.032   .     S
N859   C861    1.436   .     S
C861   H864    1.111   .     S
C861   H862    1.110   .     S
C861   H863    1.104   .     S
N865   H866    1.031   .     S
N865   C867    1.448   .     S
C867   H868    1.111   .     S
C867   H869    1.109   .     S
C867   H870    1.108   .     S
C871   O891    1.294   .     A
C871   C882    1.444   .     S
C871   O889    1.300   .     A
C872   O892    1.302   .     A
C872   C881    1.447   .     S
C872   O890    1.293   .     A
C873   O893    1.275   .     A
C873   C875    1.402   .     S
C873   O895    1.292   .     A
C874   O896    1.297   .     A
C874   C876    1.411   .     S
C874   O894    1.276   .     A
C875   C992    1.337   1_455 S
C875   Br1015  1.925   1_455 S
C876   C933    1.337   .     S
C876   Br958   1.937   .     S
C877   C882    1.407   .     A
C877   Br901   1.938   .     S
C878   C881    1.407   .     A
C878   Br902   1.929   .     S
C878   C532    1.377   1_565 S
C879   C881    1.415   .     A
C879   Br903   1.944   .     S
C879   C529    1.382   1_565 S
C880   Br904   1.935   .     S
C880   C882    1.400   .     A
C883   N888    1.373   .     A
C883   N905    1.425   .     S
C884   N887    1.375   .     A
C884   N911    1.423   .     S
C884   C1408   1.437   .     S
C885   N917    1.420   .     S
C885   N887    1.373   .     A
C885   C1405   1.423   .     S
C886   N888    1.373   .     A
C886   N923    1.421   .     S
N887   Zn897   2.026   .     S
N888   Zn898   2.026   .     S
O889   Zn897   1.994   .     S
O890   Zn898   1.994   .     S
O891   Zn898   1.996   .     S
O892   Zn897   1.996   .     S
O893   Zn897   1.981   .     S
O894   Zn898   1.981   .     S
O895   Zn898   1.977   .     S
O896   Zn897   1.977   .     S
Br899  C933    1.925   .     S
Br900  C992    1.937   1_455 S
N905   C907    1.448   .     S
N905   H906    1.021   .     S
C907   H908    1.101   .     S
C907   H910    1.111   .     S
C907   H909    1.107   .     S
N911   H912    1.031   .     S
N911   C913    1.447   .     S
C913   H914    1.109   .     S
C913   H915    1.110   .     S
C913   H916    1.105   .     S
N917   H918    1.032   .     S
N917   C919    1.436   .     S
C919   H922    1.111   .     S
C919   H920    1.110   .     S
C919   H921    1.104   .     S
N923   H924    1.031   .     S
N923   C925    1.448   .     S
C925   H926    1.111   .     S
C925   H927    1.109   .     S
C925   H928    1.108   .     S
C929   O949    1.294   .     A
C929   C940    1.444   .     S
C929   O947    1.300   .     A
C930   O950    1.302   .     A
C930   C939    1.447   .     S
C930   O948    1.293   .     A
C931   O951    1.275   .     A
C931   C933    1.402   .     S
C931   O953    1.292   .     A
C932   O954    1.297   .     A
C932   C934    1.411   .     S
C932   O952    1.276   .     A
C934   C991    1.337   .     S
C934   Br1016  1.937   .     S
C935   C940    1.407   .     A
C935   Br959   1.938   .     S
C936   C939    1.407   .     A
C936   Br960   1.929   .     S
C936   C590    1.377   1_565 S
C937   C939    1.415   .     A
C937   Br961   1.944   .     S
C937   C587    1.382   1_565 S
C938   Br962   1.935   .     S
C938   C940    1.400   .     A
C941   N946    1.373   .     A
C941   N963    1.425   .     S
C942   N945    1.375   .     A
C942   N969    1.423   .     S
C942   C1466   1.437   .     S
C943   N975    1.420   .     S
C943   N945    1.373   .     A
C943   C1463   1.423   .     S
C944   N946    1.373   .     A
C944   N981    1.421   .     S
N945   Zn955   2.026   .     S
N946   Zn956   2.026   .     S
O947   Zn955   1.994   .     S
O948   Zn956   1.994   .     S
O949   Zn956   1.996   .     S
O950   Zn955   1.996   .     S
O951   Zn955   1.981   .     S
O952   Zn956   1.981   .     S
O953   Zn956   1.977   .     S
O954   Zn955   1.977   .     S
Br957  C991    1.925   .     S
N963   C965    1.448   .     S
N963   H964    1.021   .     S
C965   H966    1.101   .     S
C965   H968    1.111   .     S
C965   H967    1.107   .     S
N969   H970    1.031   .     S
N969   C971    1.447   .     S
C971   H972    1.109   .     S
C971   H973    1.110   .     S
C971   H974    1.105   .     S
N975   H976    1.032   .     S
N975   C977    1.436   .     S
C977   H980    1.111   .     S
C977   H978    1.110   .     S
C977   H979    1.104   .     S
N981   H982    1.031   .     S
N981   C983    1.448   .     S
C983   H984    1.111   .     S
C983   H985    1.109   .     S
C983   H986    1.108   .     S
C987   O1007   1.294   .     A
C987   C998    1.444   .     S
C987   O1005   1.300   .     A
C988   O1008   1.302   .     A
C988   C997    1.447   .     S
C988   O1006   1.293   .     A
C989   O1009   1.275   .     A
C989   C991    1.402   .     S
C989   O1011   1.292   .     A
C990   O1012   1.297   .     A
C990   C992    1.411   .     S
C990   O1010   1.276   .     A
C992   C875    1.337   1_655 S
C992   Br900   1.937   1_655 S
C993   C998    1.407   .     A
C993   Br1017  1.938   .     S
C994   C997    1.407   .     A
C994   Br1018  1.929   .     S
C994   C648    1.377   1_565 S
C995   C997    1.415   .     A
C995   Br1019  1.944   .     S
C995   C645    1.382   1_565 S
C996   Br1020  1.935   .     S
C996   C998    1.400   .     A
C999   N1004   1.373   .     A
C999   N1021   1.425   .     S
C1000  N1003   1.375   .     A
C1000  N1027   1.423   .     S
C1000  C1524   1.437   .     S
C1001  N1033   1.420   .     S
C1001  N1003   1.373   .     A
C1001  C1521   1.423   .     S
C1002  N1004   1.373   .     A
C1002  N1039   1.421   .     S
N1003  Zn1013  2.026   .     S
N1004  Zn1014  2.026   .     S
O1005  Zn1013  1.994   .     S
O1006  Zn1014  1.994   .     S
O1007  Zn1014  1.996   .     S
O1008  Zn1013  1.996   .     S
O1009  Zn1013  1.981   .     S
O1010  Zn1014  1.981   .     S
O1011  Zn1014  1.977   .     S
O1012  Zn1013  1.977   .     S
Br1015 C875    1.925   1_655 S
N1021  C1023   1.448   .     S
N1021  H1022   1.021   .     S
C1023  H1024   1.101   .     S
C1023  H1026   1.111   .     S
C1023  H1025   1.107   .     S
N1027  H1028   1.031   .     S
N1027  C1029   1.447   .     S
C1029  H1030   1.109   .     S
C1029  H1031   1.110   .     S
C1029  H1032   1.105   .     S
N1033  H1034   1.032   .     S
N1033  C1035   1.436   .     S
C1035  H1038   1.111   .     S
C1035  H1036   1.110   .     S
C1035  H1037   1.104   .     S
N1039  H1040   1.031   .     S
N1039  C1041   1.448   .     S
C1041  H1042   1.111   .     S
C1041  H1043   1.109   .     S
C1041  H1044   1.108   .     S
C1045  O1065   1.294   .     A
C1045  C1056   1.444   .     S
C1045  O1063   1.300   .     A
C1046  O1066   1.302   .     A
C1046  C1055   1.447   .     S
C1046  O1064   1.293   .     A
C1047  O1067   1.275   .     A
C1047  C1049   1.402   .     S
C1047  O1069   1.292   .     A
C1048  O1070   1.297   .     A
C1048  C1050   1.411   .     S
C1048  O1068   1.276   .     A
C1049  C1166   1.337   1_455 S
C1049  Br1189  1.925   1_455 S
C1050  C1107   1.337   .     S
C1050  Br1132  1.937   .     S
C1051  C1056   1.407   .     A
C1051  Br1075  1.938   .     S
C1051  C1401   1.382   1_545 S
C1052  C1055   1.407   .     A
C1052  Br1076  1.929   .     S
C1052  C1228   1.377   .     S
C1053  C1055   1.415   .     A
C1053  Br1077  1.944   .     S
C1053  C1225   1.382   .     S
C1054  Br1078  1.935   .     S
C1054  C1056   1.400   .     A
C1054  C1400   1.377   1_545 S
C1057  N1062   1.373   .     A
C1057  N1079   1.425   .     S
C1058  N1061   1.375   .     A
C1058  N1085   1.423   .     S
C1058  C16     1.437   1_556 S
C1059  N1091   1.420   .     S
C1059  N1061   1.373   .     A
C1059  C13     1.423   1_556 S
C1060  N1062   1.373   .     A
C1060  N1097   1.421   .     S
N1061  Zn1071  2.026   .     S
N1062  Zn1072  2.026   .     S
O1063  Zn1071  1.994   .     S
O1064  Zn1072  1.994   .     S
O1065  Zn1072  1.996   .     S
O1066  Zn1071  1.996   .     S
O1067  Zn1071  1.981   .     S
O1068  Zn1072  1.981   .     S
O1069  Zn1072  1.977   .     S
O1070  Zn1071  1.977   .     S
Br1073 C1107   1.925   .     S
Br1074 C1166   1.937   1_455 S
N1079  C1081   1.448   .     S
N1079  H1080   1.021   .     S
C1081  H1082   1.101   .     S
C1081  H1084   1.111   .     S
C1081  H1083   1.107   .     S
N1085  H1086   1.031   .     S
N1085  C1087   1.447   .     S
C1087  H1088   1.109   .     S
C1087  H1089   1.110   .     S
C1087  H1090   1.105   .     S
N1091  H1092   1.032   .     S
N1091  C1093   1.436   .     S
C1093  H1096   1.111   .     S
C1093  H1094   1.110   .     S
C1093  H1095   1.104   .     S
N1097  H1098   1.031   .     S
N1097  C1099   1.448   .     S
C1099  H1100   1.111   .     S
C1099  H1101   1.109   .     S
C1099  H1102   1.108   .     S
C1103  O1123   1.294   .     A
C1103  C1114   1.444   .     S
C1103  O1121   1.300   .     A
C1104  O1124   1.302   .     A
C1104  C1113   1.447   .     S
C1104  O1122   1.293   .     A
C1105  O1125   1.275   .     A
C1105  C1107   1.402   .     S
C1105  O1127   1.292   .     A
C1106  O1128   1.297   .     A
C1106  C1108   1.411   .     S
C1106  O1126   1.276   .     A
C1108  C1165   1.337   .     S
C1108  Br1190  1.937   .     S
C1109  C1114   1.407   .     A
C1109  Br1133  1.938   .     S
C1109  C1459   1.382   1_545 S
C1110  C1113   1.407   .     A
C1110  Br1134  1.929   .     S
C1110  C1286   1.377   .     S
C1111  C1113   1.415   .     A
C1111  Br1135  1.944   .     S
C1111  C1283   1.382   .     S
C1112  Br1136  1.935   .     S
C1112  C1114   1.400   .     A
C1112  C1458   1.377   1_545 S
C1115  N1120   1.373   .     A
C1115  N1137   1.425   .     S
C1116  N1119   1.375   .     A
C1116  N1143   1.423   .     S
C1116  C74     1.437   1_556 S
C1117  N1149   1.420   .     S
C1117  N1119   1.373   .     A
C1117  C71     1.423   1_556 S
C1118  N1120   1.373   .     A
C1118  N1155   1.421   .     S
N1119  Zn1129  2.026   .     S
N1120  Zn1130  2.026   .     S
O1121  Zn1129  1.994   .     S
O1122  Zn1130  1.994   .     S
O1123  Zn1130  1.996   .     S
O1124  Zn1129  1.996   .     S
O1125  Zn1129  1.981   .     S
O1126  Zn1130  1.981   .     S
O1127  Zn1130  1.977   .     S
O1128  Zn1129  1.977   .     S
Br1131 C1165   1.925   .     S
N1137  C1139   1.448   .     S
N1137  H1138   1.021   .     S
C1139  H1140   1.101   .     S
C1139  H1142   1.111   .     S
C1139  H1141   1.107   .     S
N1143  H1144   1.031   .     S
N1143  C1145   1.447   .     S
C1145  H1146   1.109   .     S
C1145  H1147   1.110   .     S
C1145  H1148   1.105   .     S
N1149  H1150   1.032   .     S
N1149  C1151   1.436   .     S
C1151  H1154   1.111   .     S
C1151  H1152   1.110   .     S
C1151  H1153   1.104   .     S
N1155  H1156   1.031   .     S
N1155  C1157   1.448   .     S
C1157  H1158   1.111   .     S
C1157  H1159   1.109   .     S
C1157  H1160   1.108   .     S
C1161  O1181   1.294   .     A
C1161  C1172   1.444   .     S
C1161  O1179   1.300   .     A
C1162  O1182   1.302   .     A
C1162  C1171   1.447   .     S
C1162  O1180   1.293   .     A
C1163  O1183   1.275   .     A
C1163  C1165   1.402   .     S
C1163  O1185   1.292   .     A
C1164  O1186   1.297   .     A
C1164  C1166   1.411   .     S
C1164  O1184   1.276   .     A
C1166  C1049   1.337   1_655 S
C1166  Br1074  1.937   1_655 S
C1167  C1172   1.407   .     A
C1167  Br1191  1.938   .     S
C1167  C1517   1.382   1_545 S
C1168  C1171   1.407   .     A
C1168  Br1192  1.929   .     S
C1168  C1344   1.377   .     S
C1169  C1171   1.415   .     A
C1169  Br1193  1.944   .     S
C1169  C1341   1.382   .     S
C1170  Br1194  1.935   .     S
C1170  C1172   1.400   .     A
C1170  C1516   1.377   1_545 S
C1173  N1178   1.373   .     A
C1173  N1195   1.425   .     S
C1174  N1177   1.375   .     A
C1174  N1201   1.423   .     S
C1174  C132    1.437   1_556 S
C1175  N1207   1.420   .     S
C1175  N1177   1.373   .     A
C1175  C129    1.423   1_556 S
C1176  N1178   1.373   .     A
C1176  N1213   1.421   .     S
N1177  Zn1187  2.026   .     S
N1178  Zn1188  2.026   .     S
O1179  Zn1187  1.994   .     S
O1180  Zn1188  1.994   .     S
O1181  Zn1188  1.996   .     S
O1182  Zn1187  1.996   .     S
O1183  Zn1187  1.981   .     S
O1184  Zn1188  1.981   .     S
O1185  Zn1188  1.977   .     S
O1186  Zn1187  1.977   .     S
Br1189 C1049   1.925   1_655 S
N1195  C1197   1.448   .     S
N1195  H1196   1.021   .     S
C1197  H1198   1.101   .     S
C1197  H1200   1.111   .     S
C1197  H1199   1.107   .     S
N1201  H1202   1.031   .     S
N1201  C1203   1.447   .     S
C1203  H1204   1.109   .     S
C1203  H1205   1.110   .     S
C1203  H1206   1.105   .     S
N1207  H1208   1.032   .     S
N1207  C1209   1.436   .     S
C1209  H1212   1.111   .     S
C1209  H1210   1.110   .     S
C1209  H1211   1.104   .     S
N1213  H1214   1.031   .     S
N1213  C1215   1.448   .     S
C1215  H1216   1.111   .     S
C1215  H1217   1.109   .     S
C1215  H1218   1.108   .     S
C1219  O1239   1.294   .     A
C1219  C1230   1.444   .     S
C1219  O1237   1.300   .     A
C1220  O1240   1.302   .     A
C1220  C1229   1.447   .     S
C1220  O1238   1.293   .     A
C1221  O1241   1.275   .     A
C1221  C1223   1.402   .     S
C1221  O1243   1.292   .     A
C1222  O1244   1.297   .     A
C1222  C1224   1.411   .     S
C1222  O1242   1.276   .     A
C1223  C1340   1.337   1_455 S
C1223  Br1363  1.925   1_455 S
C1224  C1281   1.337   .     S
C1224  Br1306  1.937   .     S
C1225  C1230   1.407   .     A
C1225  Br1249  1.938   .     S
C1226  C1229   1.407   .     A
C1226  Br1250  1.929   .     S
C1226  C1402   1.377   .     S
C1227  C1229   1.415   .     A
C1227  Br1251  1.944   .     S
C1227  C1399   1.382   .     S
C1228  Br1252  1.935   .     S
C1228  C1230   1.400   .     A
C1231  N1236   1.373   .     A
C1231  N1253   1.425   .     S
C1232  N1235   1.375   .     A
C1232  N1259   1.423   .     S
C1232  C190    1.437   1_556 S
C1233  N1265   1.420   .     S
C1233  N1235   1.373   .     A
C1233  C187    1.423   1_556 S
C1234  N1236   1.373   .     A
C1234  N1271   1.421   .     S
N1235  Zn1245  2.026   .     S
N1236  Zn1246  2.026   .     S
O1237  Zn1245  1.994   .     S
O1238  Zn1246  1.994   .     S
O1239  Zn1246  1.996   .     S
O1240  Zn1245  1.996   .     S
O1241  Zn1245  1.981   .     S
O1242  Zn1246  1.981   .     S
O1243  Zn1246  1.977   .     S
O1244  Zn1245  1.977   .     S
Br1247 C1281   1.925   .     S
Br1248 C1340   1.937   1_455 S
N1253  C1255   1.448   .     S
N1253  H1254   1.021   .     S
C1255  H1256   1.101   .     S
C1255  H1258   1.111   .     S
C1255  H1257   1.107   .     S
N1259  H1260   1.031   .     S
N1259  C1261   1.447   .     S
C1261  H1262   1.109   .     S
C1261  H1263   1.110   .     S
C1261  H1264   1.105   .     S
N1265  H1266   1.032   .     S
N1265  C1267   1.436   .     S
C1267  H1270   1.111   .     S
C1267  H1268   1.110   .     S
C1267  H1269   1.104   .     S
N1271  H1272   1.031   .     S
N1271  C1273   1.448   .     S
C1273  H1274   1.111   .     S
C1273  H1275   1.109   .     S
C1273  H1276   1.108   .     S
C1277  O1297   1.294   .     A
C1277  C1288   1.444   .     S
C1277  O1295   1.300   .     A
C1278  O1298   1.302   .     A
C1278  C1287   1.447   .     S
C1278  O1296   1.293   .     A
C1279  O1299   1.275   .     A
C1279  C1281   1.402   .     S
C1279  O1301   1.292   .     A
C1280  O1302   1.297   .     A
C1280  C1282   1.411   .     S
C1280  O1300   1.276   .     A
C1282  C1339   1.337   .     S
C1282  Br1364  1.937   .     S
C1283  C1288   1.407   .     A
C1283  Br1307  1.938   .     S
C1284  C1287   1.407   .     A
C1284  Br1308  1.929   .     S
C1284  C1460   1.377   .     S
C1285  C1287   1.415   .     A
C1285  Br1309  1.944   .     S
C1285  C1457   1.382   .     S
C1286  Br1310  1.935   .     S
C1286  C1288   1.400   .     A
C1289  N1294   1.373   .     A
C1289  N1311   1.425   .     S
C1290  N1293   1.375   .     A
C1290  N1317   1.423   .     S
C1290  C248    1.437   1_556 S
C1291  N1323   1.420   .     S
C1291  N1293   1.373   .     A
C1291  C245    1.423   1_556 S
C1292  N1294   1.373   .     A
C1292  N1329   1.421   .     S
N1293  Zn1303  2.026   .     S
N1294  Zn1304  2.026   .     S
O1295  Zn1303  1.994   .     S
O1296  Zn1304  1.994   .     S
O1297  Zn1304  1.996   .     S
O1298  Zn1303  1.996   .     S
O1299  Zn1303  1.981   .     S
O1300  Zn1304  1.981   .     S
O1301  Zn1304  1.977   .     S
O1302  Zn1303  1.977   .     S
Br1305 C1339   1.925   .     S
N1311  C1313   1.448   .     S
N1311  H1312   1.021   .     S
C1313  H1314   1.101   .     S
C1313  H1316   1.111   .     S
C1313  H1315   1.107   .     S
N1317  H1318   1.031   .     S
N1317  C1319   1.447   .     S
C1319  H1320   1.109   .     S
C1319  H1321   1.110   .     S
C1319  H1322   1.105   .     S
N1323  H1324   1.032   .     S
N1323  C1325   1.436   .     S
C1325  H1328   1.111   .     S
C1325  H1326   1.110   .     S
C1325  H1327   1.104   .     S
N1329  H1330   1.031   .     S
N1329  C1331   1.448   .     S
C1331  H1332   1.111   .     S
C1331  H1333   1.109   .     S
C1331  H1334   1.108   .     S
C1335  O1355   1.294   .     A
C1335  C1346   1.444   .     S
C1335  O1353   1.300   .     A
C1336  O1356   1.302   .     A
C1336  C1345   1.447   .     S
C1336  O1354   1.293   .     A
C1337  O1357   1.275   .     A
C1337  C1339   1.402   .     S
C1337  O1359   1.292   .     A
C1338  O1360   1.297   .     A
C1338  C1340   1.411   .     S
C1338  O1358   1.276   .     A
C1340  C1223   1.337   1_655 S
C1340  Br1248  1.937   1_655 S
C1341  C1346   1.407   .     A
C1341  Br1365  1.938   .     S
C1342  C1345   1.407   .     A
C1342  Br1366  1.929   .     S
C1342  C1518   1.377   .     S
C1343  C1345   1.415   .     A
C1343  Br1367  1.944   .     S
C1343  C1515   1.382   .     S
C1344  Br1368  1.935   .     S
C1344  C1346   1.400   .     A
C1347  N1352   1.373   .     A
C1347  N1369   1.425   .     S
C1348  N1351   1.375   .     A
C1348  N1375   1.423   .     S
C1348  C306    1.437   1_556 S
C1349  N1381   1.420   .     S
C1349  N1351   1.373   .     A
C1349  C303    1.423   1_556 S
C1350  N1352   1.373   .     A
C1350  N1387   1.421   .     S
N1351  Zn1361  2.026   .     S
N1352  Zn1362  2.026   .     S
O1353  Zn1361  1.994   .     S
O1354  Zn1362  1.994   .     S
O1355  Zn1362  1.996   .     S
O1356  Zn1361  1.996   .     S
O1357  Zn1361  1.981   .     S
O1358  Zn1362  1.981   .     S
O1359  Zn1362  1.977   .     S
O1360  Zn1361  1.977   .     S
Br1363 C1223   1.925   1_655 S
N1369  C1371   1.448   .     S
N1369  H1370   1.021   .     S
C1371  H1372   1.101   .     S
C1371  H1374   1.111   .     S
C1371  H1373   1.107   .     S
N1375  H1376   1.031   .     S
N1375  C1377   1.447   .     S
C1377  H1378   1.109   .     S
C1377  H1379   1.110   .     S
C1377  H1380   1.105   .     S
N1381  H1382   1.032   .     S
N1381  C1383   1.436   .     S
C1383  H1386   1.111   .     S
C1383  H1384   1.110   .     S
C1383  H1385   1.104   .     S
N1387  H1388   1.031   .     S
N1387  C1389   1.448   .     S
C1389  H1390   1.111   .     S
C1389  H1391   1.109   .     S
C1389  H1392   1.108   .     S
C1393  O1413   1.294   .     A
C1393  C1404   1.444   .     S
C1393  O1411   1.300   .     A
C1394  O1414   1.302   .     A
C1394  C1403   1.447   .     S
C1394  O1412   1.293   .     A
C1395  O1415   1.275   .     A
C1395  C1397   1.402   .     S
C1395  O1417   1.292   .     A
C1396  O1418   1.297   .     A
C1396  C1398   1.411   .     S
C1396  O1416   1.276   .     A
C1397  C1514   1.337   1_455 S
C1397  Br1537  1.925   1_455 S
C1398  C1455   1.337   .     S
C1398  Br1480  1.937   .     S
C1399  C1404   1.407   .     A
C1399  Br1423  1.938   .     S
C1400  C1403   1.407   .     A
C1400  Br1424  1.929   .     S
C1400  C1054   1.377   1_565 S
C1401  C1403   1.415   .     A
C1401  Br1425  1.944   .     S
C1401  C1051   1.382   1_565 S
C1402  Br1426  1.935   .     S
C1402  C1404   1.400   .     A
C1405  N1410   1.373   .     A
C1405  N1427   1.425   .     S
C1406  N1409   1.375   .     A
C1406  N1433   1.423   .     S
C1406  C364    1.437   1_556 S
C1407  N1439   1.420   .     S
C1407  N1409   1.373   .     A
C1407  C361    1.423   1_556 S
C1408  N1410   1.373   .     A
C1408  N1445   1.421   .     S
N1409  Zn1419  2.026   .     S
N1410  Zn1420  2.026   .     S
O1411  Zn1419  1.994   .     S
O1412  Zn1420  1.994   .     S
O1413  Zn1420  1.996   .     S
O1414  Zn1419  1.996   .     S
O1415  Zn1419  1.981   .     S
O1416  Zn1420  1.981   .     S
O1417  Zn1420  1.977   .     S
O1418  Zn1419  1.977   .     S
Br1421 C1455   1.925   .     S
Br1422 C1514   1.937   1_455 S
N1427  C1429   1.448   .     S
N1427  H1428   1.021   .     S
C1429  H1430   1.101   .     S
C1429  H1432   1.111   .     S
C1429  H1431   1.107   .     S
N1433  H1434   1.031   .     S
N1433  C1435   1.447   .     S
C1435  H1436   1.109   .     S
C1435  H1437   1.110   .     S
C1435  H1438   1.105   .     S
N1439  H1440   1.032   .     S
N1439  C1441   1.436   .     S
C1441  H1444   1.111   .     S
C1441  H1442   1.110   .     S
C1441  H1443   1.104   .     S
N1445  H1446   1.031   .     S
N1445  C1447   1.448   .     S
C1447  H1448   1.111   .     S
C1447  H1449   1.109   .     S
C1447  H1450   1.108   .     S
C1451  O1471   1.294   .     A
C1451  C1462   1.444   .     S
C1451  O1469   1.300   .     A
C1452  O1472   1.302   .     A
C1452  C1461   1.447   .     S
C1452  O1470   1.293   .     A
C1453  O1473   1.275   .     A
C1453  C1455   1.402   .     S
C1453  O1475   1.292   .     A
C1454  O1476   1.297   .     A
C1454  C1456   1.411   .     S
C1454  O1474   1.276   .     A
C1456  C1513   1.337   .     S
C1456  Br1538  1.937   .     S
C1457  C1462   1.407   .     A
C1457  Br1481  1.938   .     S
C1458  C1461   1.407   .     A
C1458  Br1482  1.929   .     S
C1458  C1112   1.377   1_565 S
C1459  C1461   1.415   .     A
C1459  Br1483  1.944   .     S
C1459  C1109   1.382   1_565 S
C1460  Br1484  1.935   .     S
C1460  C1462   1.400   .     A
C1463  N1468   1.373   .     A
C1463  N1485   1.425   .     S
C1464  N1467   1.375   .     A
C1464  N1491   1.423   .     S
C1464  C422    1.437   1_556 S
C1465  N1497   1.420   .     S
C1465  N1467   1.373   .     A
C1465  C419    1.423   1_556 S
C1466  N1468   1.373   .     A
C1466  N1503   1.421   .     S
N1467  Zn1477  2.026   .     S
N1468  Zn1478  2.026   .     S
O1469  Zn1477  1.994   .     S
O1470  Zn1478  1.994   .     S
O1471  Zn1478  1.996   .     S
O1472  Zn1477  1.996   .     S
O1473  Zn1477  1.981   .     S
O1474  Zn1478  1.981   .     S
O1475  Zn1478  1.977   .     S
O1476  Zn1477  1.977   .     S
Br1479 C1513   1.925   .     S
N1485  C1487   1.448   .     S
N1485  H1486   1.021   .     S
C1487  H1488   1.101   .     S
C1487  H1490   1.111   .     S
C1487  H1489   1.107   .     S
N1491  H1492   1.031   .     S
N1491  C1493   1.447   .     S
C1493  H1494   1.109   .     S
C1493  H1495   1.110   .     S
C1493  H1496   1.105   .     S
N1497  H1498   1.032   .     S
N1497  C1499   1.436   .     S
C1499  H1502   1.111   .     S
C1499  H1500   1.110   .     S
C1499  H1501   1.104   .     S
N1503  H1504   1.031   .     S
N1503  C1505   1.448   .     S
C1505  H1506   1.111   .     S
C1505  H1507   1.109   .     S
C1505  H1508   1.108   .     S
C1509  O1529   1.294   .     A
C1509  C1520   1.444   .     S
C1509  O1527   1.300   .     A
C1510  O1530   1.302   .     A
C1510  C1519   1.447   .     S
C1510  O1528   1.293   .     A
C1511  O1531   1.275   .     A
C1511  C1513   1.402   .     S
C1511  O1533   1.292   .     A
C1512  O1534   1.297   .     A
C1512  C1514   1.411   .     S
C1512  O1532   1.276   .     A
C1514  C1397   1.337   1_655 S
C1514  Br1422  1.937   1_655 S
C1515  C1520   1.407   .     A
C1515  Br1539  1.938   .     S
C1516  C1519   1.407   .     A
C1516  Br1540  1.929   .     S
C1516  C1170   1.377   1_565 S
C1517  C1519   1.415   .     A
C1517  Br1541  1.944   .     S
C1517  C1167   1.382   1_565 S
C1518  Br1542  1.935   .     S
C1518  C1520   1.400   .     A
C1521  N1526   1.373   .     A
C1521  N1543   1.425   .     S
C1522  N1525   1.375   .     A
C1522  N1549   1.423   .     S
C1522  C480    1.437   1_556 S
C1523  N1555   1.420   .     S
C1523  N1525   1.373   .     A
C1523  C477    1.423   1_556 S
C1524  N1526   1.373   .     A
C1524  N1561   1.421   .     S
N1525  Zn1535  2.026   .     S
N1526  Zn1536  2.026   .     S
O1527  Zn1535  1.994   .     S
O1528  Zn1536  1.994   .     S
O1529  Zn1536  1.996   .     S
O1530  Zn1535  1.996   .     S
O1531  Zn1535  1.981   .     S
O1532  Zn1536  1.981   .     S
O1533  Zn1536  1.977   .     S
O1534  Zn1535  1.977   .     S
Br1537 C1397   1.925   1_655 S
N1543  C1545   1.448   .     S
N1543  H1544   1.021   .     S
C1545  H1546   1.101   .     S
C1545  H1548   1.111   .     S
C1545  H1547   1.107   .     S
N1549  H1550   1.031   .     S
N1549  C1551   1.447   .     S
C1551  H1552   1.109   .     S
C1551  H1553   1.110   .     S
C1551  H1554   1.105   .     S
N1555  H1556   1.032   .     S
N1555  C1557   1.436   .     S
C1557  H1560   1.111   .     S
C1557  H1558   1.110   .     S
C1557  H1559   1.104   .     S
N1561  H1562   1.031   .     S
N1561  C1563   1.448   .     S
C1563  H1564   1.111   .     S
C1563  H1565   1.109   .     S
C1563  H1566   1.108   .     S
