data_str_m3_o1_o1_pcu_sym.82
_audit_creation_date              2020-01-03
_audit_creation_method            'Materials Studio'
_symmetry_space_group_name_H-M    'P1'
_symmetry_Int_Tables_number       1
_symmetry_cell_setting            triclinic
loop_
_symmetry_equiv_pos_as_xyz
  x,y,z
_cell_length_a                    30.8806
_cell_length_b                    31.0347
_cell_length_c                    29.9711
_cell_angle_alpha                 89.8034
_cell_angle_beta                  90.5733
_cell_angle_gamma                 89.8589
loop_
_atom_site_label
_atom_site_type_symbol
_atom_site_fract_x
_atom_site_fract_y
_atom_site_fract_z
_atom_site_U_iso_or_equiv
_atom_site_adp_type
_atom_site_occupancy
C1     C     0.06031   0.19019   0.16676   0.00000  Uiso   1.00
C2     C     0.48008   0.21811   0.30950   0.00000  Uiso   1.00
C3     C     0.48127   0.21733   0.02371   0.00000  Uiso   1.00
C4     C     0.01901   0.28246   0.30964   0.00000  Uiso   1.00
C5     C     0.21279   0.00698   0.02343   0.00000  Uiso   1.00
C6     C     0.28720   0.49388   0.31003   0.00000  Uiso   1.00
C7     C     0.28719   0.49321   0.02422   0.00000  Uiso   1.00
C8     C     0.21275   0.00681   0.30916   0.00000  Uiso   1.00
C9     C     0.37965   0.15169   0.13048   0.00000  Uiso   1.00
C10    C     0.09649   0.37110   0.20490   0.00000  Uiso   1.00
C11    C     0.11565   0.35280   0.12877   0.00000  Uiso   1.00
C12    C     0.44107   0.31088   0.16666   0.00000  Uiso   1.00
C13    C     0.40217   0.12971   0.20490   0.00000  Uiso   1.00
C14    C     0.10781   0.13704   0.20668   0.00000  Uiso   1.00
C15    C     0.39786   0.36646   0.12692   0.00000  Uiso   1.00
C16    C     0.39316   0.36130   0.20759   0.00000  Uiso   1.00
C17    C     0.11427   0.14512   0.12643   0.00000  Uiso   1.00
C18    C     0.14096   0.38940   0.12687   0.00000  Uiso   1.00
C19    C     0.36593   0.10319   0.20678   0.00000  Uiso   1.00
C20    C     0.35401   0.11531   0.12742   0.00000  Uiso   1.00
C21    C     0.13258   0.39768   0.20705   0.00000  Uiso   1.00
C22    C     0.36466   0.39575   0.20719   0.00000  Uiso   1.00
C23    C     0.44045   0.18970   0.16680   0.00000  Uiso   1.00
C24    C     0.15124   0.11998   0.12878   0.00000  Uiso   1.00
C25    C     0.13182   0.09950   0.20399   0.00000  Uiso   1.00
C26    C     0.36125   0.39272   0.12626   0.00000  Uiso   1.00
C27    C     0.09069   0.34511   0.16686   0.00000  Uiso   1.00
C28    C     0.40725   0.15660   0.16745   0.00000  Uiso   1.00
C29    C     0.41030   0.34638   0.16706   0.00000  Uiso   1.00
C30    C     0.09423   0.15729   0.16663   0.00000  Uiso   1.00
C31    C     0.34393   0.09266   0.16679   0.00000  Uiso   1.00
C32    C     0.15362   0.40950   0.16687   0.00000  Uiso   1.00
C33    C     0.15803   0.09387   0.16643   0.00000  Uiso   1.00
C34    C     0.05939   0.31035   0.16676   0.00000  Uiso   1.00
C35    C     0.34552   0.40909   0.16676   0.00000  Uiso   1.00
C36    C     0.35243   0.21672   0.11086   0.00000  Uiso   1.00
C37    C     0.34337   0.24693   0.07178   0.00000  Uiso   1.00
C38    C     0.38437   0.25648   0.04561   0.00000  Uiso   1.00
C39    C     0.02761   0.38373   0.23058   0.00000  Uiso   1.00
C40    C     0.01240   0.41580   0.26528   0.00000  Uiso   1.00
C41    C     0.00650   0.39510   0.31079   0.00000  Uiso   1.00
C42    C     0.14691   0.29128   0.10531   0.00000  Uiso   1.00
C43    C     0.15676   0.26343   0.06489   0.00000  Uiso   1.00
C44    C     0.11560   0.24845   0.04133   0.00000  Uiso   1.00
C45    C     0.31048   0.44051   0.16676   0.00000  Uiso   1.00
C46    C     0.45058   0.09387   0.24970   0.00000  Uiso   1.00
C47    C     0.47870   0.09854   0.29142   0.00000  Uiso   1.00
C48    C     0.02034   0.12199   0.28123   0.00000  Uiso   1.00
C49    C     0.12027   0.18981   0.25787   0.00000  Uiso   1.00
C50    C     0.16229   0.17911   0.28270   0.00000  Uiso   1.00
C51    C     0.18825   0.22025   0.28883   0.00000  Uiso   1.00
C52    C     0.46119   0.38572   0.09334   0.00000  Uiso   1.00
C53    C     0.45391   0.43436   0.09964   0.00000  Uiso   1.00
C54    C     0.49612   0.45922   0.09651   0.00000  Uiso   1.00
C55    C     0.38244   0.30668   0.25683   0.00000  Uiso   1.00
C56    C     0.19095   0.06062   0.16650   0.00000  Uiso   1.00
C57    C     0.34002   0.31698   0.27973   0.00000  Uiso   1.00
C58    C     0.31520   0.27567   0.28841   0.00000  Uiso   1.00
C59    C     0.06461   0.13481   0.07063   0.00000  Uiso   1.00
C60    C     0.07755   0.09020   0.05261   0.00000  Uiso   1.00
C61    C     0.06917   0.05468   0.08676   0.00000  Uiso   1.00
C62    C     0.12389   0.43399   0.06955   0.00000  Uiso   1.00
C63    C     0.12458   0.43390   0.01886   0.00000  Uiso   1.00
C64    C     0.09792   0.47064   0.33250   0.00000  Uiso   1.00
C65    C     0.31574   0.11007   0.26155   0.00000  Uiso   1.00
C66    C     0.32671   0.15001   0.28870   0.00000  Uiso   1.00
C67    C     0.18885   0.44106   0.16666   0.00000  Uiso   1.00
C68    C     0.28569   0.17668   0.29388   0.00000  Uiso   1.00
C69    C     0.36133   0.07384   0.06531   0.00000  Uiso   1.00
C70    C     0.40286   0.09255   0.04525   0.00000  Uiso   1.00
C71    C     0.44327   0.08053   0.07246   0.00000  Uiso   1.00
C72    C     0.18485   0.38931   0.26061   0.00000  Uiso   1.00
C73    C     0.17622   0.34796   0.28665   0.00000  Uiso   1.00
C74    C     0.21695   0.32025   0.28586   0.00000  Uiso   1.00
C75    C     0.38563   0.44939   0.25376   0.00000  Uiso   1.00
C76    C     0.40007   0.44951   0.30264   0.00000  Uiso   1.00
C77    C     0.42597   0.48994   0.31291   0.00000  Uiso   1.00
C78    C     0.31026   0.05974   0.16669   0.00000  Uiso   1.00
C79    C     0.21529   0.14426   0.10386   0.00000  Uiso   1.00
C80    C     0.24305   0.14921   0.06268   0.00000  Uiso   1.00
C81    C     0.24984   0.10584   0.04006   0.00000  Uiso   1.00
C82    C     0.11135   0.03067   0.22141   0.00000  Uiso   1.00
C83    C     0.06191   0.03115   0.22400   0.00000  Uiso   1.00
C84    C     0.04259   0.49641   0.19433   0.00000  Uiso   1.00
C85    C     0.32187   0.36541   0.06928   0.00000  Uiso   1.00
C86    C     0.28910   0.37619   0.03272   0.00000  Uiso   1.00
C87    C     0.24595   0.39063   0.05137   0.00000  Uiso   1.00
C88    C     0.01789   0.28313   0.02384   0.00000  Uiso   1.00
H89    H     0.03254   0.30981   0.04146   0.00000  Uiso   1.00
H90    H     0.32066   0.20594   0.12432   0.00000  Uiso   1.00
H91    H     0.23517   0.12823   0.13034   0.00000  Uiso   1.00
H92    H     0.20622   0.17703   0.11573   0.00000  Uiso   1.00
H93    H     0.22664   0.17156   0.03918   0.00000  Uiso   1.00
H94    H     0.27473   0.16338   0.07231   0.00000  Uiso   1.00
H95    H     0.25462   0.08029   0.06532   0.00000  Uiso   1.00
H96    H     0.27912   0.10655   0.01954   0.00000  Uiso   1.00
H97    H     0.22145   0.09790   0.01861   0.00000  Uiso   1.00
H98    H     0.12435   0.00353   0.24132   0.00000  Uiso   1.00
H99    H     0.12093   0.02285   0.18667   0.00000  Uiso   1.00
H100   H     0.05177   0.02575   0.25902   0.00000  Uiso   1.00
H101   H     0.31884   0.23237   0.04932   0.00000  Uiso   1.00
H102   H     0.04916   0.06264   0.21203   0.00000  Uiso   1.00
H103   H     0.04691   0.00562   0.15907   0.00000  Uiso   1.00
H104   H     0.00748   0.49276   0.20102   0.00000  Uiso   1.00
H105   H     0.05966   0.46540   0.19978   0.00000  Uiso   1.00
H106   H     0.30496   0.34671   0.09586   0.00000  Uiso   1.00
H107   H     0.34712   0.34475   0.05443   0.00000  Uiso   1.00
H108   H     0.30223   0.40080   0.00955   0.00000  Uiso   1.00
H109   H     0.28300   0.34631   0.01415   0.00000  Uiso   1.00
H110   H     0.23101   0.36424   0.07101   0.00000  Uiso   1.00
H111   H     0.22389   0.39962   0.02361   0.00000  Uiso   1.00
H112   H     0.32966   0.27713   0.08505   0.00000  Uiso   1.00
H113   H     0.25051   0.41897   0.07273   0.00000  Uiso   1.00
H114   H     0.41190   0.26279   0.06841   0.00000  Uiso   1.00
H115   H     0.37987   0.28523   0.02446   0.00000  Uiso   1.00
H116   H     0.39220   0.22870   0.02389   0.00000  Uiso   1.00
H117   H     0.00449   0.35657   0.23052   0.00000  Uiso   1.00
H118   H     0.02481   0.39938   0.19705   0.00000  Uiso   1.00
H119   H     0.03559   0.44256   0.26825   0.00000  Uiso   1.00
H120   H     0.48120   0.42947   0.25389   0.00000  Uiso   1.00
H121   H     0.46326   0.19291   0.29191   0.00000  Uiso   1.00
H122   H     0.48202   0.36900   0.30897   0.00000  Uiso   1.00
H123   H     0.49482   0.42011   0.00056   0.00000  Uiso   1.00
H124   H     0.03763   0.38206   0.32383   0.00000  Uiso   1.00
H125   H     0.13327   0.27022   0.13184   0.00000  Uiso   1.00
H126   H     0.17835   0.30468   0.11760   0.00000  Uiso   1.00
H127   H     0.17675   0.28209   0.04126   0.00000  Uiso   1.00
H128   H     0.17584   0.23496   0.07595   0.00000  Uiso   1.00
H129   H     0.08954   0.24213   0.06560   0.00000  Uiso   1.00
H130   H     0.12181   0.21820   0.02323   0.00000  Uiso   1.00
H131   H     0.10487   0.27342   0.01705   0.00000  Uiso   1.00
H132   H     0.46622   0.19085   0.04119   0.00000  Uiso   1.00
H133   H     0.47083   0.08460   0.22065   0.00000  Uiso   1.00
H134   H     0.42762   0.06726   0.25593   0.00000  Uiso   1.00
H135   H     0.46088   0.11772   0.31632   0.00000  Uiso   1.00
H136   H     0.48621   0.06639   0.30606   0.00000  Uiso   1.00
H137   H     0.01739   0.14069   0.24976   0.00000  Uiso   1.00
H138   H     0.04720   0.09858   0.27906   0.00000  Uiso   1.00
H139   H     0.02855   0.14480   0.30806   0.00000  Uiso   1.00
H140   H     0.09971   0.21012   0.27962   0.00000  Uiso   1.00
H141   H     0.12743   0.20992   0.22784   0.00000  Uiso   1.00
H142   H     0.15491   0.16441   0.31560   0.00000  Uiso   1.00
H143   H     0.03515   0.30810   0.29217   0.00000  Uiso   1.00
H144   H     0.18172   0.15561   0.26339   0.00000  Uiso   1.00
H145   H     0.20609   0.22736   0.25772   0.00000  Uiso   1.00
H146   H     0.21139   0.21724   0.31694   0.00000  Uiso   1.00
H147   H     0.16645   0.24769   0.29621   0.00000  Uiso   1.00
H148   H     0.48040   0.38017   0.06300   0.00000  Uiso   1.00
H149   H     0.48137   0.37308   0.12142   0.00000  Uiso   1.00
H150   H     0.43037   0.44638   0.07435   0.00000  Uiso   1.00
H151   H     0.44025   0.44039   0.13323   0.00000  Uiso   1.00
H152   H     0.02130   0.44410   0.11816   0.00000  Uiso   1.00
H153   H     0.49053   0.49272   0.10764   0.00000  Uiso   1.00
H154   H     0.18301   0.01324   0.04088   0.00000  Uiso   1.00
H155   H     0.00767   0.46015   0.06176   0.00000  Uiso   1.00
H156   H     0.40260   0.28613   0.27930   0.00000  Uiso   1.00
H157   H     0.37578   0.28705   0.22632   0.00000  Uiso   1.00
H158   H     0.34753   0.33388   0.31123   0.00000  Uiso   1.00
H159   H     0.31967   0.33852   0.25859   0.00000  Uiso   1.00
H160   H     0.29667   0.26686   0.25789   0.00000  Uiso   1.00
H161   H     0.29266   0.27976   0.31651   0.00000  Uiso   1.00
H162   H     0.33774   0.24904   0.29714   0.00000  Uiso   1.00
H163   H     0.04890   0.15339   0.04351   0.00000  Uiso   1.00
H164   H     0.03921   0.13174   0.09660   0.00000  Uiso   1.00
H165   H     0.31709   0.48996   0.29277   0.00000  Uiso   1.00
H166   H     0.05759   0.08278   0.02271   0.00000  Uiso   1.00
H167   H     0.11202   0.08978   0.04236   0.00000  Uiso   1.00
H168   H     0.08972   0.05874   0.11684   0.00000  Uiso   1.00
H169   H     0.07626   0.02275   0.07230   0.00000  Uiso   1.00
H170   H     0.03468   0.05518   0.09672   0.00000  Uiso   1.00
H171   H     0.13272   0.46648   0.08216   0.00000  Uiso   1.00
H172   H     0.08992   0.42682   0.07973   0.00000  Uiso   1.00
H173   H     0.15834   0.43695   0.00728   0.00000  Uiso   1.00
H174   H     0.11130   0.40284   0.00666   0.00000  Uiso   1.00
H175   H     0.06419   0.46969   0.01136   0.00000  Uiso   1.00
H176   H     0.31718   0.48742   0.04221   0.00000  Uiso   1.00
H177   H     0.09724   0.46691   0.29602   0.00000  Uiso   1.00
H178   H     0.11272   0.00224   0.00714   0.00000  Uiso   1.00
H179   H     0.29657   0.08772   0.28243   0.00000  Uiso   1.00
H180   H     0.29390   0.11961   0.23319   0.00000  Uiso   1.00
H181   H     0.33974   0.14042   0.32190   0.00000  Uiso   1.00
H182   H     0.35148   0.16981   0.27162   0.00000  Uiso   1.00
H183   H     0.27951   0.19529   0.26284   0.00000  Uiso   1.00
H184   H     0.28880   0.19841   0.32281   0.00000  Uiso   1.00
H185   H     0.25707   0.15591   0.29910   0.00000  Uiso   1.00
H186   H     0.34165   0.06112   0.03723   0.00000  Uiso   1.00
H187   H     0.18279   0.01243   0.29126   0.00000  Uiso   1.00
H188   H     0.36837   0.04558   0.08734   0.00000  Uiso   1.00
H189   H     0.40635   0.07958   0.01123   0.00000  Uiso   1.00
H190   H     0.40063   0.12798   0.04137   0.00000  Uiso   1.00
H191   H     0.44004   0.08995   0.10789   0.00000  Uiso   1.00
H192   H     0.47196   0.09710   0.05866   0.00000  Uiso   1.00
H193   H     0.44871   0.04529   0.07078   0.00000  Uiso   1.00
H194   H     0.20483   0.41102   0.28170   0.00000  Uiso   1.00
H195   H     0.20553   0.38121   0.23140   0.00000  Uiso   1.00
H196   H     0.16797   0.35564   0.32167   0.00000  Uiso   1.00
H197   H     0.14891   0.32969   0.27157   0.00000  Uiso   1.00
H198   H     0.36978   0.23524   0.13726   0.00000  Uiso   1.00
H199   H     0.21754   0.30107   0.25472   0.00000  Uiso   1.00
H200   H     0.21856   0.29899   0.31546   0.00000  Uiso   1.00
H201   H     0.24626   0.34065   0.28585   0.00000  Uiso   1.00
H202   H     0.36986   0.48046   0.24477   0.00000  Uiso   1.00
H203   H     0.41505   0.44742   0.23253   0.00000  Uiso   1.00
H204   H     0.37159   0.44816   0.32488   0.00000  Uiso   1.00
H205   H     0.41986   0.42041   0.30967   0.00000  Uiso   1.00
H206   H     0.45411   0.49287   0.29035   0.00000  Uiso   1.00
H207   H     0.43804   0.48937   0.01440   0.00000  Uiso   1.00
H208   H     0.40445   0.01816   0.30839   0.00000  Uiso   1.00
N209   N     0.00000   0.25000   0.28573   0.00000  Uiso   1.00
N210   N    -0.00000   0.25000   0.04760   0.00000  Uiso   1.00
N211   N     0.25000   0.00000   0.28573   0.00000  Uiso   1.00
N212   N     0.25000   0.00000   0.04760   0.00000  Uiso   1.00
O213   O     0.04580   0.20419   0.20487   0.00000  Uiso   1.00
O214   O     0.20419   0.04581   0.12846   0.00000  Uiso   1.00
O215   O     0.20419   0.04581   0.20487   0.00000  Uiso   1.00
O216   O     0.29580   0.45419   0.12846   0.00000  Uiso   1.00
O217   O     0.20419   0.45419   0.12846   0.00000  Uiso   1.00
O218   O     0.29580   0.04581   0.20487   0.00000  Uiso   1.00
O219   O     0.29580   0.04581   0.12846   0.00000  Uiso   1.00
O220   O     0.20419   0.45419   0.20487   0.00000  Uiso   1.00
O221   O     0.37782   0.18158   0.09643   0.00000  Uiso   1.00
O222   O     0.06983   0.36854   0.24176   0.00000  Uiso   1.00
O223   O     0.11710   0.32432   0.09355   0.00000  Uiso   1.00
O224   O     0.45419   0.29581   0.12846   0.00000  Uiso   1.00
O225   O     0.42911   0.13353   0.24171   0.00000  Uiso   1.00
O226   O     0.09684   0.15194   0.24828   0.00000  Uiso   1.00
O227   O     0.42173   0.36272   0.08825   0.00000  Uiso   1.00
O228   O     0.40607   0.34476   0.24845   0.00000  Uiso   1.00
O229   O     0.10070   0.15948   0.08498   0.00000  Uiso   1.00
O230   O     0.15444   0.40348   0.08567   0.00000  Uiso   1.00
O231   O     0.35332   0.08771   0.24801   0.00000  Uiso   1.00
O232   O     0.33577   0.10554   0.08655   0.00000  Uiso   1.00
O233   O     0.14627   0.41157   0.24865   0.00000  Uiso   1.00
O234   O     0.35558   0.41561   0.24713   0.00000  Uiso   1.00
O235   O     0.45419   0.29581   0.20487   0.00000  Uiso   1.00
O236   O     0.17846   0.11935   0.09284   0.00000  Uiso   1.00
O237   O     0.12959   0.06948   0.23825   0.00000  Uiso   1.00
O238   O     0.34159   0.40314   0.08594   0.00000  Uiso   1.00
O239   O     0.04580   0.20419   0.12846   0.00000  Uiso   1.00
O240   O     0.45419   0.20419   0.12846   0.00000  Uiso   1.00
O241   O     0.04580   0.29581   0.20487   0.00000  Uiso   1.00
O242   O     0.04580   0.29581   0.12846   0.00000  Uiso   1.00
O243   O     0.45419   0.20419   0.20487   0.00000  Uiso   1.00
O244   O     0.29580   0.45419   0.20487   0.00000  Uiso   1.00
Zn245  Zn    0.00000   0.25000   0.21771   0.00000  Uiso   1.00
Zn246  Zn   -0.00000   0.25000   0.11563   0.00000  Uiso   1.00
Zn247  Zn    0.25000   0.00000   0.21771   0.00000  Uiso   1.00
Zn248  Zn    0.25000   0.00000   0.11563   0.00000  Uiso   1.00
C249   C     0.56031   0.19019   0.16676   0.00000  Uiso   1.00
C250   C     0.98008   0.21811   0.30950   0.00000  Uiso   1.00
C251   C     0.98127   0.21733   0.02371   0.00000  Uiso   1.00
C252   C     0.51901   0.28246   0.30964   0.00000  Uiso   1.00
C253   C     0.71279   0.00698   0.02343   0.00000  Uiso   1.00
C254   C     0.78720   0.49388   0.31003   0.00000  Uiso   1.00
C255   C     0.78719   0.49321   0.02422   0.00000  Uiso   1.00
C256   C     0.71275   0.00681   0.30916   0.00000  Uiso   1.00
C257   C     0.87965   0.15169   0.13048   0.00000  Uiso   1.00
C258   C     0.59649   0.37110   0.20490   0.00000  Uiso   1.00
C259   C     0.61565   0.35280   0.12877   0.00000  Uiso   1.00
C260   C     0.94107   0.31088   0.16666   0.00000  Uiso   1.00
C261   C     0.90217   0.12971   0.20490   0.00000  Uiso   1.00
C262   C     0.60781   0.13704   0.20668   0.00000  Uiso   1.00
C263   C     0.89786   0.36646   0.12692   0.00000  Uiso   1.00
C264   C     0.89316   0.36130   0.20759   0.00000  Uiso   1.00
C265   C     0.61427   0.14512   0.12643   0.00000  Uiso   1.00
C266   C     0.64096   0.38940   0.12687   0.00000  Uiso   1.00
C267   C     0.86593   0.10319   0.20678   0.00000  Uiso   1.00
C268   C     0.85401   0.11531   0.12742   0.00000  Uiso   1.00
C269   C     0.63258   0.39768   0.20705   0.00000  Uiso   1.00
C270   C     0.86466   0.39575   0.20719   0.00000  Uiso   1.00
C271   C     0.94045   0.18970   0.16680   0.00000  Uiso   1.00
C272   C     0.65124   0.11998   0.12878   0.00000  Uiso   1.00
C273   C     0.63182   0.09950   0.20399   0.00000  Uiso   1.00
C274   C     0.86125   0.39272   0.12626   0.00000  Uiso   1.00
C275   C     0.59069   0.34511   0.16686   0.00000  Uiso   1.00
C276   C     0.90725   0.15660   0.16745   0.00000  Uiso   1.00
C277   C     0.91030   0.34638   0.16706   0.00000  Uiso   1.00
C278   C     0.59423   0.15729   0.16663   0.00000  Uiso   1.00
C279   C     0.84393   0.09266   0.16679   0.00000  Uiso   1.00
C280   C     0.65362   0.40950   0.16687   0.00000  Uiso   1.00
C281   C     0.65803   0.09387   0.16643   0.00000  Uiso   1.00
C282   C     0.55939   0.31035   0.16676   0.00000  Uiso   1.00
C283   C     0.84552   0.40909   0.16676   0.00000  Uiso   1.00
C284   C     0.85243   0.21672   0.11086   0.00000  Uiso   1.00
C285   C     0.84337   0.24693   0.07178   0.00000  Uiso   1.00
C286   C     0.88437   0.25648   0.04561   0.00000  Uiso   1.00
C287   C     0.52761   0.38373   0.23058   0.00000  Uiso   1.00
C288   C     0.51240   0.41580   0.26528   0.00000  Uiso   1.00
C289   C     0.50650   0.39510   0.31079   0.00000  Uiso   1.00
C290   C     0.64691   0.29128   0.10531   0.00000  Uiso   1.00
C291   C     0.65676   0.26343   0.06489   0.00000  Uiso   1.00
C292   C     0.61560   0.24845   0.04133   0.00000  Uiso   1.00
C293   C     0.81048   0.44051   0.16676   0.00000  Uiso   1.00
C294   C     0.95058   0.09387   0.24970   0.00000  Uiso   1.00
C295   C     0.97870   0.09854   0.29142   0.00000  Uiso   1.00
C296   C     0.52034   0.12199   0.28123   0.00000  Uiso   1.00
C297   C     0.62027   0.18981   0.25787   0.00000  Uiso   1.00
C298   C     0.66229   0.17911   0.28270   0.00000  Uiso   1.00
C299   C     0.68825   0.22025   0.28883   0.00000  Uiso   1.00
C300   C     0.96119   0.38572   0.09334   0.00000  Uiso   1.00
C301   C     0.95391   0.43436   0.09964   0.00000  Uiso   1.00
C302   C     0.99612   0.45922   0.09651   0.00000  Uiso   1.00
C303   C     0.88244   0.30668   0.25683   0.00000  Uiso   1.00
C304   C     0.69095   0.06062   0.16650   0.00000  Uiso   1.00
C305   C     0.84002   0.31698   0.27973   0.00000  Uiso   1.00
C306   C     0.81520   0.27567   0.28841   0.00000  Uiso   1.00
C307   C     0.56461   0.13481   0.07063   0.00000  Uiso   1.00
C308   C     0.57755   0.09020   0.05261   0.00000  Uiso   1.00
C309   C     0.56917   0.05468   0.08676   0.00000  Uiso   1.00
C310   C     0.62389   0.43399   0.06955   0.00000  Uiso   1.00
C311   C     0.62458   0.43390   0.01886   0.00000  Uiso   1.00
C312   C     0.59792   0.47064   0.33250   0.00000  Uiso   1.00
C313   C     0.81574   0.11007   0.26155   0.00000  Uiso   1.00
C314   C     0.82671   0.15001   0.28870   0.00000  Uiso   1.00
C315   C     0.68885   0.44106   0.16666   0.00000  Uiso   1.00
C316   C     0.78569   0.17668   0.29388   0.00000  Uiso   1.00
C317   C     0.86133   0.07384   0.06531   0.00000  Uiso   1.00
C318   C     0.90286   0.09255   0.04525   0.00000  Uiso   1.00
C319   C     0.94327   0.08053   0.07246   0.00000  Uiso   1.00
C320   C     0.68485   0.38931   0.26061   0.00000  Uiso   1.00
C321   C     0.67622   0.34796   0.28665   0.00000  Uiso   1.00
C322   C     0.71695   0.32025   0.28586   0.00000  Uiso   1.00
C323   C     0.88563   0.44939   0.25376   0.00000  Uiso   1.00
C324   C     0.90007   0.44951   0.30264   0.00000  Uiso   1.00
C325   C     0.92597   0.48994   0.31291   0.00000  Uiso   1.00
C326   C     0.81026   0.05974   0.16669   0.00000  Uiso   1.00
C327   C     0.71529   0.14426   0.10386   0.00000  Uiso   1.00
C328   C     0.74305   0.14921   0.06268   0.00000  Uiso   1.00
C329   C     0.74984   0.10584   0.04006   0.00000  Uiso   1.00
C330   C     0.61135   0.03067   0.22141   0.00000  Uiso   1.00
C331   C     0.56191   0.03115   0.22400   0.00000  Uiso   1.00
C332   C     0.54259   0.49641   0.19433   0.00000  Uiso   1.00
C333   C     0.82187   0.36541   0.06928   0.00000  Uiso   1.00
C334   C     0.78910   0.37619   0.03272   0.00000  Uiso   1.00
C335   C     0.74595   0.39063   0.05137   0.00000  Uiso   1.00
C336   C     0.51789   0.28313   0.02384   0.00000  Uiso   1.00
H337   H     0.53254   0.30981   0.04146   0.00000  Uiso   1.00
H338   H     0.82066   0.20594   0.12432   0.00000  Uiso   1.00
H339   H     0.73517   0.12823   0.13034   0.00000  Uiso   1.00
H340   H     0.70622   0.17703   0.11573   0.00000  Uiso   1.00
H341   H     0.72664   0.17156   0.03918   0.00000  Uiso   1.00
H342   H     0.77473   0.16338   0.07231   0.00000  Uiso   1.00
H343   H     0.75462   0.08029   0.06532   0.00000  Uiso   1.00
H344   H     0.77912   0.10655   0.01954   0.00000  Uiso   1.00
H345   H     0.72145   0.09790   0.01861   0.00000  Uiso   1.00
H346   H     0.62435   0.00353   0.24132   0.00000  Uiso   1.00
H347   H     0.62093   0.02285   0.18667   0.00000  Uiso   1.00
H348   H     0.55177   0.02575   0.25902   0.00000  Uiso   1.00
H349   H     0.81884   0.23237   0.04932   0.00000  Uiso   1.00
H350   H     0.54916   0.06264   0.21203   0.00000  Uiso   1.00
H351   H     0.54691   0.00562   0.15907   0.00000  Uiso   1.00
H352   H     0.50748   0.49276   0.20102   0.00000  Uiso   1.00
H353   H     0.55966   0.46540   0.19978   0.00000  Uiso   1.00
H354   H     0.80496   0.34671   0.09586   0.00000  Uiso   1.00
H355   H     0.84712   0.34475   0.05443   0.00000  Uiso   1.00
H356   H     0.80223   0.40080   0.00955   0.00000  Uiso   1.00
H357   H     0.78300   0.34631   0.01415   0.00000  Uiso   1.00
H358   H     0.73101   0.36424   0.07101   0.00000  Uiso   1.00
H359   H     0.72389   0.39962   0.02361   0.00000  Uiso   1.00
H360   H     0.82966   0.27713   0.08505   0.00000  Uiso   1.00
H361   H     0.75051   0.41897   0.07273   0.00000  Uiso   1.00
H362   H     0.91190   0.26279   0.06841   0.00000  Uiso   1.00
H363   H     0.87987   0.28523   0.02446   0.00000  Uiso   1.00
H364   H     0.89220   0.22870   0.02389   0.00000  Uiso   1.00
H365   H     0.50449   0.35657   0.23052   0.00000  Uiso   1.00
H366   H     0.52481   0.39938   0.19705   0.00000  Uiso   1.00
H367   H     0.53559   0.44256   0.26825   0.00000  Uiso   1.00
H368   H     0.98120   0.42947   0.25389   0.00000  Uiso   1.00
H369   H     0.96326   0.19291   0.29191   0.00000  Uiso   1.00
H370   H     0.98202   0.36900   0.30897   0.00000  Uiso   1.00
H371   H     0.99482   0.42011   0.00056   0.00000  Uiso   1.00
H372   H     0.53763   0.38206   0.32383   0.00000  Uiso   1.00
H373   H     0.63327   0.27022   0.13184   0.00000  Uiso   1.00
H374   H     0.67835   0.30468   0.11760   0.00000  Uiso   1.00
H375   H     0.67675   0.28209   0.04126   0.00000  Uiso   1.00
H376   H     0.67584   0.23496   0.07595   0.00000  Uiso   1.00
H377   H     0.58954   0.24213   0.06560   0.00000  Uiso   1.00
H378   H     0.62181   0.21820   0.02323   0.00000  Uiso   1.00
H379   H     0.60487   0.27342   0.01705   0.00000  Uiso   1.00
H380   H     0.96622   0.19085   0.04119   0.00000  Uiso   1.00
H381   H     0.97083   0.08460   0.22065   0.00000  Uiso   1.00
H382   H     0.92762   0.06726   0.25593   0.00000  Uiso   1.00
H383   H     0.96088   0.11772   0.31632   0.00000  Uiso   1.00
H384   H     0.98621   0.06639   0.30606   0.00000  Uiso   1.00
H385   H     0.51739   0.14069   0.24976   0.00000  Uiso   1.00
H386   H     0.54720   0.09858   0.27906   0.00000  Uiso   1.00
H387   H     0.52855   0.14480   0.30806   0.00000  Uiso   1.00
H388   H     0.59971   0.21012   0.27962   0.00000  Uiso   1.00
H389   H     0.62743   0.20992   0.22784   0.00000  Uiso   1.00
H390   H     0.65491   0.16441   0.31560   0.00000  Uiso   1.00
H391   H     0.53515   0.30810   0.29217   0.00000  Uiso   1.00
H392   H     0.68172   0.15561   0.26339   0.00000  Uiso   1.00
H393   H     0.70609   0.22736   0.25772   0.00000  Uiso   1.00
H394   H     0.71139   0.21724   0.31694   0.00000  Uiso   1.00
H395   H     0.66645   0.24769   0.29621   0.00000  Uiso   1.00
H396   H     0.98040   0.38017   0.06300   0.00000  Uiso   1.00
H397   H     0.98137   0.37308   0.12142   0.00000  Uiso   1.00
H398   H     0.93037   0.44638   0.07435   0.00000  Uiso   1.00
H399   H     0.94025   0.44039   0.13323   0.00000  Uiso   1.00
H400   H     0.52130   0.44410   0.11816   0.00000  Uiso   1.00
H401   H     0.99053   0.49272   0.10764   0.00000  Uiso   1.00
H402   H     0.68301   0.01324   0.04088   0.00000  Uiso   1.00
H403   H     0.50767   0.46015   0.06176   0.00000  Uiso   1.00
H404   H     0.90260   0.28613   0.27930   0.00000  Uiso   1.00
H405   H     0.87578   0.28705   0.22632   0.00000  Uiso   1.00
H406   H     0.84753   0.33388   0.31123   0.00000  Uiso   1.00
H407   H     0.81967   0.33852   0.25859   0.00000  Uiso   1.00
H408   H     0.79667   0.26686   0.25789   0.00000  Uiso   1.00
H409   H     0.79266   0.27976   0.31651   0.00000  Uiso   1.00
H410   H     0.83774   0.24904   0.29714   0.00000  Uiso   1.00
H411   H     0.54890   0.15339   0.04351   0.00000  Uiso   1.00
H412   H     0.53921   0.13174   0.09660   0.00000  Uiso   1.00
H413   H     0.81709   0.48996   0.29277   0.00000  Uiso   1.00
H414   H     0.55759   0.08278   0.02271   0.00000  Uiso   1.00
H415   H     0.61202   0.08978   0.04236   0.00000  Uiso   1.00
H416   H     0.58972   0.05874   0.11684   0.00000  Uiso   1.00
H417   H     0.57626   0.02275   0.07230   0.00000  Uiso   1.00
H418   H     0.53468   0.05518   0.09672   0.00000  Uiso   1.00
H419   H     0.63272   0.46648   0.08216   0.00000  Uiso   1.00
H420   H     0.58992   0.42682   0.07973   0.00000  Uiso   1.00
H421   H     0.65834   0.43695   0.00728   0.00000  Uiso   1.00
H422   H     0.61130   0.40284   0.00666   0.00000  Uiso   1.00
H423   H     0.56419   0.46969   0.01136   0.00000  Uiso   1.00
H424   H     0.81718   0.48742   0.04221   0.00000  Uiso   1.00
H425   H     0.59724   0.46691   0.29602   0.00000  Uiso   1.00
H426   H     0.61272   0.00224   0.00714   0.00000  Uiso   1.00
H427   H     0.79657   0.08772   0.28243   0.00000  Uiso   1.00
H428   H     0.79390   0.11961   0.23319   0.00000  Uiso   1.00
H429   H     0.83974   0.14042   0.32190   0.00000  Uiso   1.00
H430   H     0.85148   0.16981   0.27162   0.00000  Uiso   1.00
H431   H     0.77951   0.19529   0.26284   0.00000  Uiso   1.00
H432   H     0.78880   0.19841   0.32281   0.00000  Uiso   1.00
H433   H     0.75707   0.15591   0.29910   0.00000  Uiso   1.00
H434   H     0.84165   0.06112   0.03723   0.00000  Uiso   1.00
H435   H     0.68279   0.01243   0.29126   0.00000  Uiso   1.00
H436   H     0.86837   0.04558   0.08734   0.00000  Uiso   1.00
H437   H     0.90635   0.07958   0.01123   0.00000  Uiso   1.00
H438   H     0.90063   0.12798   0.04137   0.00000  Uiso   1.00
H439   H     0.94004   0.08995   0.10789   0.00000  Uiso   1.00
H440   H     0.97196   0.09710   0.05866   0.00000  Uiso   1.00
H441   H     0.94871   0.04529   0.07078   0.00000  Uiso   1.00
H442   H     0.70483   0.41102   0.28170   0.00000  Uiso   1.00
H443   H     0.70553   0.38121   0.23140   0.00000  Uiso   1.00
H444   H     0.66797   0.35564   0.32167   0.00000  Uiso   1.00
H445   H     0.64891   0.32969   0.27157   0.00000  Uiso   1.00
H446   H     0.86978   0.23524   0.13726   0.00000  Uiso   1.00
H447   H     0.71754   0.30107   0.25472   0.00000  Uiso   1.00
H448   H     0.71856   0.29899   0.31546   0.00000  Uiso   1.00
H449   H     0.74626   0.34065   0.28585   0.00000  Uiso   1.00
H450   H     0.86986   0.48046   0.24477   0.00000  Uiso   1.00
H451   H     0.91505   0.44742   0.23253   0.00000  Uiso   1.00
H452   H     0.87159   0.44816   0.32488   0.00000  Uiso   1.00
H453   H     0.91986   0.42041   0.30967   0.00000  Uiso   1.00
H454   H     0.95411   0.49287   0.29035   0.00000  Uiso   1.00
H455   H     0.93804   0.48937   0.01440   0.00000  Uiso   1.00
H456   H     0.90445   0.01816   0.30839   0.00000  Uiso   1.00
N457   N     0.50000   0.25000   0.28573   0.00000  Uiso   1.00
N458   N     0.50000   0.25000   0.04760   0.00000  Uiso   1.00
N459   N     0.75000   0.00000   0.28573   0.00000  Uiso   1.00
N460   N     0.75000   0.00000   0.04760   0.00000  Uiso   1.00
O461   O     0.54580   0.20419   0.20487   0.00000  Uiso   1.00
O462   O     0.70419   0.04581   0.12846   0.00000  Uiso   1.00
O463   O     0.70419   0.04581   0.20487   0.00000  Uiso   1.00
O464   O     0.79580   0.45419   0.12846   0.00000  Uiso   1.00
O465   O     0.70419   0.45419   0.12846   0.00000  Uiso   1.00
O466   O     0.79580   0.04581   0.20487   0.00000  Uiso   1.00
O467   O     0.79580   0.04581   0.12846   0.00000  Uiso   1.00
O468   O     0.70419   0.45419   0.20487   0.00000  Uiso   1.00
O469   O     0.87782   0.18158   0.09643   0.00000  Uiso   1.00
O470   O     0.56983   0.36854   0.24176   0.00000  Uiso   1.00
O471   O     0.61710   0.32432   0.09355   0.00000  Uiso   1.00
O472   O     0.95419   0.29581   0.12846   0.00000  Uiso   1.00
O473   O     0.92911   0.13353   0.24171   0.00000  Uiso   1.00
O474   O     0.59684   0.15194   0.24828   0.00000  Uiso   1.00
O475   O     0.92173   0.36272   0.08825   0.00000  Uiso   1.00
O476   O     0.90607   0.34476   0.24845   0.00000  Uiso   1.00
O477   O     0.60070   0.15948   0.08498   0.00000  Uiso   1.00
O478   O     0.65444   0.40348   0.08567   0.00000  Uiso   1.00
O479   O     0.85332   0.08771   0.24801   0.00000  Uiso   1.00
O480   O     0.83577   0.10554   0.08655   0.00000  Uiso   1.00
O481   O     0.64627   0.41157   0.24865   0.00000  Uiso   1.00
O482   O     0.85558   0.41561   0.24713   0.00000  Uiso   1.00
O483   O     0.95419   0.29581   0.20487   0.00000  Uiso   1.00
O484   O     0.67846   0.11935   0.09284   0.00000  Uiso   1.00
O485   O     0.62959   0.06948   0.23825   0.00000  Uiso   1.00
O486   O     0.84159   0.40314   0.08594   0.00000  Uiso   1.00
O487   O     0.54580   0.20419   0.12846   0.00000  Uiso   1.00
O488   O     0.95419   0.20419   0.12846   0.00000  Uiso   1.00
O489   O     0.54580   0.29581   0.20487   0.00000  Uiso   1.00
O490   O     0.54580   0.29581   0.12846   0.00000  Uiso   1.00
O491   O     0.95419   0.20419   0.20487   0.00000  Uiso   1.00
O492   O     0.79580   0.45419   0.20487   0.00000  Uiso   1.00
Zn493  Zn    0.50000   0.25000   0.21771   0.00000  Uiso   1.00
Zn494  Zn    0.50000   0.25000   0.11563   0.00000  Uiso   1.00
Zn495  Zn    0.75000   0.00000   0.21771   0.00000  Uiso   1.00
Zn496  Zn    0.75000   0.00000   0.11563   0.00000  Uiso   1.00
C497   C     0.06031   0.69019   0.16676   0.00000  Uiso   1.00
C498   C     0.48008   0.71811   0.30950   0.00000  Uiso   1.00
C499   C     0.48127   0.71733   0.02371   0.00000  Uiso   1.00
C500   C     0.01901   0.78246   0.30964   0.00000  Uiso   1.00
C501   C     0.21279   0.50698   0.02343   0.00000  Uiso   1.00
C502   C     0.28720   0.99388   0.31003   0.00000  Uiso   1.00
C503   C     0.28719   0.99321   0.02422   0.00000  Uiso   1.00
C504   C     0.21275   0.50681   0.30916   0.00000  Uiso   1.00
C505   C     0.37965   0.65169   0.13048   0.00000  Uiso   1.00
C506   C     0.09649   0.87110   0.20490   0.00000  Uiso   1.00
C507   C     0.11565   0.85280   0.12877   0.00000  Uiso   1.00
C508   C     0.44107   0.81088   0.16666   0.00000  Uiso   1.00
C509   C     0.40217   0.62971   0.20490   0.00000  Uiso   1.00
C510   C     0.10781   0.63704   0.20668   0.00000  Uiso   1.00
C511   C     0.39786   0.86646   0.12692   0.00000  Uiso   1.00
C512   C     0.39316   0.86130   0.20759   0.00000  Uiso   1.00
C513   C     0.11427   0.64512   0.12643   0.00000  Uiso   1.00
C514   C     0.14096   0.88940   0.12687   0.00000  Uiso   1.00
C515   C     0.36593   0.60319   0.20678   0.00000  Uiso   1.00
C516   C     0.35401   0.61531   0.12742   0.00000  Uiso   1.00
C517   C     0.13258   0.89768   0.20705   0.00000  Uiso   1.00
C518   C     0.36466   0.89575   0.20719   0.00000  Uiso   1.00
C519   C     0.44045   0.68970   0.16680   0.00000  Uiso   1.00
C520   C     0.15124   0.61998   0.12878   0.00000  Uiso   1.00
C521   C     0.13182   0.59950   0.20399   0.00000  Uiso   1.00
C522   C     0.36125   0.89272   0.12626   0.00000  Uiso   1.00
C523   C     0.09069   0.84511   0.16686   0.00000  Uiso   1.00
C524   C     0.40725   0.65660   0.16745   0.00000  Uiso   1.00
C525   C     0.41030   0.84638   0.16706   0.00000  Uiso   1.00
C526   C     0.09423   0.65729   0.16663   0.00000  Uiso   1.00
C527   C     0.34393   0.59266   0.16679   0.00000  Uiso   1.00
C528   C     0.15362   0.90950   0.16687   0.00000  Uiso   1.00
C529   C     0.15803   0.59387   0.16643   0.00000  Uiso   1.00
C530   C     0.05939   0.81035   0.16676   0.00000  Uiso   1.00
C531   C     0.34552   0.90909   0.16676   0.00000  Uiso   1.00
C532   C     0.35243   0.71672   0.11086   0.00000  Uiso   1.00
C533   C     0.34337   0.74693   0.07178   0.00000  Uiso   1.00
C534   C     0.38437   0.75648   0.04561   0.00000  Uiso   1.00
C535   C     0.02761   0.88373   0.23058   0.00000  Uiso   1.00
C536   C     0.01240   0.91580   0.26528   0.00000  Uiso   1.00
C537   C     0.00650   0.89510   0.31079   0.00000  Uiso   1.00
C538   C     0.14691   0.79128   0.10531   0.00000  Uiso   1.00
C539   C     0.15676   0.76343   0.06489   0.00000  Uiso   1.00
C540   C     0.11560   0.74845   0.04133   0.00000  Uiso   1.00
C541   C     0.31048   0.94051   0.16676   0.00000  Uiso   1.00
C542   C     0.45058   0.59387   0.24970   0.00000  Uiso   1.00
C543   C     0.47870   0.59854   0.29142   0.00000  Uiso   1.00
C544   C     0.02034   0.62199   0.28123   0.00000  Uiso   1.00
C545   C     0.12027   0.68981   0.25787   0.00000  Uiso   1.00
C546   C     0.16229   0.67911   0.28270   0.00000  Uiso   1.00
C547   C     0.18825   0.72025   0.28883   0.00000  Uiso   1.00
C548   C     0.46119   0.88572   0.09334   0.00000  Uiso   1.00
C549   C     0.45391   0.93436   0.09964   0.00000  Uiso   1.00
C550   C     0.49612   0.95922   0.09651   0.00000  Uiso   1.00
C551   C     0.38244   0.80668   0.25683   0.00000  Uiso   1.00
C552   C     0.19095   0.56062   0.16650   0.00000  Uiso   1.00
C553   C     0.34002   0.81698   0.27973   0.00000  Uiso   1.00
C554   C     0.31520   0.77567   0.28841   0.00000  Uiso   1.00
C555   C     0.06461   0.63481   0.07063   0.00000  Uiso   1.00
C556   C     0.07755   0.59020   0.05261   0.00000  Uiso   1.00
C557   C     0.06917   0.55468   0.08676   0.00000  Uiso   1.00
C558   C     0.12389   0.93399   0.06955   0.00000  Uiso   1.00
C559   C     0.12458   0.93390   0.01886   0.00000  Uiso   1.00
C560   C     0.09792   0.97064   0.33250   0.00000  Uiso   1.00
C561   C     0.31574   0.61007   0.26155   0.00000  Uiso   1.00
C562   C     0.32671   0.65001   0.28870   0.00000  Uiso   1.00
C563   C     0.18885   0.94106   0.16666   0.00000  Uiso   1.00
C564   C     0.28569   0.67668   0.29388   0.00000  Uiso   1.00
C565   C     0.36133   0.57384   0.06531   0.00000  Uiso   1.00
C566   C     0.40286   0.59255   0.04525   0.00000  Uiso   1.00
C567   C     0.44327   0.58053   0.07246   0.00000  Uiso   1.00
C568   C     0.18485   0.88931   0.26061   0.00000  Uiso   1.00
C569   C     0.17622   0.84796   0.28665   0.00000  Uiso   1.00
C570   C     0.21695   0.82025   0.28586   0.00000  Uiso   1.00
C571   C     0.38563   0.94939   0.25376   0.00000  Uiso   1.00
C572   C     0.40007   0.94951   0.30264   0.00000  Uiso   1.00
C573   C     0.42597   0.98994   0.31291   0.00000  Uiso   1.00
C574   C     0.31026   0.55974   0.16669   0.00000  Uiso   1.00
C575   C     0.21529   0.64426   0.10386   0.00000  Uiso   1.00
C576   C     0.24305   0.64921   0.06268   0.00000  Uiso   1.00
C577   C     0.24984   0.60584   0.04006   0.00000  Uiso   1.00
C578   C     0.11135   0.53067   0.22141   0.00000  Uiso   1.00
C579   C     0.06191   0.53115   0.22400   0.00000  Uiso   1.00
C580   C     0.04259   0.99641   0.19433   0.00000  Uiso   1.00
C581   C     0.32187   0.86541   0.06928   0.00000  Uiso   1.00
C582   C     0.28910   0.87619   0.03272   0.00000  Uiso   1.00
C583   C     0.24595   0.89063   0.05137   0.00000  Uiso   1.00
C584   C     0.01789   0.78313   0.02384   0.00000  Uiso   1.00
H585   H     0.03254   0.80981   0.04146   0.00000  Uiso   1.00
H586   H     0.32066   0.70594   0.12432   0.00000  Uiso   1.00
H587   H     0.23517   0.62823   0.13034   0.00000  Uiso   1.00
H588   H     0.20622   0.67703   0.11573   0.00000  Uiso   1.00
H589   H     0.22664   0.67156   0.03918   0.00000  Uiso   1.00
H590   H     0.27473   0.66338   0.07231   0.00000  Uiso   1.00
H591   H     0.25462   0.58029   0.06532   0.00000  Uiso   1.00
H592   H     0.27912   0.60655   0.01954   0.00000  Uiso   1.00
H593   H     0.22145   0.59790   0.01861   0.00000  Uiso   1.00
H594   H     0.12435   0.50353   0.24132   0.00000  Uiso   1.00
H595   H     0.12093   0.52285   0.18667   0.00000  Uiso   1.00
H596   H     0.05177   0.52575   0.25902   0.00000  Uiso   1.00
H597   H     0.31884   0.73237   0.04932   0.00000  Uiso   1.00
H598   H     0.04916   0.56264   0.21203   0.00000  Uiso   1.00
H599   H     0.04691   0.50562   0.15907   0.00000  Uiso   1.00
H600   H     0.00748   0.99276   0.20102   0.00000  Uiso   1.00
H601   H     0.05966   0.96540   0.19978   0.00000  Uiso   1.00
H602   H     0.30496   0.84671   0.09586   0.00000  Uiso   1.00
H603   H     0.34712   0.84475   0.05443   0.00000  Uiso   1.00
H604   H     0.30223   0.90080   0.00955   0.00000  Uiso   1.00
H605   H     0.28300   0.84631   0.01415   0.00000  Uiso   1.00
H606   H     0.23101   0.86424   0.07101   0.00000  Uiso   1.00
H607   H     0.22389   0.89962   0.02361   0.00000  Uiso   1.00
H608   H     0.32966   0.77713   0.08505   0.00000  Uiso   1.00
H609   H     0.25051   0.91897   0.07273   0.00000  Uiso   1.00
H610   H     0.41190   0.76279   0.06841   0.00000  Uiso   1.00
H611   H     0.37987   0.78523   0.02446   0.00000  Uiso   1.00
H612   H     0.39220   0.72870   0.02389   0.00000  Uiso   1.00
H613   H     0.00449   0.85657   0.23052   0.00000  Uiso   1.00
H614   H     0.02481   0.89938   0.19705   0.00000  Uiso   1.00
H615   H     0.03559   0.94256   0.26825   0.00000  Uiso   1.00
H616   H     0.48120   0.92947   0.25389   0.00000  Uiso   1.00
H617   H     0.46326   0.69291   0.29191   0.00000  Uiso   1.00
H618   H     0.48202   0.86900   0.30897   0.00000  Uiso   1.00
H619   H     0.49482   0.92011   0.00056   0.00000  Uiso   1.00
H620   H     0.03763   0.88206   0.32383   0.00000  Uiso   1.00
H621   H     0.13327   0.77022   0.13184   0.00000  Uiso   1.00
H622   H     0.17835   0.80468   0.11760   0.00000  Uiso   1.00
H623   H     0.17675   0.78209   0.04126   0.00000  Uiso   1.00
H624   H     0.17584   0.73496   0.07595   0.00000  Uiso   1.00
H625   H     0.08954   0.74213   0.06560   0.00000  Uiso   1.00
H626   H     0.12181   0.71820   0.02323   0.00000  Uiso   1.00
H627   H     0.10487   0.77342   0.01705   0.00000  Uiso   1.00
H628   H     0.46622   0.69085   0.04119   0.00000  Uiso   1.00
H629   H     0.47083   0.58460   0.22065   0.00000  Uiso   1.00
H630   H     0.42762   0.56726   0.25593   0.00000  Uiso   1.00
H631   H     0.46088   0.61772   0.31632   0.00000  Uiso   1.00
H632   H     0.48621   0.56639   0.30606   0.00000  Uiso   1.00
H633   H     0.01739   0.64069   0.24976   0.00000  Uiso   1.00
H634   H     0.04720   0.59858   0.27906   0.00000  Uiso   1.00
H635   H     0.02855   0.64480   0.30806   0.00000  Uiso   1.00
H636   H     0.09971   0.71012   0.27962   0.00000  Uiso   1.00
H637   H     0.12743   0.70992   0.22784   0.00000  Uiso   1.00
H638   H     0.15491   0.66441   0.31560   0.00000  Uiso   1.00
H639   H     0.03515   0.80810   0.29217   0.00000  Uiso   1.00
H640   H     0.18172   0.65561   0.26339   0.00000  Uiso   1.00
H641   H     0.20609   0.72736   0.25772   0.00000  Uiso   1.00
H642   H     0.21139   0.71724   0.31694   0.00000  Uiso   1.00
H643   H     0.16645   0.74769   0.29621   0.00000  Uiso   1.00
H644   H     0.48040   0.88017   0.06300   0.00000  Uiso   1.00
H645   H     0.48137   0.87308   0.12142   0.00000  Uiso   1.00
H646   H     0.43037   0.94638   0.07435   0.00000  Uiso   1.00
H647   H     0.44025   0.94039   0.13323   0.00000  Uiso   1.00
H648   H     0.02130   0.94410   0.11816   0.00000  Uiso   1.00
H649   H     0.49053   0.99272   0.10764   0.00000  Uiso   1.00
H650   H     0.18301   0.51324   0.04088   0.00000  Uiso   1.00
H651   H     0.00767   0.96015   0.06176   0.00000  Uiso   1.00
H652   H     0.40260   0.78613   0.27930   0.00000  Uiso   1.00
H653   H     0.37578   0.78705   0.22632   0.00000  Uiso   1.00
H654   H     0.34753   0.83388   0.31123   0.00000  Uiso   1.00
H655   H     0.31967   0.83852   0.25859   0.00000  Uiso   1.00
H656   H     0.29667   0.76686   0.25789   0.00000  Uiso   1.00
H657   H     0.29266   0.77976   0.31651   0.00000  Uiso   1.00
H658   H     0.33774   0.74904   0.29714   0.00000  Uiso   1.00
H659   H     0.04890   0.65339   0.04351   0.00000  Uiso   1.00
H660   H     0.03921   0.63174   0.09660   0.00000  Uiso   1.00
H661   H     0.31709   0.98996   0.29277   0.00000  Uiso   1.00
H662   H     0.05759   0.58278   0.02271   0.00000  Uiso   1.00
H663   H     0.11202   0.58978   0.04236   0.00000  Uiso   1.00
H664   H     0.08972   0.55874   0.11684   0.00000  Uiso   1.00
H665   H     0.07626   0.52275   0.07230   0.00000  Uiso   1.00
H666   H     0.03468   0.55518   0.09672   0.00000  Uiso   1.00
H667   H     0.13272   0.96648   0.08216   0.00000  Uiso   1.00
H668   H     0.08992   0.92682   0.07973   0.00000  Uiso   1.00
H669   H     0.15834   0.93695   0.00728   0.00000  Uiso   1.00
H670   H     0.11130   0.90284   0.00666   0.00000  Uiso   1.00
H671   H     0.06419   0.96969   0.01136   0.00000  Uiso   1.00
H672   H     0.31718   0.98742   0.04221   0.00000  Uiso   1.00
H673   H     0.09724   0.96691   0.29602   0.00000  Uiso   1.00
H674   H     0.11272   0.50224   0.00714   0.00000  Uiso   1.00
H675   H     0.29657   0.58772   0.28243   0.00000  Uiso   1.00
H676   H     0.29390   0.61961   0.23319   0.00000  Uiso   1.00
H677   H     0.33974   0.64042   0.32190   0.00000  Uiso   1.00
H678   H     0.35148   0.66981   0.27162   0.00000  Uiso   1.00
H679   H     0.27951   0.69529   0.26284   0.00000  Uiso   1.00
H680   H     0.28880   0.69841   0.32281   0.00000  Uiso   1.00
H681   H     0.25707   0.65591   0.29910   0.00000  Uiso   1.00
H682   H     0.34165   0.56112   0.03723   0.00000  Uiso   1.00
H683   H     0.18279   0.51243   0.29126   0.00000  Uiso   1.00
H684   H     0.36837   0.54558   0.08734   0.00000  Uiso   1.00
H685   H     0.40635   0.57958   0.01123   0.00000  Uiso   1.00
H686   H     0.40063   0.62798   0.04137   0.00000  Uiso   1.00
H687   H     0.44004   0.58995   0.10789   0.00000  Uiso   1.00
H688   H     0.47196   0.59710   0.05866   0.00000  Uiso   1.00
H689   H     0.44871   0.54529   0.07078   0.00000  Uiso   1.00
H690   H     0.20483   0.91102   0.28170   0.00000  Uiso   1.00
H691   H     0.20553   0.88121   0.23140   0.00000  Uiso   1.00
H692   H     0.16797   0.85564   0.32167   0.00000  Uiso   1.00
H693   H     0.14891   0.82969   0.27157   0.00000  Uiso   1.00
H694   H     0.36978   0.73524   0.13726   0.00000  Uiso   1.00
H695   H     0.21754   0.80107   0.25472   0.00000  Uiso   1.00
H696   H     0.21856   0.79899   0.31546   0.00000  Uiso   1.00
H697   H     0.24626   0.84065   0.28585   0.00000  Uiso   1.00
H698   H     0.36986   0.98046   0.24477   0.00000  Uiso   1.00
H699   H     0.41505   0.94742   0.23253   0.00000  Uiso   1.00
H700   H     0.37159   0.94816   0.32488   0.00000  Uiso   1.00
H701   H     0.41986   0.92041   0.30967   0.00000  Uiso   1.00
H702   H     0.45411   0.99287   0.29035   0.00000  Uiso   1.00
H703   H     0.43804   0.98937   0.01440   0.00000  Uiso   1.00
H704   H     0.40445   0.51816   0.30839   0.00000  Uiso   1.00
N705   N     0.00000   0.75000   0.28573   0.00000  Uiso   1.00
N706   N    -0.00000   0.75000   0.04760   0.00000  Uiso   1.00
N707   N     0.25000   0.50000   0.28573   0.00000  Uiso   1.00
N708   N     0.25000   0.50000   0.04760   0.00000  Uiso   1.00
O709   O     0.04580   0.70419   0.20487   0.00000  Uiso   1.00
O710   O     0.20419   0.54581   0.12846   0.00000  Uiso   1.00
O711   O     0.20419   0.54581   0.20487   0.00000  Uiso   1.00
O712   O     0.29580   0.95419   0.12846   0.00000  Uiso   1.00
O713   O     0.20419   0.95419   0.12846   0.00000  Uiso   1.00
O714   O     0.29580   0.54581   0.20487   0.00000  Uiso   1.00
O715   O     0.29580   0.54581   0.12846   0.00000  Uiso   1.00
O716   O     0.20419   0.95419   0.20487   0.00000  Uiso   1.00
O717   O     0.37782   0.68158   0.09643   0.00000  Uiso   1.00
O718   O     0.06983   0.86854   0.24176   0.00000  Uiso   1.00
O719   O     0.11710   0.82432   0.09355   0.00000  Uiso   1.00
O720   O     0.45419   0.79581   0.12846   0.00000  Uiso   1.00
O721   O     0.42911   0.63353   0.24171   0.00000  Uiso   1.00
O722   O     0.09684   0.65194   0.24828   0.00000  Uiso   1.00
O723   O     0.42173   0.86272   0.08825   0.00000  Uiso   1.00
O724   O     0.40607   0.84476   0.24845   0.00000  Uiso   1.00
O725   O     0.10070   0.65948   0.08498   0.00000  Uiso   1.00
O726   O     0.15444   0.90348   0.08567   0.00000  Uiso   1.00
O727   O     0.35332   0.58771   0.24801   0.00000  Uiso   1.00
O728   O     0.33577   0.60554   0.08655   0.00000  Uiso   1.00
O729   O     0.14627   0.91157   0.24865   0.00000  Uiso   1.00
O730   O     0.35558   0.91561   0.24713   0.00000  Uiso   1.00
O731   O     0.45419   0.79581   0.20487   0.00000  Uiso   1.00
O732   O     0.17846   0.61935   0.09284   0.00000  Uiso   1.00
O733   O     0.12959   0.56948   0.23825   0.00000  Uiso   1.00
O734   O     0.34159   0.90314   0.08594   0.00000  Uiso   1.00
O735   O     0.04580   0.70419   0.12846   0.00000  Uiso   1.00
O736   O     0.45419   0.70419   0.12846   0.00000  Uiso   1.00
O737   O     0.04580   0.79581   0.20487   0.00000  Uiso   1.00
O738   O     0.04580   0.79581   0.12846   0.00000  Uiso   1.00
O739   O     0.45419   0.70419   0.20487   0.00000  Uiso   1.00
O740   O     0.29580   0.95419   0.20487   0.00000  Uiso   1.00
Zn741  Zn    0.00000   0.75000   0.21771   0.00000  Uiso   1.00
Zn742  Zn   -0.00000   0.75000   0.11563   0.00000  Uiso   1.00
Zn743  Zn    0.25000   0.50000   0.21771   0.00000  Uiso   1.00
Zn744  Zn    0.25000   0.50000   0.11563   0.00000  Uiso   1.00
C745   C     0.56031   0.69019   0.16676   0.00000  Uiso   1.00
C746   C     0.98008   0.71811   0.30950   0.00000  Uiso   1.00
C747   C     0.98127   0.71733   0.02371   0.00000  Uiso   1.00
C748   C     0.51901   0.78246   0.30964   0.00000  Uiso   1.00
C749   C     0.71279   0.50698   0.02343   0.00000  Uiso   1.00
C750   C     0.78720   0.99388   0.31003   0.00000  Uiso   1.00
C751   C     0.78719   0.99321   0.02422   0.00000  Uiso   1.00
C752   C     0.71275   0.50681   0.30916   0.00000  Uiso   1.00
C753   C     0.87965   0.65169   0.13048   0.00000  Uiso   1.00
C754   C     0.59649   0.87110   0.20490   0.00000  Uiso   1.00
C755   C     0.61565   0.85280   0.12877   0.00000  Uiso   1.00
C756   C     0.94107   0.81088   0.16666   0.00000  Uiso   1.00
C757   C     0.90217   0.62971   0.20490   0.00000  Uiso   1.00
C758   C     0.60781   0.63704   0.20668   0.00000  Uiso   1.00
C759   C     0.89786   0.86646   0.12692   0.00000  Uiso   1.00
C760   C     0.89316   0.86130   0.20759   0.00000  Uiso   1.00
C761   C     0.61427   0.64512   0.12643   0.00000  Uiso   1.00
C762   C     0.64096   0.88940   0.12687   0.00000  Uiso   1.00
C763   C     0.86593   0.60319   0.20678   0.00000  Uiso   1.00
C764   C     0.85401   0.61531   0.12742   0.00000  Uiso   1.00
C765   C     0.63258   0.89768   0.20705   0.00000  Uiso   1.00
C766   C     0.86466   0.89575   0.20719   0.00000  Uiso   1.00
C767   C     0.94045   0.68970   0.16680   0.00000  Uiso   1.00
C768   C     0.65124   0.61998   0.12878   0.00000  Uiso   1.00
C769   C     0.63182   0.59950   0.20399   0.00000  Uiso   1.00
C770   C     0.86125   0.89272   0.12626   0.00000  Uiso   1.00
C771   C     0.59069   0.84511   0.16686   0.00000  Uiso   1.00
C772   C     0.90725   0.65660   0.16745   0.00000  Uiso   1.00
C773   C     0.91030   0.84638   0.16706   0.00000  Uiso   1.00
C774   C     0.59423   0.65729   0.16663   0.00000  Uiso   1.00
C775   C     0.84393   0.59266   0.16679   0.00000  Uiso   1.00
C776   C     0.65362   0.90950   0.16687   0.00000  Uiso   1.00
C777   C     0.65803   0.59387   0.16643   0.00000  Uiso   1.00
C778   C     0.55939   0.81035   0.16676   0.00000  Uiso   1.00
C779   C     0.84552   0.90909   0.16676   0.00000  Uiso   1.00
C780   C     0.85243   0.71672   0.11086   0.00000  Uiso   1.00
C781   C     0.84337   0.74693   0.07178   0.00000  Uiso   1.00
C782   C     0.88437   0.75648   0.04561   0.00000  Uiso   1.00
C783   C     0.52761   0.88373   0.23058   0.00000  Uiso   1.00
C784   C     0.51240   0.91580   0.26528   0.00000  Uiso   1.00
C785   C     0.50650   0.89510   0.31079   0.00000  Uiso   1.00
C786   C     0.64691   0.79128   0.10531   0.00000  Uiso   1.00
C787   C     0.65676   0.76343   0.06489   0.00000  Uiso   1.00
C788   C     0.61560   0.74845   0.04133   0.00000  Uiso   1.00
C789   C     0.81048   0.94051   0.16676   0.00000  Uiso   1.00
C790   C     0.95058   0.59387   0.24970   0.00000  Uiso   1.00
C791   C     0.97870   0.59854   0.29142   0.00000  Uiso   1.00
C792   C     0.52034   0.62199   0.28123   0.00000  Uiso   1.00
C793   C     0.62027   0.68981   0.25787   0.00000  Uiso   1.00
C794   C     0.66229   0.67911   0.28270   0.00000  Uiso   1.00
C795   C     0.68825   0.72025   0.28883   0.00000  Uiso   1.00
C796   C     0.96119   0.88572   0.09334   0.00000  Uiso   1.00
C797   C     0.95391   0.93436   0.09964   0.00000  Uiso   1.00
C798   C     0.99612   0.95922   0.09651   0.00000  Uiso   1.00
C799   C     0.88244   0.80668   0.25683   0.00000  Uiso   1.00
C800   C     0.69095   0.56062   0.16650   0.00000  Uiso   1.00
C801   C     0.84002   0.81698   0.27973   0.00000  Uiso   1.00
C802   C     0.81520   0.77567   0.28841   0.00000  Uiso   1.00
C803   C     0.56461   0.63481   0.07063   0.00000  Uiso   1.00
C804   C     0.57755   0.59020   0.05261   0.00000  Uiso   1.00
C805   C     0.56917   0.55468   0.08676   0.00000  Uiso   1.00
C806   C     0.62389   0.93399   0.06955   0.00000  Uiso   1.00
C807   C     0.62458   0.93390   0.01886   0.00000  Uiso   1.00
C808   C     0.59792   0.97064   0.33250   0.00000  Uiso   1.00
C809   C     0.81574   0.61007   0.26155   0.00000  Uiso   1.00
C810   C     0.82671   0.65001   0.28870   0.00000  Uiso   1.00
C811   C     0.68885   0.94106   0.16666   0.00000  Uiso   1.00
C812   C     0.78569   0.67668   0.29388   0.00000  Uiso   1.00
C813   C     0.86133   0.57384   0.06531   0.00000  Uiso   1.00
C814   C     0.90286   0.59255   0.04525   0.00000  Uiso   1.00
C815   C     0.94327   0.58053   0.07246   0.00000  Uiso   1.00
C816   C     0.68485   0.88931   0.26061   0.00000  Uiso   1.00
C817   C     0.67622   0.84796   0.28665   0.00000  Uiso   1.00
C818   C     0.71695   0.82025   0.28586   0.00000  Uiso   1.00
C819   C     0.88563   0.94939   0.25376   0.00000  Uiso   1.00
C820   C     0.90007   0.94951   0.30264   0.00000  Uiso   1.00
C821   C     0.92597   0.98994   0.31291   0.00000  Uiso   1.00
C822   C     0.81026   0.55974   0.16669   0.00000  Uiso   1.00
C823   C     0.71529   0.64426   0.10386   0.00000  Uiso   1.00
C824   C     0.74305   0.64921   0.06268   0.00000  Uiso   1.00
C825   C     0.74984   0.60584   0.04006   0.00000  Uiso   1.00
C826   C     0.61135   0.53067   0.22141   0.00000  Uiso   1.00
C827   C     0.56191   0.53115   0.22400   0.00000  Uiso   1.00
C828   C     0.54259   0.99641   0.19433   0.00000  Uiso   1.00
C829   C     0.82187   0.86541   0.06928   0.00000  Uiso   1.00
C830   C     0.78910   0.87619   0.03272   0.00000  Uiso   1.00
C831   C     0.74595   0.89063   0.05137   0.00000  Uiso   1.00
C832   C     0.51789   0.78313   0.02384   0.00000  Uiso   1.00
H833   H     0.53254   0.80981   0.04146   0.00000  Uiso   1.00
H834   H     0.82066   0.70594   0.12432   0.00000  Uiso   1.00
H835   H     0.73517   0.62823   0.13034   0.00000  Uiso   1.00
H836   H     0.70622   0.67703   0.11573   0.00000  Uiso   1.00
H837   H     0.72664   0.67156   0.03918   0.00000  Uiso   1.00
H838   H     0.77473   0.66338   0.07231   0.00000  Uiso   1.00
H839   H     0.75462   0.58029   0.06532   0.00000  Uiso   1.00
H840   H     0.77912   0.60655   0.01954   0.00000  Uiso   1.00
H841   H     0.72145   0.59790   0.01861   0.00000  Uiso   1.00
H842   H     0.62435   0.50353   0.24132   0.00000  Uiso   1.00
H843   H     0.62093   0.52285   0.18667   0.00000  Uiso   1.00
H844   H     0.55177   0.52575   0.25902   0.00000  Uiso   1.00
H845   H     0.81884   0.73237   0.04932   0.00000  Uiso   1.00
H846   H     0.54916   0.56264   0.21203   0.00000  Uiso   1.00
H847   H     0.54691   0.50562   0.15907   0.00000  Uiso   1.00
H848   H     0.50748   0.99276   0.20102   0.00000  Uiso   1.00
H849   H     0.55966   0.96540   0.19978   0.00000  Uiso   1.00
H850   H     0.80496   0.84671   0.09586   0.00000  Uiso   1.00
H851   H     0.84712   0.84475   0.05443   0.00000  Uiso   1.00
H852   H     0.80223   0.90080   0.00955   0.00000  Uiso   1.00
H853   H     0.78300   0.84631   0.01415   0.00000  Uiso   1.00
H854   H     0.73101   0.86424   0.07101   0.00000  Uiso   1.00
H855   H     0.72389   0.89962   0.02361   0.00000  Uiso   1.00
H856   H     0.82966   0.77713   0.08505   0.00000  Uiso   1.00
H857   H     0.75051   0.91897   0.07273   0.00000  Uiso   1.00
H858   H     0.91190   0.76279   0.06841   0.00000  Uiso   1.00
H859   H     0.87987   0.78523   0.02446   0.00000  Uiso   1.00
H860   H     0.89220   0.72870   0.02389   0.00000  Uiso   1.00
H861   H     0.50449   0.85657   0.23052   0.00000  Uiso   1.00
H862   H     0.52481   0.89938   0.19705   0.00000  Uiso   1.00
H863   H     0.53559   0.94256   0.26825   0.00000  Uiso   1.00
H864   H     0.98120   0.92947   0.25389   0.00000  Uiso   1.00
H865   H     0.96326   0.69291   0.29191   0.00000  Uiso   1.00
H866   H     0.98202   0.86900   0.30897   0.00000  Uiso   1.00
H867   H     0.99482   0.92011   0.00056   0.00000  Uiso   1.00
H868   H     0.53763   0.88206   0.32383   0.00000  Uiso   1.00
H869   H     0.63327   0.77022   0.13184   0.00000  Uiso   1.00
H870   H     0.67835   0.80468   0.11760   0.00000  Uiso   1.00
H871   H     0.67675   0.78209   0.04126   0.00000  Uiso   1.00
H872   H     0.67584   0.73496   0.07595   0.00000  Uiso   1.00
H873   H     0.58954   0.74213   0.06560   0.00000  Uiso   1.00
H874   H     0.62181   0.71820   0.02323   0.00000  Uiso   1.00
H875   H     0.60487   0.77342   0.01705   0.00000  Uiso   1.00
H876   H     0.96622   0.69085   0.04119   0.00000  Uiso   1.00
H877   H     0.97083   0.58460   0.22065   0.00000  Uiso   1.00
H878   H     0.92762   0.56726   0.25593   0.00000  Uiso   1.00
H879   H     0.96088   0.61772   0.31632   0.00000  Uiso   1.00
H880   H     0.98621   0.56639   0.30606   0.00000  Uiso   1.00
H881   H     0.51739   0.64069   0.24976   0.00000  Uiso   1.00
H882   H     0.54720   0.59858   0.27906   0.00000  Uiso   1.00
H883   H     0.52855   0.64480   0.30806   0.00000  Uiso   1.00
H884   H     0.59971   0.71012   0.27962   0.00000  Uiso   1.00
H885   H     0.62743   0.70992   0.22784   0.00000  Uiso   1.00
H886   H     0.65491   0.66441   0.31560   0.00000  Uiso   1.00
H887   H     0.53515   0.80810   0.29217   0.00000  Uiso   1.00
H888   H     0.68172   0.65561   0.26339   0.00000  Uiso   1.00
H889   H     0.70609   0.72736   0.25772   0.00000  Uiso   1.00
H890   H     0.71139   0.71724   0.31694   0.00000  Uiso   1.00
H891   H     0.66645   0.74769   0.29621   0.00000  Uiso   1.00
H892   H     0.98040   0.88017   0.06300   0.00000  Uiso   1.00
H893   H     0.98137   0.87308   0.12142   0.00000  Uiso   1.00
H894   H     0.93037   0.94638   0.07435   0.00000  Uiso   1.00
H895   H     0.94025   0.94039   0.13323   0.00000  Uiso   1.00
H896   H     0.52130   0.94410   0.11816   0.00000  Uiso   1.00
H897   H     0.99053   0.99272   0.10764   0.00000  Uiso   1.00
H898   H     0.68301   0.51324   0.04088   0.00000  Uiso   1.00
H899   H     0.50767   0.96015   0.06176   0.00000  Uiso   1.00
H900   H     0.90260   0.78613   0.27930   0.00000  Uiso   1.00
H901   H     0.87578   0.78705   0.22632   0.00000  Uiso   1.00
H902   H     0.84753   0.83388   0.31123   0.00000  Uiso   1.00
H903   H     0.81967   0.83852   0.25859   0.00000  Uiso   1.00
H904   H     0.79667   0.76686   0.25789   0.00000  Uiso   1.00
H905   H     0.79266   0.77976   0.31651   0.00000  Uiso   1.00
H906   H     0.83774   0.74904   0.29714   0.00000  Uiso   1.00
H907   H     0.54890   0.65339   0.04351   0.00000  Uiso   1.00
H908   H     0.53921   0.63174   0.09660   0.00000  Uiso   1.00
H909   H     0.81709   0.98996   0.29277   0.00000  Uiso   1.00
H910   H     0.55759   0.58278   0.02271   0.00000  Uiso   1.00
H911   H     0.61202   0.58978   0.04236   0.00000  Uiso   1.00
H912   H     0.58972   0.55874   0.11684   0.00000  Uiso   1.00
H913   H     0.57626   0.52275   0.07230   0.00000  Uiso   1.00
H914   H     0.53468   0.55518   0.09672   0.00000  Uiso   1.00
H915   H     0.63272   0.96648   0.08216   0.00000  Uiso   1.00
H916   H     0.58992   0.92682   0.07973   0.00000  Uiso   1.00
H917   H     0.65834   0.93695   0.00728   0.00000  Uiso   1.00
H918   H     0.61130   0.90284   0.00666   0.00000  Uiso   1.00
H919   H     0.56419   0.96969   0.01136   0.00000  Uiso   1.00
H920   H     0.81718   0.98742   0.04221   0.00000  Uiso   1.00
H921   H     0.59724   0.96691   0.29602   0.00000  Uiso   1.00
H922   H     0.61272   0.50224   0.00714   0.00000  Uiso   1.00
H923   H     0.79657   0.58772   0.28243   0.00000  Uiso   1.00
H924   H     0.79390   0.61961   0.23319   0.00000  Uiso   1.00
H925   H     0.83974   0.64042   0.32190   0.00000  Uiso   1.00
H926   H     0.85148   0.66981   0.27162   0.00000  Uiso   1.00
H927   H     0.77951   0.69529   0.26284   0.00000  Uiso   1.00
H928   H     0.78880   0.69841   0.32281   0.00000  Uiso   1.00
H929   H     0.75707   0.65591   0.29910   0.00000  Uiso   1.00
H930   H     0.84165   0.56112   0.03723   0.00000  Uiso   1.00
H931   H     0.68279   0.51243   0.29126   0.00000  Uiso   1.00
H932   H     0.86837   0.54558   0.08734   0.00000  Uiso   1.00
H933   H     0.90635   0.57958   0.01123   0.00000  Uiso   1.00
H934   H     0.90063   0.62798   0.04137   0.00000  Uiso   1.00
H935   H     0.94004   0.58995   0.10789   0.00000  Uiso   1.00
H936   H     0.97196   0.59710   0.05866   0.00000  Uiso   1.00
H937   H     0.94871   0.54529   0.07078   0.00000  Uiso   1.00
H938   H     0.70483   0.91102   0.28170   0.00000  Uiso   1.00
H939   H     0.70553   0.88121   0.23140   0.00000  Uiso   1.00
H940   H     0.66797   0.85564   0.32167   0.00000  Uiso   1.00
H941   H     0.64891   0.82969   0.27157   0.00000  Uiso   1.00
H942   H     0.86978   0.73524   0.13726   0.00000  Uiso   1.00
H943   H     0.71754   0.80107   0.25472   0.00000  Uiso   1.00
H944   H     0.71856   0.79899   0.31546   0.00000  Uiso   1.00
H945   H     0.74626   0.84065   0.28585   0.00000  Uiso   1.00
H946   H     0.86986   0.98046   0.24477   0.00000  Uiso   1.00
H947   H     0.91505   0.94742   0.23253   0.00000  Uiso   1.00
H948   H     0.87159   0.94816   0.32488   0.00000  Uiso   1.00
H949   H     0.91986   0.92041   0.30967   0.00000  Uiso   1.00
H950   H     0.95411   0.99287   0.29035   0.00000  Uiso   1.00
H951   H     0.93804   0.98937   0.01440   0.00000  Uiso   1.00
H952   H     0.90445   0.51816   0.30839   0.00000  Uiso   1.00
N953   N     0.50000   0.75000   0.28573   0.00000  Uiso   1.00
N954   N     0.50000   0.75000   0.04760   0.00000  Uiso   1.00
N955   N     0.75000   0.50000   0.28573   0.00000  Uiso   1.00
N956   N     0.75000   0.50000   0.04760   0.00000  Uiso   1.00
O957   O     0.54580   0.70419   0.20487   0.00000  Uiso   1.00
O958   O     0.70419   0.54581   0.12846   0.00000  Uiso   1.00
O959   O     0.70419   0.54581   0.20487   0.00000  Uiso   1.00
O960   O     0.79580   0.95419   0.12846   0.00000  Uiso   1.00
O961   O     0.70419   0.95419   0.12846   0.00000  Uiso   1.00
O962   O     0.79580   0.54581   0.20487   0.00000  Uiso   1.00
O963   O     0.79580   0.54581   0.12846   0.00000  Uiso   1.00
O964   O     0.70419   0.95419   0.20487   0.00000  Uiso   1.00
O965   O     0.87782   0.68158   0.09643   0.00000  Uiso   1.00
O966   O     0.56983   0.86854   0.24176   0.00000  Uiso   1.00
O967   O     0.61710   0.82432   0.09355   0.00000  Uiso   1.00
O968   O     0.95419   0.79581   0.12846   0.00000  Uiso   1.00
O969   O     0.92911   0.63353   0.24171   0.00000  Uiso   1.00
O970   O     0.59684   0.65194   0.24828   0.00000  Uiso   1.00
O971   O     0.92173   0.86272   0.08825   0.00000  Uiso   1.00
O972   O     0.90607   0.84476   0.24845   0.00000  Uiso   1.00
O973   O     0.60070   0.65948   0.08498   0.00000  Uiso   1.00
O974   O     0.65444   0.90348   0.08567   0.00000  Uiso   1.00
O975   O     0.85332   0.58771   0.24801   0.00000  Uiso   1.00
O976   O     0.83577   0.60554   0.08655   0.00000  Uiso   1.00
O977   O     0.64627   0.91157   0.24865   0.00000  Uiso   1.00
O978   O     0.85558   0.91561   0.24713   0.00000  Uiso   1.00
O979   O     0.95419   0.79581   0.20487   0.00000  Uiso   1.00
O980   O     0.67846   0.61935   0.09284   0.00000  Uiso   1.00
O981   O     0.62959   0.56948   0.23825   0.00000  Uiso   1.00
O982   O     0.84159   0.90314   0.08594   0.00000  Uiso   1.00
O983   O     0.54580   0.70419   0.12846   0.00000  Uiso   1.00
O984   O     0.95419   0.70419   0.12846   0.00000  Uiso   1.00
O985   O     0.54580   0.79581   0.20487   0.00000  Uiso   1.00
O986   O     0.54580   0.79581   0.12846   0.00000  Uiso   1.00
O987   O     0.95419   0.70419   0.20487   0.00000  Uiso   1.00
O988   O     0.79580   0.95419   0.20487   0.00000  Uiso   1.00
Zn989  Zn    0.50000   0.75000   0.21771   0.00000  Uiso   1.00
Zn990  Zn    0.50000   0.75000   0.11563   0.00000  Uiso   1.00
Zn991  Zn    0.75000   0.50000   0.21771   0.00000  Uiso   1.00
Zn992  Zn    0.75000   0.50000   0.11563   0.00000  Uiso   1.00
C993   C     0.06031   0.19019   0.50009   0.00000  Uiso   1.00
C994   C     0.48008   0.21811   0.64284   0.00000  Uiso   1.00
C995   C     0.48127   0.21733   0.35704   0.00000  Uiso   1.00
C996   C     0.01901   0.28246   0.64297   0.00000  Uiso   1.00
C997   C     0.21279   0.00698   0.35677   0.00000  Uiso   1.00
C998   C     0.28720   0.49388   0.64336   0.00000  Uiso   1.00
C999   C     0.28719   0.49321   0.35756   0.00000  Uiso   1.00
C1000  C     0.21275   0.00681   0.64249   0.00000  Uiso   1.00
C1001  C     0.37965   0.15169   0.46381   0.00000  Uiso   1.00
C1002  C     0.09649   0.37110   0.53824   0.00000  Uiso   1.00
C1003  C     0.11565   0.35280   0.46210   0.00000  Uiso   1.00
C1004  C     0.44107   0.31088   0.49999   0.00000  Uiso   1.00
C1005  C     0.40217   0.12971   0.53824   0.00000  Uiso   1.00
C1006  C     0.10781   0.13704   0.54002   0.00000  Uiso   1.00
C1007  C     0.39786   0.36646   0.46026   0.00000  Uiso   1.00
C1008  C     0.39316   0.36130   0.54092   0.00000  Uiso   1.00
C1009  C     0.11427   0.14512   0.45976   0.00000  Uiso   1.00
C1010  C     0.14096   0.38940   0.46021   0.00000  Uiso   1.00
C1011  C     0.36593   0.10319   0.54012   0.00000  Uiso   1.00
C1012  C     0.35401   0.11531   0.46075   0.00000  Uiso   1.00
C1013  C     0.13258   0.39768   0.54038   0.00000  Uiso   1.00
C1014  C     0.36466   0.39575   0.54053   0.00000  Uiso   1.00
C1015  C     0.44045   0.18970   0.50014   0.00000  Uiso   1.00
C1016  C     0.15124   0.11998   0.46211   0.00000  Uiso   1.00
C1017  C     0.13182   0.09950   0.53732   0.00000  Uiso   1.00
C1018  C     0.36125   0.39272   0.45959   0.00000  Uiso   1.00
C1019  C     0.09069   0.34511   0.50019   0.00000  Uiso   1.00
C1020  C     0.40725   0.15660   0.50078   0.00000  Uiso   1.00
C1021  C     0.41030   0.34638   0.50040   0.00000  Uiso   1.00
C1022  C     0.09423   0.15729   0.49997   0.00000  Uiso   1.00
C1023  C     0.34393   0.09266   0.50012   0.00000  Uiso   1.00
C1024  C     0.15362   0.40950   0.50020   0.00000  Uiso   1.00
C1025  C     0.15803   0.09387   0.49976   0.00000  Uiso   1.00
C1026  C     0.05939   0.31035   0.50009   0.00000  Uiso   1.00
C1027  C     0.34552   0.40909   0.50009   0.00000  Uiso   1.00
C1028  C     0.35243   0.21672   0.44419   0.00000  Uiso   1.00
C1029  C     0.34337   0.24693   0.40511   0.00000  Uiso   1.00
C1030  C     0.38437   0.25648   0.37895   0.00000  Uiso   1.00
C1031  C     0.02761   0.38373   0.56392   0.00000  Uiso   1.00
C1032  C     0.01240   0.41580   0.59862   0.00000  Uiso   1.00
C1033  C     0.00650   0.39510   0.64412   0.00000  Uiso   1.00
C1034  C     0.14691   0.29128   0.43864   0.00000  Uiso   1.00
C1035  C     0.15676   0.26343   0.39822   0.00000  Uiso   1.00
C1036  C     0.11560   0.24845   0.37467   0.00000  Uiso   1.00
C1037  C     0.31048   0.44051   0.50010   0.00000  Uiso   1.00
C1038  C     0.45058   0.09387   0.58303   0.00000  Uiso   1.00
C1039  C     0.47870   0.09854   0.62475   0.00000  Uiso   1.00
C1040  C     0.02034   0.12199   0.61456   0.00000  Uiso   1.00
C1041  C     0.12027   0.18981   0.59121   0.00000  Uiso   1.00
C1042  C     0.16229   0.17911   0.61603   0.00000  Uiso   1.00
C1043  C     0.18825   0.22025   0.62216   0.00000  Uiso   1.00
C1044  C     0.46119   0.38572   0.42668   0.00000  Uiso   1.00
C1045  C     0.45391   0.43436   0.43297   0.00000  Uiso   1.00
C1046  C     0.49612   0.45922   0.42984   0.00000  Uiso   1.00
C1047  C     0.38244   0.30668   0.59016   0.00000  Uiso   1.00
C1048  C     0.19095   0.06062   0.49983   0.00000  Uiso   1.00
C1049  C     0.34002   0.31698   0.61306   0.00000  Uiso   1.00
C1050  C     0.31520   0.27567   0.62174   0.00000  Uiso   1.00
C1051  C     0.06461   0.13481   0.40397   0.00000  Uiso   1.00
C1052  C     0.07755   0.09020   0.38594   0.00000  Uiso   1.00
C1053  C     0.06917   0.05468   0.42009   0.00000  Uiso   1.00
C1054  C     0.12389   0.43399   0.40289   0.00000  Uiso   1.00
C1055  C     0.12458   0.43390   0.35220   0.00000  Uiso   1.00
C1056  C     0.09792   0.47064   0.66583   0.00000  Uiso   1.00
C1057  C     0.31574   0.11007   0.59488   0.00000  Uiso   1.00
C1058  C     0.32671   0.15001   0.62204   0.00000  Uiso   1.00
C1059  C     0.18885   0.44106   0.49999   0.00000  Uiso   1.00
C1060  C     0.28569   0.17668   0.62721   0.00000  Uiso   1.00
C1061  C     0.36133   0.07384   0.39864   0.00000  Uiso   1.00
C1062  C     0.40286   0.09255   0.37858   0.00000  Uiso   1.00
C1063  C     0.44327   0.08053   0.40579   0.00000  Uiso   1.00
C1064  C     0.18485   0.38931   0.59394   0.00000  Uiso   1.00
C1065  C     0.17622   0.34796   0.61998   0.00000  Uiso   1.00
C1066  C     0.21695   0.32025   0.61919   0.00000  Uiso   1.00
C1067  C     0.38563   0.44939   0.58710   0.00000  Uiso   1.00
C1068  C     0.40007   0.44951   0.63598   0.00000  Uiso   1.00
C1069  C     0.42597   0.48994   0.64625   0.00000  Uiso   1.00
C1070  C     0.31026   0.05974   0.50002   0.00000  Uiso   1.00
C1071  C     0.21529   0.14426   0.43719   0.00000  Uiso   1.00
C1072  C     0.24305   0.14921   0.39601   0.00000  Uiso   1.00
C1073  C     0.24984   0.10584   0.37339   0.00000  Uiso   1.00
C1074  C     0.11135   0.03067   0.55475   0.00000  Uiso   1.00
C1075  C     0.06191   0.03115   0.55733   0.00000  Uiso   1.00
C1076  C     0.04259   0.49641   0.52767   0.00000  Uiso   1.00
C1077  C     0.32187   0.36541   0.40262   0.00000  Uiso   1.00
C1078  C     0.28910   0.37619   0.36606   0.00000  Uiso   1.00
C1079  C     0.24595   0.39063   0.38470   0.00000  Uiso   1.00
C1080  C     0.01789   0.28313   0.35718   0.00000  Uiso   1.00
H1081  H     0.03254   0.30981   0.37479   0.00000  Uiso   1.00
H1082  H     0.32066   0.20594   0.45765   0.00000  Uiso   1.00
H1083  H     0.23517   0.12823   0.46367   0.00000  Uiso   1.00
H1084  H     0.20622   0.17703   0.44907   0.00000  Uiso   1.00
H1085  H     0.22664   0.17156   0.37251   0.00000  Uiso   1.00
H1086  H     0.27473   0.16338   0.40564   0.00000  Uiso   1.00
H1087  H     0.25462   0.08029   0.39866   0.00000  Uiso   1.00
H1088  H     0.27912   0.10655   0.35288   0.00000  Uiso   1.00
H1089  H     0.22145   0.09790   0.35195   0.00000  Uiso   1.00
H1090  H     0.12435   0.00353   0.57465   0.00000  Uiso   1.00
H1091  H     0.12093   0.02285   0.52000   0.00000  Uiso   1.00
H1092  H     0.05177   0.02575   0.59236   0.00000  Uiso   1.00
H1093  H     0.31884   0.23237   0.38266   0.00000  Uiso   1.00
H1094  H     0.04916   0.06264   0.54536   0.00000  Uiso   1.00
H1095  H     0.04691   0.00562   0.49240   0.00000  Uiso   1.00
H1096  H     0.00748   0.49276   0.53435   0.00000  Uiso   1.00
H1097  H     0.05966   0.46540   0.53311   0.00000  Uiso   1.00
H1098  H     0.30496   0.34671   0.42919   0.00000  Uiso   1.00
H1099  H     0.34712   0.34475   0.38776   0.00000  Uiso   1.00
H1100  H     0.30223   0.40080   0.34288   0.00000  Uiso   1.00
H1101  H     0.28300   0.34631   0.34749   0.00000  Uiso   1.00
H1102  H     0.23101   0.36424   0.40434   0.00000  Uiso   1.00
H1103  H     0.22389   0.39962   0.35694   0.00000  Uiso   1.00
H1104  H     0.32966   0.27713   0.41838   0.00000  Uiso   1.00
H1105  H     0.25051   0.41897   0.40606   0.00000  Uiso   1.00
H1106  H     0.41190   0.26279   0.40174   0.00000  Uiso   1.00
H1107  H     0.37987   0.28523   0.35780   0.00000  Uiso   1.00
H1108  H     0.39220   0.22870   0.35722   0.00000  Uiso   1.00
H1109  H     0.00449   0.35657   0.56385   0.00000  Uiso   1.00
H1110  H     0.02481   0.39938   0.53039   0.00000  Uiso   1.00
H1111  H     0.03559   0.44256   0.60158   0.00000  Uiso   1.00
H1112  H     0.48120   0.42947   0.58723   0.00000  Uiso   1.00
H1113  H     0.46326   0.19291   0.62524   0.00000  Uiso   1.00
H1114  H     0.48202   0.36900   0.64230   0.00000  Uiso   1.00
H1115  H     0.49482   0.42011   0.33389   0.00000  Uiso   1.00
H1116  H     0.03763   0.38206   0.65716   0.00000  Uiso   1.00
H1117  H     0.13327   0.27022   0.46517   0.00000  Uiso   1.00
H1118  H     0.17835   0.30468   0.45094   0.00000  Uiso   1.00
H1119  H     0.17675   0.28209   0.37459   0.00000  Uiso   1.00
H1120  H     0.17584   0.23496   0.40928   0.00000  Uiso   1.00
H1121  H     0.08954   0.24213   0.39893   0.00000  Uiso   1.00
H1122  H     0.12181   0.21820   0.35656   0.00000  Uiso   1.00
H1123  H     0.10487   0.27342   0.35038   0.00000  Uiso   1.00
H1124  H     0.46622   0.19085   0.37452   0.00000  Uiso   1.00
H1125  H     0.47083   0.08460   0.55398   0.00000  Uiso   1.00
H1126  H     0.42762   0.06726   0.58926   0.00000  Uiso   1.00
H1127  H     0.46088   0.11772   0.64965   0.00000  Uiso   1.00
H1128  H     0.48621   0.06639   0.63939   0.00000  Uiso   1.00
H1129  H     0.01739   0.14069   0.58309   0.00000  Uiso   1.00
H1130  H     0.04720   0.09858   0.61240   0.00000  Uiso   1.00
H1131  H     0.02855   0.14480   0.64139   0.00000  Uiso   1.00
H1132  H     0.09971   0.21012   0.61295   0.00000  Uiso   1.00
H1133  H     0.12743   0.20992   0.56118   0.00000  Uiso   1.00
H1134  H     0.15491   0.16441   0.64894   0.00000  Uiso   1.00
H1135  H     0.03515   0.30810   0.62551   0.00000  Uiso   1.00
H1136  H     0.18172   0.15561   0.59672   0.00000  Uiso   1.00
H1137  H     0.20609   0.22736   0.59105   0.00000  Uiso   1.00
H1138  H     0.21139   0.21724   0.65028   0.00000  Uiso   1.00
H1139  H     0.16645   0.24769   0.62955   0.00000  Uiso   1.00
H1140  H     0.48040   0.38017   0.39633   0.00000  Uiso   1.00
H1141  H     0.48137   0.37308   0.45476   0.00000  Uiso   1.00
H1142  H     0.43037   0.44638   0.40769   0.00000  Uiso   1.00
H1143  H     0.44025   0.44039   0.46656   0.00000  Uiso   1.00
H1144  H     0.02130   0.44410   0.45150   0.00000  Uiso   1.00
H1145  H     0.49053   0.49272   0.44097   0.00000  Uiso   1.00
H1146  H     0.18301   0.01324   0.37422   0.00000  Uiso   1.00
H1147  H     0.00767   0.46015   0.39509   0.00000  Uiso   1.00
H1148  H     0.40260   0.28613   0.61264   0.00000  Uiso   1.00
H1149  H     0.37578   0.28705   0.55966   0.00000  Uiso   1.00
H1150  H     0.34753   0.33388   0.64456   0.00000  Uiso   1.00
H1151  H     0.31967   0.33852   0.59192   0.00000  Uiso   1.00
H1152  H     0.29667   0.26686   0.59122   0.00000  Uiso   1.00
H1153  H     0.29266   0.27976   0.64985   0.00000  Uiso   1.00
H1154  H     0.33774   0.24904   0.63047   0.00000  Uiso   1.00
H1155  H     0.04890   0.15339   0.37684   0.00000  Uiso   1.00
H1156  H     0.03921   0.13174   0.42994   0.00000  Uiso   1.00
H1157  H     0.31709   0.48996   0.62611   0.00000  Uiso   1.00
H1158  H     0.05759   0.08278   0.35604   0.00000  Uiso   1.00
H1159  H     0.11202   0.08978   0.37570   0.00000  Uiso   1.00
H1160  H     0.08972   0.05874   0.45018   0.00000  Uiso   1.00
H1161  H     0.07626   0.02275   0.40563   0.00000  Uiso   1.00
H1162  H     0.03468   0.05518   0.43005   0.00000  Uiso   1.00
H1163  H     0.13272   0.46648   0.41549   0.00000  Uiso   1.00
H1164  H     0.08992   0.42682   0.41307   0.00000  Uiso   1.00
H1165  H     0.15834   0.43695   0.34061   0.00000  Uiso   1.00
H1166  H     0.11130   0.40284   0.34000   0.00000  Uiso   1.00
H1167  H     0.06419   0.46969   0.34469   0.00000  Uiso   1.00
H1168  H     0.31718   0.48742   0.37554   0.00000  Uiso   1.00
H1169  H     0.09724   0.46691   0.62936   0.00000  Uiso   1.00
H1170  H     0.11272   0.00224   0.34047   0.00000  Uiso   1.00
H1171  H     0.29657   0.08772   0.61576   0.00000  Uiso   1.00
H1172  H     0.29390   0.11961   0.56652   0.00000  Uiso   1.00
H1173  H     0.33974   0.14042   0.65524   0.00000  Uiso   1.00
H1174  H     0.35148   0.16981   0.60495   0.00000  Uiso   1.00
H1175  H     0.27951   0.19529   0.59617   0.00000  Uiso   1.00
H1176  H     0.28880   0.19841   0.65614   0.00000  Uiso   1.00
H1177  H     0.25707   0.15591   0.63244   0.00000  Uiso   1.00
H1178  H     0.34165   0.06112   0.37056   0.00000  Uiso   1.00
H1179  H     0.18279   0.01243   0.62459   0.00000  Uiso   1.00
H1180  H     0.36837   0.04558   0.42067   0.00000  Uiso   1.00
H1181  H     0.40635   0.07958   0.34456   0.00000  Uiso   1.00
H1182  H     0.40063   0.12798   0.37471   0.00000  Uiso   1.00
H1183  H     0.44004   0.08995   0.44122   0.00000  Uiso   1.00
H1184  H     0.47196   0.09710   0.39200   0.00000  Uiso   1.00
H1185  H     0.44871   0.04529   0.40411   0.00000  Uiso   1.00
H1186  H     0.20483   0.41102   0.61504   0.00000  Uiso   1.00
H1187  H     0.20553   0.38121   0.56473   0.00000  Uiso   1.00
H1188  H     0.16797   0.35564   0.65500   0.00000  Uiso   1.00
H1189  H     0.14891   0.32969   0.60490   0.00000  Uiso   1.00
H1190  H     0.36978   0.23524   0.47060   0.00000  Uiso   1.00
H1191  H     0.21754   0.30107   0.58805   0.00000  Uiso   1.00
H1192  H     0.21856   0.29899   0.64880   0.00000  Uiso   1.00
H1193  H     0.24626   0.34065   0.61919   0.00000  Uiso   1.00
H1194  H     0.36986   0.48046   0.57810   0.00000  Uiso   1.00
H1195  H     0.41505   0.44742   0.56586   0.00000  Uiso   1.00
H1196  H     0.37159   0.44816   0.65822   0.00000  Uiso   1.00
H1197  H     0.41986   0.42041   0.64301   0.00000  Uiso   1.00
H1198  H     0.45411   0.49287   0.62369   0.00000  Uiso   1.00
H1199  H     0.43804   0.48937   0.34774   0.00000  Uiso   1.00
H1200  H     0.40445   0.01816   0.64172   0.00000  Uiso   1.00
N1201  N     0.00000   0.25000   0.61907   0.00000  Uiso   1.00
N1202  N    -0.00000   0.25000   0.38093   0.00000  Uiso   1.00
N1203  N     0.25000   0.00000   0.61907   0.00000  Uiso   1.00
N1204  N     0.25000   0.00000   0.38093   0.00000  Uiso   1.00
O1205  O     0.04580   0.20419   0.53821   0.00000  Uiso   1.00
O1206  O     0.20419   0.04581   0.46179   0.00000  Uiso   1.00
O1207  O     0.20419   0.04581   0.53821   0.00000  Uiso   1.00
O1208  O     0.29580   0.45419   0.46179   0.00000  Uiso   1.00
O1209  O     0.20419   0.45419   0.46179   0.00000  Uiso   1.00
O1210  O     0.29580   0.04581   0.53821   0.00000  Uiso   1.00
O1211  O     0.29580   0.04581   0.46179   0.00000  Uiso   1.00
O1212  O     0.20419   0.45419   0.53821   0.00000  Uiso   1.00
O1213  O     0.37782   0.18158   0.42976   0.00000  Uiso   1.00
O1214  O     0.06983   0.36854   0.57509   0.00000  Uiso   1.00
O1215  O     0.11710   0.32432   0.42688   0.00000  Uiso   1.00
O1216  O     0.45419   0.29581   0.46179   0.00000  Uiso   1.00
O1217  O     0.42911   0.13353   0.57504   0.00000  Uiso   1.00
O1218  O     0.09684   0.15194   0.58162   0.00000  Uiso   1.00
O1219  O     0.42173   0.36272   0.42159   0.00000  Uiso   1.00
O1220  O     0.40607   0.34476   0.58178   0.00000  Uiso   1.00
O1221  O     0.10070   0.15948   0.41831   0.00000  Uiso   1.00
O1222  O     0.15444   0.40348   0.41900   0.00000  Uiso   1.00
O1223  O     0.35332   0.08771   0.58135   0.00000  Uiso   1.00
O1224  O     0.33577   0.10554   0.41988   0.00000  Uiso   1.00
O1225  O     0.14627   0.41157   0.58198   0.00000  Uiso   1.00
O1226  O     0.35558   0.41561   0.58046   0.00000  Uiso   1.00
O1227  O     0.45419   0.29581   0.53821   0.00000  Uiso   1.00
O1228  O     0.17846   0.11935   0.42617   0.00000  Uiso   1.00
O1229  O     0.12959   0.06948   0.57158   0.00000  Uiso   1.00
O1230  O     0.34159   0.40314   0.41927   0.00000  Uiso   1.00
O1231  O     0.04580   0.20419   0.46179   0.00000  Uiso   1.00
O1232  O     0.45419   0.20419   0.46179   0.00000  Uiso   1.00
O1233  O     0.04580   0.29581   0.53821   0.00000  Uiso   1.00
O1234  O     0.04580   0.29581   0.46179   0.00000  Uiso   1.00
O1235  O     0.45419   0.20419   0.53821   0.00000  Uiso   1.00
O1236  O     0.29580   0.45419   0.53821   0.00000  Uiso   1.00
Zn1237 Zn    0.00000   0.25000   0.55104   0.00000  Uiso   1.00
Zn1238 Zn   -0.00000   0.25000   0.44896   0.00000  Uiso   1.00
Zn1239 Zn    0.25000   0.00000   0.55104   0.00000  Uiso   1.00
Zn1240 Zn    0.25000   0.00000   0.44896   0.00000  Uiso   1.00
C1241  C     0.56031   0.19019   0.50009   0.00000  Uiso   1.00
C1242  C     0.98008   0.21811   0.64284   0.00000  Uiso   1.00
C1243  C     0.98127   0.21733   0.35704   0.00000  Uiso   1.00
C1244  C     0.51901   0.28246   0.64297   0.00000  Uiso   1.00
C1245  C     0.71279   0.00698   0.35677   0.00000  Uiso   1.00
C1246  C     0.78720   0.49388   0.64336   0.00000  Uiso   1.00
C1247  C     0.78719   0.49321   0.35756   0.00000  Uiso   1.00
C1248  C     0.71275   0.00681   0.64249   0.00000  Uiso   1.00
C1249  C     0.87965   0.15169   0.46381   0.00000  Uiso   1.00
C1250  C     0.59649   0.37110   0.53824   0.00000  Uiso   1.00
C1251  C     0.61565   0.35280   0.46210   0.00000  Uiso   1.00
C1252  C     0.94107   0.31088   0.49999   0.00000  Uiso   1.00
C1253  C     0.90217   0.12971   0.53824   0.00000  Uiso   1.00
C1254  C     0.60781   0.13704   0.54002   0.00000  Uiso   1.00
C1255  C     0.89786   0.36646   0.46026   0.00000  Uiso   1.00
C1256  C     0.89316   0.36130   0.54092   0.00000  Uiso   1.00
C1257  C     0.61427   0.14512   0.45976   0.00000  Uiso   1.00
C1258  C     0.64096   0.38940   0.46021   0.00000  Uiso   1.00
C1259  C     0.86593   0.10319   0.54012   0.00000  Uiso   1.00
C1260  C     0.85401   0.11531   0.46075   0.00000  Uiso   1.00
C1261  C     0.63258   0.39768   0.54038   0.00000  Uiso   1.00
C1262  C     0.86466   0.39575   0.54053   0.00000  Uiso   1.00
C1263  C     0.94045   0.18970   0.50014   0.00000  Uiso   1.00
C1264  C     0.65124   0.11998   0.46211   0.00000  Uiso   1.00
C1265  C     0.63182   0.09950   0.53732   0.00000  Uiso   1.00
C1266  C     0.86125   0.39272   0.45959   0.00000  Uiso   1.00
C1267  C     0.59069   0.34511   0.50019   0.00000  Uiso   1.00
C1268  C     0.90725   0.15660   0.50078   0.00000  Uiso   1.00
C1269  C     0.91030   0.34638   0.50040   0.00000  Uiso   1.00
C1270  C     0.59423   0.15729   0.49997   0.00000  Uiso   1.00
C1271  C     0.84393   0.09266   0.50012   0.00000  Uiso   1.00
C1272  C     0.65362   0.40950   0.50020   0.00000  Uiso   1.00
C1273  C     0.65803   0.09387   0.49976   0.00000  Uiso   1.00
C1274  C     0.55939   0.31035   0.50009   0.00000  Uiso   1.00
C1275  C     0.84552   0.40909   0.50009   0.00000  Uiso   1.00
C1276  C     0.85243   0.21672   0.44419   0.00000  Uiso   1.00
C1277  C     0.84337   0.24693   0.40511   0.00000  Uiso   1.00
C1278  C     0.88437   0.25648   0.37895   0.00000  Uiso   1.00
C1279  C     0.52761   0.38373   0.56392   0.00000  Uiso   1.00
C1280  C     0.51240   0.41580   0.59862   0.00000  Uiso   1.00
C1281  C     0.50650   0.39510   0.64412   0.00000  Uiso   1.00
C1282  C     0.64691   0.29128   0.43864   0.00000  Uiso   1.00
C1283  C     0.65676   0.26343   0.39822   0.00000  Uiso   1.00
C1284  C     0.61560   0.24845   0.37467   0.00000  Uiso   1.00
C1285  C     0.81048   0.44051   0.50010   0.00000  Uiso   1.00
C1286  C     0.95058   0.09387   0.58303   0.00000  Uiso   1.00
C1287  C     0.97870   0.09854   0.62475   0.00000  Uiso   1.00
C1288  C     0.52034   0.12199   0.61456   0.00000  Uiso   1.00
C1289  C     0.62027   0.18981   0.59121   0.00000  Uiso   1.00
C1290  C     0.66229   0.17911   0.61603   0.00000  Uiso   1.00
C1291  C     0.68825   0.22025   0.62216   0.00000  Uiso   1.00
C1292  C     0.96119   0.38572   0.42668   0.00000  Uiso   1.00
C1293  C     0.95391   0.43436   0.43297   0.00000  Uiso   1.00
C1294  C     0.99612   0.45922   0.42984   0.00000  Uiso   1.00
C1295  C     0.88244   0.30668   0.59016   0.00000  Uiso   1.00
C1296  C     0.69095   0.06062   0.49983   0.00000  Uiso   1.00
C1297  C     0.84002   0.31698   0.61306   0.00000  Uiso   1.00
C1298  C     0.81520   0.27567   0.62174   0.00000  Uiso   1.00
C1299  C     0.56461   0.13481   0.40397   0.00000  Uiso   1.00
C1300  C     0.57755   0.09020   0.38594   0.00000  Uiso   1.00
C1301  C     0.56917   0.05468   0.42009   0.00000  Uiso   1.00
C1302  C     0.62389   0.43399   0.40289   0.00000  Uiso   1.00
C1303  C     0.62458   0.43390   0.35220   0.00000  Uiso   1.00
C1304  C     0.59792   0.47064   0.66583   0.00000  Uiso   1.00
C1305  C     0.81574   0.11007   0.59488   0.00000  Uiso   1.00
C1306  C     0.82671   0.15001   0.62204   0.00000  Uiso   1.00
C1307  C     0.68885   0.44106   0.49999   0.00000  Uiso   1.00
C1308  C     0.78569   0.17668   0.62721   0.00000  Uiso   1.00
C1309  C     0.86133   0.07384   0.39864   0.00000  Uiso   1.00
C1310  C     0.90286   0.09255   0.37858   0.00000  Uiso   1.00
C1311  C     0.94327   0.08053   0.40579   0.00000  Uiso   1.00
C1312  C     0.68485   0.38931   0.59394   0.00000  Uiso   1.00
C1313  C     0.67622   0.34796   0.61998   0.00000  Uiso   1.00
C1314  C     0.71695   0.32025   0.61919   0.00000  Uiso   1.00
C1315  C     0.88563   0.44939   0.58710   0.00000  Uiso   1.00
C1316  C     0.90007   0.44951   0.63598   0.00000  Uiso   1.00
C1317  C     0.92597   0.48994   0.64625   0.00000  Uiso   1.00
C1318  C     0.81026   0.05974   0.50002   0.00000  Uiso   1.00
C1319  C     0.71529   0.14426   0.43719   0.00000  Uiso   1.00
C1320  C     0.74305   0.14921   0.39601   0.00000  Uiso   1.00
C1321  C     0.74984   0.10584   0.37339   0.00000  Uiso   1.00
C1322  C     0.61135   0.03067   0.55475   0.00000  Uiso   1.00
C1323  C     0.56191   0.03115   0.55733   0.00000  Uiso   1.00
C1324  C     0.54259   0.49641   0.52767   0.00000  Uiso   1.00
C1325  C     0.82187   0.36541   0.40262   0.00000  Uiso   1.00
C1326  C     0.78910   0.37619   0.36606   0.00000  Uiso   1.00
C1327  C     0.74595   0.39063   0.38470   0.00000  Uiso   1.00
C1328  C     0.51789   0.28313   0.35718   0.00000  Uiso   1.00
H1329  H     0.53254   0.30981   0.37479   0.00000  Uiso   1.00
H1330  H     0.82066   0.20594   0.45765   0.00000  Uiso   1.00
H1331  H     0.73517   0.12823   0.46367   0.00000  Uiso   1.00
H1332  H     0.70622   0.17703   0.44907   0.00000  Uiso   1.00
H1333  H     0.72664   0.17156   0.37251   0.00000  Uiso   1.00
H1334  H     0.77473   0.16338   0.40564   0.00000  Uiso   1.00
H1335  H     0.75462   0.08029   0.39866   0.00000  Uiso   1.00
H1336  H     0.77912   0.10655   0.35288   0.00000  Uiso   1.00
H1337  H     0.72145   0.09790   0.35195   0.00000  Uiso   1.00
H1338  H     0.62435   0.00353   0.57465   0.00000  Uiso   1.00
H1339  H     0.62093   0.02285   0.52000   0.00000  Uiso   1.00
H1340  H     0.55177   0.02575   0.59236   0.00000  Uiso   1.00
H1341  H     0.81884   0.23237   0.38266   0.00000  Uiso   1.00
H1342  H     0.54916   0.06264   0.54536   0.00000  Uiso   1.00
H1343  H     0.54691   0.00562   0.49240   0.00000  Uiso   1.00
H1344  H     0.50748   0.49276   0.53435   0.00000  Uiso   1.00
H1345  H     0.55966   0.46540   0.53311   0.00000  Uiso   1.00
H1346  H     0.80496   0.34671   0.42919   0.00000  Uiso   1.00
H1347  H     0.84712   0.34475   0.38776   0.00000  Uiso   1.00
H1348  H     0.80223   0.40080   0.34288   0.00000  Uiso   1.00
H1349  H     0.78300   0.34631   0.34749   0.00000  Uiso   1.00
H1350  H     0.73101   0.36424   0.40434   0.00000  Uiso   1.00
H1351  H     0.72389   0.39962   0.35694   0.00000  Uiso   1.00
H1352  H     0.82966   0.27713   0.41838   0.00000  Uiso   1.00
H1353  H     0.75051   0.41897   0.40606   0.00000  Uiso   1.00
H1354  H     0.91190   0.26279   0.40174   0.00000  Uiso   1.00
H1355  H     0.87987   0.28523   0.35780   0.00000  Uiso   1.00
H1356  H     0.89220   0.22870   0.35722   0.00000  Uiso   1.00
H1357  H     0.50449   0.35657   0.56385   0.00000  Uiso   1.00
H1358  H     0.52481   0.39938   0.53039   0.00000  Uiso   1.00
H1359  H     0.53559   0.44256   0.60158   0.00000  Uiso   1.00
H1360  H     0.98120   0.42947   0.58723   0.00000  Uiso   1.00
H1361  H     0.96326   0.19291   0.62524   0.00000  Uiso   1.00
H1362  H     0.98202   0.36900   0.64230   0.00000  Uiso   1.00
H1363  H     0.99482   0.42011   0.33389   0.00000  Uiso   1.00
H1364  H     0.53763   0.38206   0.65716   0.00000  Uiso   1.00
H1365  H     0.63327   0.27022   0.46517   0.00000  Uiso   1.00
H1366  H     0.67835   0.30468   0.45094   0.00000  Uiso   1.00
H1367  H     0.67675   0.28209   0.37459   0.00000  Uiso   1.00
H1368  H     0.67584   0.23496   0.40928   0.00000  Uiso   1.00
H1369  H     0.58954   0.24213   0.39893   0.00000  Uiso   1.00
H1370  H     0.62181   0.21820   0.35656   0.00000  Uiso   1.00
H1371  H     0.60487   0.27342   0.35038   0.00000  Uiso   1.00
H1372  H     0.96622   0.19085   0.37452   0.00000  Uiso   1.00
H1373  H     0.97083   0.08460   0.55398   0.00000  Uiso   1.00
H1374  H     0.92762   0.06726   0.58926   0.00000  Uiso   1.00
H1375  H     0.96088   0.11772   0.64965   0.00000  Uiso   1.00
H1376  H     0.98621   0.06639   0.63939   0.00000  Uiso   1.00
H1377  H     0.51739   0.14069   0.58309   0.00000  Uiso   1.00
H1378  H     0.54720   0.09858   0.61240   0.00000  Uiso   1.00
H1379  H     0.52855   0.14480   0.64139   0.00000  Uiso   1.00
H1380  H     0.59971   0.21012   0.61295   0.00000  Uiso   1.00
H1381  H     0.62743   0.20992   0.56118   0.00000  Uiso   1.00
H1382  H     0.65491   0.16441   0.64894   0.00000  Uiso   1.00
H1383  H     0.53515   0.30810   0.62551   0.00000  Uiso   1.00
H1384  H     0.68172   0.15561   0.59672   0.00000  Uiso   1.00
H1385  H     0.70609   0.22736   0.59105   0.00000  Uiso   1.00
H1386  H     0.71139   0.21724   0.65028   0.00000  Uiso   1.00
H1387  H     0.66645   0.24769   0.62955   0.00000  Uiso   1.00
H1388  H     0.98040   0.38017   0.39633   0.00000  Uiso   1.00
H1389  H     0.98137   0.37308   0.45476   0.00000  Uiso   1.00
H1390  H     0.93037   0.44638   0.40769   0.00000  Uiso   1.00
H1391  H     0.94025   0.44039   0.46656   0.00000  Uiso   1.00
H1392  H     0.52130   0.44410   0.45150   0.00000  Uiso   1.00
H1393  H     0.99053   0.49272   0.44097   0.00000  Uiso   1.00
H1394  H     0.68301   0.01324   0.37422   0.00000  Uiso   1.00
H1395  H     0.50767   0.46015   0.39509   0.00000  Uiso   1.00
H1396  H     0.90260   0.28613   0.61264   0.00000  Uiso   1.00
H1397  H     0.87578   0.28705   0.55966   0.00000  Uiso   1.00
H1398  H     0.84753   0.33388   0.64456   0.00000  Uiso   1.00
H1399  H     0.81967   0.33852   0.59192   0.00000  Uiso   1.00
H1400  H     0.79667   0.26686   0.59122   0.00000  Uiso   1.00
H1401  H     0.79266   0.27976   0.64985   0.00000  Uiso   1.00
H1402  H     0.83774   0.24904   0.63047   0.00000  Uiso   1.00
H1403  H     0.54890   0.15339   0.37684   0.00000  Uiso   1.00
H1404  H     0.53921   0.13174   0.42994   0.00000  Uiso   1.00
H1405  H     0.81709   0.48996   0.62611   0.00000  Uiso   1.00
H1406  H     0.55759   0.08278   0.35604   0.00000  Uiso   1.00
H1407  H     0.61202   0.08978   0.37570   0.00000  Uiso   1.00
H1408  H     0.58972   0.05874   0.45018   0.00000  Uiso   1.00
H1409  H     0.57626   0.02275   0.40563   0.00000  Uiso   1.00
H1410  H     0.53468   0.05518   0.43005   0.00000  Uiso   1.00
H1411  H     0.63272   0.46648   0.41549   0.00000  Uiso   1.00
H1412  H     0.58992   0.42682   0.41307   0.00000  Uiso   1.00
H1413  H     0.65834   0.43695   0.34061   0.00000  Uiso   1.00
H1414  H     0.61130   0.40284   0.34000   0.00000  Uiso   1.00
H1415  H     0.56419   0.46969   0.34469   0.00000  Uiso   1.00
H1416  H     0.81718   0.48742   0.37554   0.00000  Uiso   1.00
H1417  H     0.59724   0.46691   0.62936   0.00000  Uiso   1.00
H1418  H     0.61272   0.00224   0.34047   0.00000  Uiso   1.00
H1419  H     0.79657   0.08772   0.61576   0.00000  Uiso   1.00
H1420  H     0.79390   0.11961   0.56652   0.00000  Uiso   1.00
H1421  H     0.83974   0.14042   0.65524   0.00000  Uiso   1.00
H1422  H     0.85148   0.16981   0.60495   0.00000  Uiso   1.00
H1423  H     0.77951   0.19529   0.59617   0.00000  Uiso   1.00
H1424  H     0.78880   0.19841   0.65614   0.00000  Uiso   1.00
H1425  H     0.75707   0.15591   0.63244   0.00000  Uiso   1.00
H1426  H     0.84165   0.06112   0.37056   0.00000  Uiso   1.00
H1427  H     0.68279   0.01243   0.62459   0.00000  Uiso   1.00
H1428  H     0.86837   0.04558   0.42067   0.00000  Uiso   1.00
H1429  H     0.90635   0.07958   0.34456   0.00000  Uiso   1.00
H1430  H     0.90063   0.12798   0.37471   0.00000  Uiso   1.00
H1431  H     0.94004   0.08995   0.44122   0.00000  Uiso   1.00
H1432  H     0.97196   0.09710   0.39200   0.00000  Uiso   1.00
H1433  H     0.94871   0.04529   0.40411   0.00000  Uiso   1.00
H1434  H     0.70483   0.41102   0.61504   0.00000  Uiso   1.00
H1435  H     0.70553   0.38121   0.56473   0.00000  Uiso   1.00
H1436  H     0.66797   0.35564   0.65500   0.00000  Uiso   1.00
H1437  H     0.64891   0.32969   0.60490   0.00000  Uiso   1.00
H1438  H     0.86978   0.23524   0.47060   0.00000  Uiso   1.00
H1439  H     0.71754   0.30107   0.58805   0.00000  Uiso   1.00
H1440  H     0.71856   0.29899   0.64880   0.00000  Uiso   1.00
H1441  H     0.74626   0.34065   0.61919   0.00000  Uiso   1.00
H1442  H     0.86986   0.48046   0.57810   0.00000  Uiso   1.00
H1443  H     0.91505   0.44742   0.56586   0.00000  Uiso   1.00
H1444  H     0.87159   0.44816   0.65822   0.00000  Uiso   1.00
H1445  H     0.91986   0.42041   0.64301   0.00000  Uiso   1.00
H1446  H     0.95411   0.49287   0.62369   0.00000  Uiso   1.00
H1447  H     0.93804   0.48937   0.34774   0.00000  Uiso   1.00
H1448  H     0.90445   0.01816   0.64172   0.00000  Uiso   1.00
N1449  N     0.50000   0.25000   0.61907   0.00000  Uiso   1.00
N1450  N     0.50000   0.25000   0.38093   0.00000  Uiso   1.00
N1451  N     0.75000   0.00000   0.61907   0.00000  Uiso   1.00
N1452  N     0.75000   0.00000   0.38093   0.00000  Uiso   1.00
O1453  O     0.54580   0.20419   0.53821   0.00000  Uiso   1.00
O1454  O     0.70419   0.04581   0.46179   0.00000  Uiso   1.00
O1455  O     0.70419   0.04581   0.53821   0.00000  Uiso   1.00
O1456  O     0.79580   0.45419   0.46179   0.00000  Uiso   1.00
O1457  O     0.70419   0.45419   0.46179   0.00000  Uiso   1.00
O1458  O     0.79580   0.04581   0.53821   0.00000  Uiso   1.00
O1459  O     0.79580   0.04581   0.46179   0.00000  Uiso   1.00
O1460  O     0.70419   0.45419   0.53821   0.00000  Uiso   1.00
O1461  O     0.87782   0.18158   0.42976   0.00000  Uiso   1.00
O1462  O     0.56983   0.36854   0.57509   0.00000  Uiso   1.00
O1463  O     0.61710   0.32432   0.42688   0.00000  Uiso   1.00
O1464  O     0.95419   0.29581   0.46179   0.00000  Uiso   1.00
O1465  O     0.92911   0.13353   0.57504   0.00000  Uiso   1.00
O1466  O     0.59684   0.15194   0.58162   0.00000  Uiso   1.00
O1467  O     0.92173   0.36272   0.42159   0.00000  Uiso   1.00
O1468  O     0.90607   0.34476   0.58178   0.00000  Uiso   1.00
O1469  O     0.60070   0.15948   0.41831   0.00000  Uiso   1.00
O1470  O     0.65444   0.40348   0.41900   0.00000  Uiso   1.00
O1471  O     0.85332   0.08771   0.58135   0.00000  Uiso   1.00
O1472  O     0.83577   0.10554   0.41988   0.00000  Uiso   1.00
O1473  O     0.64627   0.41157   0.58198   0.00000  Uiso   1.00
O1474  O     0.85558   0.41561   0.58046   0.00000  Uiso   1.00
O1475  O     0.95419   0.29581   0.53821   0.00000  Uiso   1.00
O1476  O     0.67846   0.11935   0.42617   0.00000  Uiso   1.00
O1477  O     0.62959   0.06948   0.57158   0.00000  Uiso   1.00
O1478  O     0.84159   0.40314   0.41927   0.00000  Uiso   1.00
O1479  O     0.54580   0.20419   0.46179   0.00000  Uiso   1.00
O1480  O     0.95419   0.20419   0.46179   0.00000  Uiso   1.00
O1481  O     0.54580   0.29581   0.53821   0.00000  Uiso   1.00
O1482  O     0.54580   0.29581   0.46179   0.00000  Uiso   1.00
O1483  O     0.95419   0.20419   0.53821   0.00000  Uiso   1.00
O1484  O     0.79580   0.45419   0.53821   0.00000  Uiso   1.00
Zn1485 Zn    0.50000   0.25000   0.55104   0.00000  Uiso   1.00
Zn1486 Zn    0.50000   0.25000   0.44896   0.00000  Uiso   1.00
Zn1487 Zn    0.75000   0.00000   0.55104   0.00000  Uiso   1.00
Zn1488 Zn    0.75000   0.00000   0.44896   0.00000  Uiso   1.00
C1489  C     0.06031   0.69019   0.50009   0.00000  Uiso   1.00
C1490  C     0.48008   0.71811   0.64284   0.00000  Uiso   1.00
C1491  C     0.48127   0.71733   0.35704   0.00000  Uiso   1.00
C1492  C     0.01901   0.78246   0.64297   0.00000  Uiso   1.00
C1493  C     0.21279   0.50698   0.35677   0.00000  Uiso   1.00
C1494  C     0.28720   0.99388   0.64336   0.00000  Uiso   1.00
C1495  C     0.28719   0.99321   0.35756   0.00000  Uiso   1.00
C1496  C     0.21275   0.50681   0.64249   0.00000  Uiso   1.00
C1497  C     0.37965   0.65169   0.46381   0.00000  Uiso   1.00
C1498  C     0.09649   0.87110   0.53824   0.00000  Uiso   1.00
C1499  C     0.11565   0.85280   0.46210   0.00000  Uiso   1.00
C1500  C     0.44107   0.81088   0.49999   0.00000  Uiso   1.00
C1501  C     0.40217   0.62971   0.53824   0.00000  Uiso   1.00
C1502  C     0.10781   0.63704   0.54002   0.00000  Uiso   1.00
C1503  C     0.39786   0.86646   0.46026   0.00000  Uiso   1.00
C1504  C     0.39316   0.86130   0.54092   0.00000  Uiso   1.00
C1505  C     0.11427   0.64512   0.45976   0.00000  Uiso   1.00
C1506  C     0.14096   0.88940   0.46021   0.00000  Uiso   1.00
C1507  C     0.36593   0.60319   0.54012   0.00000  Uiso   1.00
C1508  C     0.35401   0.61531   0.46075   0.00000  Uiso   1.00
C1509  C     0.13258   0.89768   0.54038   0.00000  Uiso   1.00
C1510  C     0.36466   0.89575   0.54053   0.00000  Uiso   1.00
C1511  C     0.44045   0.68970   0.50014   0.00000  Uiso   1.00
C1512  C     0.15124   0.61998   0.46211   0.00000  Uiso   1.00
C1513  C     0.13182   0.59950   0.53732   0.00000  Uiso   1.00
C1514  C     0.36125   0.89272   0.45959   0.00000  Uiso   1.00
C1515  C     0.09069   0.84511   0.50019   0.00000  Uiso   1.00
C1516  C     0.40725   0.65660   0.50078   0.00000  Uiso   1.00
C1517  C     0.41030   0.84638   0.50040   0.00000  Uiso   1.00
C1518  C     0.09423   0.65729   0.49997   0.00000  Uiso   1.00
C1519  C     0.34393   0.59266   0.50012   0.00000  Uiso   1.00
C1520  C     0.15362   0.90950   0.50020   0.00000  Uiso   1.00
C1521  C     0.15803   0.59387   0.49976   0.00000  Uiso   1.00
C1522  C     0.05939   0.81035   0.50009   0.00000  Uiso   1.00
C1523  C     0.34552   0.90909   0.50009   0.00000  Uiso   1.00
C1524  C     0.35243   0.71672   0.44419   0.00000  Uiso   1.00
C1525  C     0.34337   0.74693   0.40511   0.00000  Uiso   1.00
C1526  C     0.38437   0.75648   0.37895   0.00000  Uiso   1.00
C1527  C     0.02761   0.88373   0.56392   0.00000  Uiso   1.00
C1528  C     0.01240   0.91580   0.59862   0.00000  Uiso   1.00
C1529  C     0.00650   0.89510   0.64412   0.00000  Uiso   1.00
C1530  C     0.14691   0.79128   0.43864   0.00000  Uiso   1.00
C1531  C     0.15676   0.76343   0.39822   0.00000  Uiso   1.00
C1532  C     0.11560   0.74845   0.37467   0.00000  Uiso   1.00
C1533  C     0.31048   0.94051   0.50010   0.00000  Uiso   1.00
C1534  C     0.45058   0.59387   0.58303   0.00000  Uiso   1.00
C1535  C     0.47870   0.59854   0.62475   0.00000  Uiso   1.00
C1536  C     0.02034   0.62199   0.61456   0.00000  Uiso   1.00
C1537  C     0.12027   0.68981   0.59121   0.00000  Uiso   1.00
C1538  C     0.16229   0.67911   0.61603   0.00000  Uiso   1.00
C1539  C     0.18825   0.72025   0.62216   0.00000  Uiso   1.00
C1540  C     0.46119   0.88572   0.42668   0.00000  Uiso   1.00
C1541  C     0.45391   0.93436   0.43297   0.00000  Uiso   1.00
C1542  C     0.49612   0.95922   0.42984   0.00000  Uiso   1.00
C1543  C     0.38244   0.80668   0.59016   0.00000  Uiso   1.00
C1544  C     0.19095   0.56062   0.49983   0.00000  Uiso   1.00
C1545  C     0.34002   0.81698   0.61306   0.00000  Uiso   1.00
C1546  C     0.31520   0.77567   0.62174   0.00000  Uiso   1.00
C1547  C     0.06461   0.63481   0.40397   0.00000  Uiso   1.00
C1548  C     0.07755   0.59020   0.38594   0.00000  Uiso   1.00
C1549  C     0.06917   0.55468   0.42009   0.00000  Uiso   1.00
C1550  C     0.12389   0.93399   0.40289   0.00000  Uiso   1.00
C1551  C     0.12458   0.93390   0.35220   0.00000  Uiso   1.00
C1552  C     0.09792   0.97064   0.66583   0.00000  Uiso   1.00
C1553  C     0.31574   0.61007   0.59488   0.00000  Uiso   1.00
C1554  C     0.32671   0.65001   0.62204   0.00000  Uiso   1.00
C1555  C     0.18885   0.94106   0.49999   0.00000  Uiso   1.00
C1556  C     0.28569   0.67668   0.62721   0.00000  Uiso   1.00
C1557  C     0.36133   0.57384   0.39864   0.00000  Uiso   1.00
C1558  C     0.40286   0.59255   0.37858   0.00000  Uiso   1.00
C1559  C     0.44327   0.58053   0.40579   0.00000  Uiso   1.00
C1560  C     0.18485   0.88931   0.59394   0.00000  Uiso   1.00
C1561  C     0.17622   0.84796   0.61998   0.00000  Uiso   1.00
C1562  C     0.21695   0.82025   0.61919   0.00000  Uiso   1.00
C1563  C     0.38563   0.94939   0.58710   0.00000  Uiso   1.00
C1564  C     0.40007   0.94951   0.63598   0.00000  Uiso   1.00
C1565  C     0.42597   0.98994   0.64625   0.00000  Uiso   1.00
C1566  C     0.31026   0.55974   0.50002   0.00000  Uiso   1.00
C1567  C     0.21529   0.64426   0.43719   0.00000  Uiso   1.00
C1568  C     0.24305   0.64921   0.39601   0.00000  Uiso   1.00
C1569  C     0.24984   0.60584   0.37339   0.00000  Uiso   1.00
C1570  C     0.11135   0.53067   0.55475   0.00000  Uiso   1.00
C1571  C     0.06191   0.53115   0.55733   0.00000  Uiso   1.00
C1572  C     0.04259   0.99641   0.52767   0.00000  Uiso   1.00
C1573  C     0.32187   0.86541   0.40262   0.00000  Uiso   1.00
C1574  C     0.28910   0.87619   0.36606   0.00000  Uiso   1.00
C1575  C     0.24595   0.89063   0.38470   0.00000  Uiso   1.00
C1576  C     0.01789   0.78313   0.35718   0.00000  Uiso   1.00
H1577  H     0.03254   0.80981   0.37479   0.00000  Uiso   1.00
H1578  H     0.32066   0.70594   0.45765   0.00000  Uiso   1.00
H1579  H     0.23517   0.62823   0.46367   0.00000  Uiso   1.00
H1580  H     0.20622   0.67703   0.44907   0.00000  Uiso   1.00
H1581  H     0.22664   0.67156   0.37251   0.00000  Uiso   1.00
H1582  H     0.27473   0.66338   0.40564   0.00000  Uiso   1.00
H1583  H     0.25462   0.58029   0.39866   0.00000  Uiso   1.00
H1584  H     0.27912   0.60655   0.35288   0.00000  Uiso   1.00
H1585  H     0.22145   0.59790   0.35195   0.00000  Uiso   1.00
H1586  H     0.12435   0.50353   0.57465   0.00000  Uiso   1.00
H1587  H     0.12093   0.52285   0.52000   0.00000  Uiso   1.00
H1588  H     0.05177   0.52575   0.59236   0.00000  Uiso   1.00
H1589  H     0.31884   0.73237   0.38266   0.00000  Uiso   1.00
H1590  H     0.04916   0.56264   0.54536   0.00000  Uiso   1.00
H1591  H     0.04691   0.50562   0.49240   0.00000  Uiso   1.00
H1592  H     0.00748   0.99276   0.53435   0.00000  Uiso   1.00
H1593  H     0.05966   0.96540   0.53311   0.00000  Uiso   1.00
H1594  H     0.30496   0.84671   0.42919   0.00000  Uiso   1.00
H1595  H     0.34712   0.84475   0.38776   0.00000  Uiso   1.00
H1596  H     0.30223   0.90080   0.34288   0.00000  Uiso   1.00
H1597  H     0.28300   0.84631   0.34749   0.00000  Uiso   1.00
H1598  H     0.23101   0.86424   0.40434   0.00000  Uiso   1.00
H1599  H     0.22389   0.89962   0.35694   0.00000  Uiso   1.00
H1600  H     0.32966   0.77713   0.41838   0.00000  Uiso   1.00
H1601  H     0.25051   0.91897   0.40606   0.00000  Uiso   1.00
H1602  H     0.41190   0.76279   0.40174   0.00000  Uiso   1.00
H1603  H     0.37987   0.78523   0.35780   0.00000  Uiso   1.00
H1604  H     0.39220   0.72870   0.35722   0.00000  Uiso   1.00
H1605  H     0.00449   0.85657   0.56385   0.00000  Uiso   1.00
H1606  H     0.02481   0.89938   0.53039   0.00000  Uiso   1.00
H1607  H     0.03559   0.94256   0.60158   0.00000  Uiso   1.00
H1608  H     0.48120   0.92947   0.58723   0.00000  Uiso   1.00
H1609  H     0.46326   0.69291   0.62524   0.00000  Uiso   1.00
H1610  H     0.48202   0.86900   0.64230   0.00000  Uiso   1.00
H1611  H     0.49482   0.92011   0.33389   0.00000  Uiso   1.00
H1612  H     0.03763   0.88206   0.65716   0.00000  Uiso   1.00
H1613  H     0.13327   0.77022   0.46517   0.00000  Uiso   1.00
H1614  H     0.17835   0.80468   0.45094   0.00000  Uiso   1.00
H1615  H     0.17675   0.78209   0.37459   0.00000  Uiso   1.00
H1616  H     0.17584   0.73496   0.40928   0.00000  Uiso   1.00
H1617  H     0.08954   0.74213   0.39893   0.00000  Uiso   1.00
H1618  H     0.12181   0.71820   0.35656   0.00000  Uiso   1.00
H1619  H     0.10487   0.77342   0.35038   0.00000  Uiso   1.00
H1620  H     0.46622   0.69085   0.37452   0.00000  Uiso   1.00
H1621  H     0.47083   0.58460   0.55398   0.00000  Uiso   1.00
H1622  H     0.42762   0.56726   0.58926   0.00000  Uiso   1.00
H1623  H     0.46088   0.61772   0.64965   0.00000  Uiso   1.00
H1624  H     0.48621   0.56639   0.63939   0.00000  Uiso   1.00
H1625  H     0.01739   0.64069   0.58309   0.00000  Uiso   1.00
H1626  H     0.04720   0.59858   0.61240   0.00000  Uiso   1.00
H1627  H     0.02855   0.64480   0.64139   0.00000  Uiso   1.00
H1628  H     0.09971   0.71012   0.61295   0.00000  Uiso   1.00
H1629  H     0.12743   0.70992   0.56118   0.00000  Uiso   1.00
H1630  H     0.15491   0.66441   0.64894   0.00000  Uiso   1.00
H1631  H     0.03515   0.80810   0.62551   0.00000  Uiso   1.00
H1632  H     0.18172   0.65561   0.59672   0.00000  Uiso   1.00
H1633  H     0.20609   0.72736   0.59105   0.00000  Uiso   1.00
H1634  H     0.21139   0.71724   0.65028   0.00000  Uiso   1.00
H1635  H     0.16645   0.74769   0.62955   0.00000  Uiso   1.00
H1636  H     0.48040   0.88017   0.39633   0.00000  Uiso   1.00
H1637  H     0.48137   0.87308   0.45476   0.00000  Uiso   1.00
H1638  H     0.43037   0.94638   0.40769   0.00000  Uiso   1.00
H1639  H     0.44025   0.94039   0.46656   0.00000  Uiso   1.00
H1640  H     0.02130   0.94410   0.45150   0.00000  Uiso   1.00
H1641  H     0.49053   0.99272   0.44097   0.00000  Uiso   1.00
H1642  H     0.18301   0.51324   0.37422   0.00000  Uiso   1.00
H1643  H     0.00767   0.96015   0.39509   0.00000  Uiso   1.00
H1644  H     0.40260   0.78613   0.61264   0.00000  Uiso   1.00
H1645  H     0.37578   0.78705   0.55966   0.00000  Uiso   1.00
H1646  H     0.34753   0.83388   0.64456   0.00000  Uiso   1.00
H1647  H     0.31967   0.83852   0.59192   0.00000  Uiso   1.00
H1648  H     0.29667   0.76686   0.59122   0.00000  Uiso   1.00
H1649  H     0.29266   0.77976   0.64985   0.00000  Uiso   1.00
H1650  H     0.33774   0.74904   0.63047   0.00000  Uiso   1.00
H1651  H     0.04890   0.65339   0.37684   0.00000  Uiso   1.00
H1652  H     0.03921   0.63174   0.42994   0.00000  Uiso   1.00
H1653  H     0.31709   0.98996   0.62611   0.00000  Uiso   1.00
H1654  H     0.05759   0.58278   0.35604   0.00000  Uiso   1.00
H1655  H     0.11202   0.58978   0.37570   0.00000  Uiso   1.00
H1656  H     0.08972   0.55874   0.45018   0.00000  Uiso   1.00
H1657  H     0.07626   0.52275   0.40563   0.00000  Uiso   1.00
H1658  H     0.03468   0.55518   0.43005   0.00000  Uiso   1.00
H1659  H     0.13272   0.96648   0.41549   0.00000  Uiso   1.00
H1660  H     0.08992   0.92682   0.41307   0.00000  Uiso   1.00
H1661  H     0.15834   0.93695   0.34061   0.00000  Uiso   1.00
H1662  H     0.11130   0.90284   0.34000   0.00000  Uiso   1.00
H1663  H     0.06419   0.96969   0.34469   0.00000  Uiso   1.00
H1664  H     0.31718   0.98742   0.37554   0.00000  Uiso   1.00
H1665  H     0.09724   0.96691   0.62936   0.00000  Uiso   1.00
H1666  H     0.11272   0.50224   0.34047   0.00000  Uiso   1.00
H1667  H     0.29657   0.58772   0.61576   0.00000  Uiso   1.00
H1668  H     0.29390   0.61961   0.56652   0.00000  Uiso   1.00
H1669  H     0.33974   0.64042   0.65524   0.00000  Uiso   1.00
H1670  H     0.35148   0.66981   0.60495   0.00000  Uiso   1.00
H1671  H     0.27951   0.69529   0.59617   0.00000  Uiso   1.00
H1672  H     0.28880   0.69841   0.65614   0.00000  Uiso   1.00
H1673  H     0.25707   0.65591   0.63244   0.00000  Uiso   1.00
H1674  H     0.34165   0.56112   0.37056   0.00000  Uiso   1.00
H1675  H     0.18279   0.51243   0.62459   0.00000  Uiso   1.00
H1676  H     0.36837   0.54558   0.42067   0.00000  Uiso   1.00
H1677  H     0.40635   0.57958   0.34456   0.00000  Uiso   1.00
H1678  H     0.40063   0.62798   0.37471   0.00000  Uiso   1.00
H1679  H     0.44004   0.58995   0.44122   0.00000  Uiso   1.00
H1680  H     0.47196   0.59710   0.39200   0.00000  Uiso   1.00
H1681  H     0.44871   0.54529   0.40411   0.00000  Uiso   1.00
H1682  H     0.20483   0.91102   0.61504   0.00000  Uiso   1.00
H1683  H     0.20553   0.88121   0.56473   0.00000  Uiso   1.00
H1684  H     0.16797   0.85564   0.65500   0.00000  Uiso   1.00
H1685  H     0.14891   0.82969   0.60490   0.00000  Uiso   1.00
H1686  H     0.36978   0.73524   0.47060   0.00000  Uiso   1.00
H1687  H     0.21754   0.80107   0.58805   0.00000  Uiso   1.00
H1688  H     0.21856   0.79899   0.64880   0.00000  Uiso   1.00
H1689  H     0.24626   0.84065   0.61919   0.00000  Uiso   1.00
H1690  H     0.36986   0.98046   0.57810   0.00000  Uiso   1.00
H1691  H     0.41505   0.94742   0.56586   0.00000  Uiso   1.00
H1692  H     0.37159   0.94816   0.65822   0.00000  Uiso   1.00
H1693  H     0.41986   0.92041   0.64301   0.00000  Uiso   1.00
H1694  H     0.45411   0.99287   0.62369   0.00000  Uiso   1.00
H1695  H     0.43804   0.98937   0.34774   0.00000  Uiso   1.00
H1696  H     0.40445   0.51816   0.64172   0.00000  Uiso   1.00
N1697  N     0.00000   0.75000   0.61907   0.00000  Uiso   1.00
N1698  N    -0.00000   0.75000   0.38093   0.00000  Uiso   1.00
N1699  N     0.25000   0.50000   0.61907   0.00000  Uiso   1.00
N1700  N     0.25000   0.50000   0.38093   0.00000  Uiso   1.00
O1701  O     0.04580   0.70419   0.53821   0.00000  Uiso   1.00
O1702  O     0.20419   0.54581   0.46179   0.00000  Uiso   1.00
O1703  O     0.20419   0.54581   0.53821   0.00000  Uiso   1.00
O1704  O     0.29580   0.95419   0.46179   0.00000  Uiso   1.00
O1705  O     0.20419   0.95419   0.46179   0.00000  Uiso   1.00
O1706  O     0.29580   0.54581   0.53821   0.00000  Uiso   1.00
O1707  O     0.29580   0.54581   0.46179   0.00000  Uiso   1.00
O1708  O     0.20419   0.95419   0.53821   0.00000  Uiso   1.00
O1709  O     0.37782   0.68158   0.42976   0.00000  Uiso   1.00
O1710  O     0.06983   0.86854   0.57509   0.00000  Uiso   1.00
O1711  O     0.11710   0.82432   0.42688   0.00000  Uiso   1.00
O1712  O     0.45419   0.79581   0.46179   0.00000  Uiso   1.00
O1713  O     0.42911   0.63353   0.57504   0.00000  Uiso   1.00
O1714  O     0.09684   0.65194   0.58162   0.00000  Uiso   1.00
O1715  O     0.42173   0.86272   0.42159   0.00000  Uiso   1.00
O1716  O     0.40607   0.84476   0.58178   0.00000  Uiso   1.00
O1717  O     0.10070   0.65948   0.41831   0.00000  Uiso   1.00
O1718  O     0.15444   0.90348   0.41900   0.00000  Uiso   1.00
O1719  O     0.35332   0.58771   0.58135   0.00000  Uiso   1.00
O1720  O     0.33577   0.60554   0.41988   0.00000  Uiso   1.00
O1721  O     0.14627   0.91157   0.58198   0.00000  Uiso   1.00
O1722  O     0.35558   0.91561   0.58046   0.00000  Uiso   1.00
O1723  O     0.45419   0.79581   0.53821   0.00000  Uiso   1.00
O1724  O     0.17846   0.61935   0.42617   0.00000  Uiso   1.00
O1725  O     0.12959   0.56948   0.57158   0.00000  Uiso   1.00
O1726  O     0.34159   0.90314   0.41927   0.00000  Uiso   1.00
O1727  O     0.04580   0.70419   0.46179   0.00000  Uiso   1.00
O1728  O     0.45419   0.70419   0.46179   0.00000  Uiso   1.00
O1729  O     0.04580   0.79581   0.53821   0.00000  Uiso   1.00
O1730  O     0.04580   0.79581   0.46179   0.00000  Uiso   1.00
O1731  O     0.45419   0.70419   0.53821   0.00000  Uiso   1.00
O1732  O     0.29580   0.95419   0.53821   0.00000  Uiso   1.00
Zn1733 Zn    0.00000   0.75000   0.55104   0.00000  Uiso   1.00
Zn1734 Zn   -0.00000   0.75000   0.44896   0.00000  Uiso   1.00
Zn1735 Zn    0.25000   0.50000   0.55104   0.00000  Uiso   1.00
Zn1736 Zn    0.25000   0.50000   0.44896   0.00000  Uiso   1.00
C1737  C     0.56031   0.69019   0.50009   0.00000  Uiso   1.00
C1738  C     0.98008   0.71811   0.64284   0.00000  Uiso   1.00
C1739  C     0.98127   0.71733   0.35704   0.00000  Uiso   1.00
C1740  C     0.51901   0.78246   0.64297   0.00000  Uiso   1.00
C1741  C     0.71279   0.50698   0.35677   0.00000  Uiso   1.00
C1742  C     0.78720   0.99388   0.64336   0.00000  Uiso   1.00
C1743  C     0.78719   0.99321   0.35756   0.00000  Uiso   1.00
C1744  C     0.71275   0.50681   0.64249   0.00000  Uiso   1.00
C1745  C     0.87965   0.65169   0.46381   0.00000  Uiso   1.00
C1746  C     0.59649   0.87110   0.53824   0.00000  Uiso   1.00
C1747  C     0.61565   0.85280   0.46210   0.00000  Uiso   1.00
C1748  C     0.94107   0.81088   0.49999   0.00000  Uiso   1.00
C1749  C     0.90217   0.62971   0.53824   0.00000  Uiso   1.00
C1750  C     0.60781   0.63704   0.54002   0.00000  Uiso   1.00
C1751  C     0.89786   0.86646   0.46026   0.00000  Uiso   1.00
C1752  C     0.89316   0.86130   0.54092   0.00000  Uiso   1.00
C1753  C     0.61427   0.64512   0.45976   0.00000  Uiso   1.00
C1754  C     0.64096   0.88940   0.46021   0.00000  Uiso   1.00
C1755  C     0.86593   0.60319   0.54012   0.00000  Uiso   1.00
C1756  C     0.85401   0.61531   0.46075   0.00000  Uiso   1.00
C1757  C     0.63258   0.89768   0.54038   0.00000  Uiso   1.00
C1758  C     0.86466   0.89575   0.54053   0.00000  Uiso   1.00
C1759  C     0.94045   0.68970   0.50014   0.00000  Uiso   1.00
C1760  C     0.65124   0.61998   0.46211   0.00000  Uiso   1.00
C1761  C     0.63182   0.59950   0.53732   0.00000  Uiso   1.00
C1762  C     0.86125   0.89272   0.45959   0.00000  Uiso   1.00
C1763  C     0.59069   0.84511   0.50019   0.00000  Uiso   1.00
C1764  C     0.90725   0.65660   0.50078   0.00000  Uiso   1.00
C1765  C     0.91030   0.84638   0.50040   0.00000  Uiso   1.00
C1766  C     0.59423   0.65729   0.49997   0.00000  Uiso   1.00
C1767  C     0.84393   0.59266   0.50012   0.00000  Uiso   1.00
C1768  C     0.65362   0.90950   0.50020   0.00000  Uiso   1.00
C1769  C     0.65803   0.59387   0.49976   0.00000  Uiso   1.00
C1770  C     0.55939   0.81035   0.50009   0.00000  Uiso   1.00
C1771  C     0.84552   0.90909   0.50009   0.00000  Uiso   1.00
C1772  C     0.85243   0.71672   0.44419   0.00000  Uiso   1.00
C1773  C     0.84337   0.74693   0.40511   0.00000  Uiso   1.00
C1774  C     0.88437   0.75648   0.37895   0.00000  Uiso   1.00
C1775  C     0.52761   0.88373   0.56392   0.00000  Uiso   1.00
C1776  C     0.51240   0.91580   0.59862   0.00000  Uiso   1.00
C1777  C     0.50650   0.89510   0.64412   0.00000  Uiso   1.00
C1778  C     0.64691   0.79128   0.43864   0.00000  Uiso   1.00
C1779  C     0.65676   0.76343   0.39822   0.00000  Uiso   1.00
C1780  C     0.61560   0.74845   0.37467   0.00000  Uiso   1.00
C1781  C     0.81048   0.94051   0.50010   0.00000  Uiso   1.00
C1782  C     0.95058   0.59387   0.58303   0.00000  Uiso   1.00
C1783  C     0.97870   0.59854   0.62475   0.00000  Uiso   1.00
C1784  C     0.52034   0.62199   0.61456   0.00000  Uiso   1.00
C1785  C     0.62027   0.68981   0.59121   0.00000  Uiso   1.00
C1786  C     0.66229   0.67911   0.61603   0.00000  Uiso   1.00
C1787  C     0.68825   0.72025   0.62216   0.00000  Uiso   1.00
C1788  C     0.96119   0.88572   0.42668   0.00000  Uiso   1.00
C1789  C     0.95391   0.93436   0.43297   0.00000  Uiso   1.00
C1790  C     0.99612   0.95922   0.42984   0.00000  Uiso   1.00
C1791  C     0.88244   0.80668   0.59016   0.00000  Uiso   1.00
C1792  C     0.69095   0.56062   0.49983   0.00000  Uiso   1.00
C1793  C     0.84002   0.81698   0.61306   0.00000  Uiso   1.00
C1794  C     0.81520   0.77567   0.62174   0.00000  Uiso   1.00
C1795  C     0.56461   0.63481   0.40397   0.00000  Uiso   1.00
C1796  C     0.57755   0.59020   0.38594   0.00000  Uiso   1.00
C1797  C     0.56917   0.55468   0.42009   0.00000  Uiso   1.00
C1798  C     0.62389   0.93399   0.40289   0.00000  Uiso   1.00
C1799  C     0.62458   0.93390   0.35220   0.00000  Uiso   1.00
C1800  C     0.59792   0.97064   0.66583   0.00000  Uiso   1.00
C1801  C     0.81574   0.61007   0.59488   0.00000  Uiso   1.00
C1802  C     0.82671   0.65001   0.62204   0.00000  Uiso   1.00
C1803  C     0.68885   0.94106   0.49999   0.00000  Uiso   1.00
C1804  C     0.78569   0.67668   0.62721   0.00000  Uiso   1.00
C1805  C     0.86133   0.57384   0.39864   0.00000  Uiso   1.00
C1806  C     0.90286   0.59255   0.37858   0.00000  Uiso   1.00
C1807  C     0.94327   0.58053   0.40579   0.00000  Uiso   1.00
C1808  C     0.68485   0.88931   0.59394   0.00000  Uiso   1.00
C1809  C     0.67622   0.84796   0.61998   0.00000  Uiso   1.00
C1810  C     0.71695   0.82025   0.61919   0.00000  Uiso   1.00
C1811  C     0.88563   0.94939   0.58710   0.00000  Uiso   1.00
C1812  C     0.90007   0.94951   0.63598   0.00000  Uiso   1.00
C1813  C     0.92597   0.98994   0.64625   0.00000  Uiso   1.00
C1814  C     0.81026   0.55974   0.50002   0.00000  Uiso   1.00
C1815  C     0.71529   0.64426   0.43719   0.00000  Uiso   1.00
C1816  C     0.74305   0.64921   0.39601   0.00000  Uiso   1.00
C1817  C     0.74984   0.60584   0.37339   0.00000  Uiso   1.00
C1818  C     0.61135   0.53067   0.55475   0.00000  Uiso   1.00
C1819  C     0.56191   0.53115   0.55733   0.00000  Uiso   1.00
C1820  C     0.54259   0.99641   0.52767   0.00000  Uiso   1.00
C1821  C     0.82187   0.86541   0.40262   0.00000  Uiso   1.00
C1822  C     0.78910   0.87619   0.36606   0.00000  Uiso   1.00
C1823  C     0.74595   0.89063   0.38470   0.00000  Uiso   1.00
C1824  C     0.51789   0.78313   0.35718   0.00000  Uiso   1.00
H1825  H     0.53254   0.80981   0.37479   0.00000  Uiso   1.00
H1826  H     0.82066   0.70594   0.45765   0.00000  Uiso   1.00
H1827  H     0.73517   0.62823   0.46367   0.00000  Uiso   1.00
H1828  H     0.70622   0.67703   0.44907   0.00000  Uiso   1.00
H1829  H     0.72664   0.67156   0.37251   0.00000  Uiso   1.00
H1830  H     0.77473   0.66338   0.40564   0.00000  Uiso   1.00
H1831  H     0.75462   0.58029   0.39866   0.00000  Uiso   1.00
H1832  H     0.77912   0.60655   0.35288   0.00000  Uiso   1.00
H1833  H     0.72145   0.59790   0.35195   0.00000  Uiso   1.00
H1834  H     0.62435   0.50353   0.57465   0.00000  Uiso   1.00
H1835  H     0.62093   0.52285   0.52000   0.00000  Uiso   1.00
H1836  H     0.55177   0.52575   0.59236   0.00000  Uiso   1.00
H1837  H     0.81884   0.73237   0.38266   0.00000  Uiso   1.00
H1838  H     0.54916   0.56264   0.54536   0.00000  Uiso   1.00
H1839  H     0.54691   0.50562   0.49240   0.00000  Uiso   1.00
H1840  H     0.50748   0.99276   0.53435   0.00000  Uiso   1.00
H1841  H     0.55966   0.96540   0.53311   0.00000  Uiso   1.00
H1842  H     0.80496   0.84671   0.42919   0.00000  Uiso   1.00
H1843  H     0.84712   0.84475   0.38776   0.00000  Uiso   1.00
H1844  H     0.80223   0.90080   0.34288   0.00000  Uiso   1.00
H1845  H     0.78300   0.84631   0.34749   0.00000  Uiso   1.00
H1846  H     0.73101   0.86424   0.40434   0.00000  Uiso   1.00
H1847  H     0.72389   0.89962   0.35694   0.00000  Uiso   1.00
H1848  H     0.82966   0.77713   0.41838   0.00000  Uiso   1.00
H1849  H     0.75051   0.91897   0.40606   0.00000  Uiso   1.00
H1850  H     0.91190   0.76279   0.40174   0.00000  Uiso   1.00
H1851  H     0.87987   0.78523   0.35780   0.00000  Uiso   1.00
H1852  H     0.89220   0.72870   0.35722   0.00000  Uiso   1.00
H1853  H     0.50449   0.85657   0.56385   0.00000  Uiso   1.00
H1854  H     0.52481   0.89938   0.53039   0.00000  Uiso   1.00
H1855  H     0.53559   0.94256   0.60158   0.00000  Uiso   1.00
H1856  H     0.98120   0.92947   0.58723   0.00000  Uiso   1.00
H1857  H     0.96326   0.69291   0.62524   0.00000  Uiso   1.00
H1858  H     0.98202   0.86900   0.64230   0.00000  Uiso   1.00
H1859  H     0.99482   0.92011   0.33389   0.00000  Uiso   1.00
H1860  H     0.53763   0.88206   0.65716   0.00000  Uiso   1.00
H1861  H     0.63327   0.77022   0.46517   0.00000  Uiso   1.00
H1862  H     0.67835   0.80468   0.45094   0.00000  Uiso   1.00
H1863  H     0.67675   0.78209   0.37459   0.00000  Uiso   1.00
H1864  H     0.67584   0.73496   0.40928   0.00000  Uiso   1.00
H1865  H     0.58954   0.74213   0.39893   0.00000  Uiso   1.00
H1866  H     0.62181   0.71820   0.35656   0.00000  Uiso   1.00
H1867  H     0.60487   0.77342   0.35038   0.00000  Uiso   1.00
H1868  H     0.96622   0.69085   0.37452   0.00000  Uiso   1.00
H1869  H     0.97083   0.58460   0.55398   0.00000  Uiso   1.00
H1870  H     0.92762   0.56726   0.58926   0.00000  Uiso   1.00
H1871  H     0.96088   0.61772   0.64965   0.00000  Uiso   1.00
H1872  H     0.98621   0.56639   0.63939   0.00000  Uiso   1.00
H1873  H     0.51739   0.64069   0.58309   0.00000  Uiso   1.00
H1874  H     0.54720   0.59858   0.61240   0.00000  Uiso   1.00
H1875  H     0.52855   0.64480   0.64139   0.00000  Uiso   1.00
H1876  H     0.59971   0.71012   0.61295   0.00000  Uiso   1.00
H1877  H     0.62743   0.70992   0.56118   0.00000  Uiso   1.00
H1878  H     0.65491   0.66441   0.64894   0.00000  Uiso   1.00
H1879  H     0.53515   0.80810   0.62551   0.00000  Uiso   1.00
H1880  H     0.68172   0.65561   0.59672   0.00000  Uiso   1.00
H1881  H     0.70609   0.72736   0.59105   0.00000  Uiso   1.00
H1882  H     0.71139   0.71724   0.65028   0.00000  Uiso   1.00
H1883  H     0.66645   0.74769   0.62955   0.00000  Uiso   1.00
H1884  H     0.98040   0.88017   0.39633   0.00000  Uiso   1.00
H1885  H     0.98137   0.87308   0.45476   0.00000  Uiso   1.00
H1886  H     0.93037   0.94638   0.40769   0.00000  Uiso   1.00
H1887  H     0.94025   0.94039   0.46656   0.00000  Uiso   1.00
H1888  H     0.52130   0.94410   0.45150   0.00000  Uiso   1.00
H1889  H     0.99053   0.99272   0.44097   0.00000  Uiso   1.00
H1890  H     0.68301   0.51324   0.37422   0.00000  Uiso   1.00
H1891  H     0.50767   0.96015   0.39509   0.00000  Uiso   1.00
H1892  H     0.90260   0.78613   0.61264   0.00000  Uiso   1.00
H1893  H     0.87578   0.78705   0.55966   0.00000  Uiso   1.00
H1894  H     0.84753   0.83388   0.64456   0.00000  Uiso   1.00
H1895  H     0.81967   0.83852   0.59192   0.00000  Uiso   1.00
H1896  H     0.79667   0.76686   0.59122   0.00000  Uiso   1.00
H1897  H     0.79266   0.77976   0.64985   0.00000  Uiso   1.00
H1898  H     0.83774   0.74904   0.63047   0.00000  Uiso   1.00
H1899  H     0.54890   0.65339   0.37684   0.00000  Uiso   1.00
H1900  H     0.53921   0.63174   0.42994   0.00000  Uiso   1.00
H1901  H     0.81709   0.98996   0.62611   0.00000  Uiso   1.00
H1902  H     0.55759   0.58278   0.35604   0.00000  Uiso   1.00
H1903  H     0.61202   0.58978   0.37570   0.00000  Uiso   1.00
H1904  H     0.58972   0.55874   0.45018   0.00000  Uiso   1.00
H1905  H     0.57626   0.52275   0.40563   0.00000  Uiso   1.00
H1906  H     0.53468   0.55518   0.43005   0.00000  Uiso   1.00
H1907  H     0.63272   0.96648   0.41549   0.00000  Uiso   1.00
H1908  H     0.58992   0.92682   0.41307   0.00000  Uiso   1.00
H1909  H     0.65834   0.93695   0.34061   0.00000  Uiso   1.00
H1910  H     0.61130   0.90284   0.34000   0.00000  Uiso   1.00
H1911  H     0.56419   0.96969   0.34469   0.00000  Uiso   1.00
H1912  H     0.81718   0.98742   0.37554   0.00000  Uiso   1.00
H1913  H     0.59724   0.96691   0.62936   0.00000  Uiso   1.00
H1914  H     0.61272   0.50224   0.34047   0.00000  Uiso   1.00
H1915  H     0.79657   0.58772   0.61576   0.00000  Uiso   1.00
H1916  H     0.79390   0.61961   0.56652   0.00000  Uiso   1.00
H1917  H     0.83974   0.64042   0.65524   0.00000  Uiso   1.00
H1918  H     0.85148   0.66981   0.60495   0.00000  Uiso   1.00
H1919  H     0.77951   0.69529   0.59617   0.00000  Uiso   1.00
H1920  H     0.78880   0.69841   0.65614   0.00000  Uiso   1.00
H1921  H     0.75707   0.65591   0.63244   0.00000  Uiso   1.00
H1922  H     0.84165   0.56112   0.37056   0.00000  Uiso   1.00
H1923  H     0.68279   0.51243   0.62459   0.00000  Uiso   1.00
H1924  H     0.86837   0.54558   0.42067   0.00000  Uiso   1.00
H1925  H     0.90635   0.57958   0.34456   0.00000  Uiso   1.00
H1926  H     0.90063   0.62798   0.37471   0.00000  Uiso   1.00
H1927  H     0.94004   0.58995   0.44122   0.00000  Uiso   1.00
H1928  H     0.97196   0.59710   0.39200   0.00000  Uiso   1.00
H1929  H     0.94871   0.54529   0.40411   0.00000  Uiso   1.00
H1930  H     0.70483   0.91102   0.61504   0.00000  Uiso   1.00
H1931  H     0.70553   0.88121   0.56473   0.00000  Uiso   1.00
H1932  H     0.66797   0.85564   0.65500   0.00000  Uiso   1.00
H1933  H     0.64891   0.82969   0.60490   0.00000  Uiso   1.00
H1934  H     0.86978   0.73524   0.47060   0.00000  Uiso   1.00
H1935  H     0.71754   0.80107   0.58805   0.00000  Uiso   1.00
H1936  H     0.71856   0.79899   0.64880   0.00000  Uiso   1.00
H1937  H     0.74626   0.84065   0.61919   0.00000  Uiso   1.00
H1938  H     0.86986   0.98046   0.57810   0.00000  Uiso   1.00
H1939  H     0.91505   0.94742   0.56586   0.00000  Uiso   1.00
H1940  H     0.87159   0.94816   0.65822   0.00000  Uiso   1.00
H1941  H     0.91986   0.92041   0.64301   0.00000  Uiso   1.00
H1942  H     0.95411   0.99287   0.62369   0.00000  Uiso   1.00
H1943  H     0.93804   0.98937   0.34774   0.00000  Uiso   1.00
H1944  H     0.90445   0.51816   0.64172   0.00000  Uiso   1.00
N1945  N     0.50000   0.75000   0.61907   0.00000  Uiso   1.00
N1946  N     0.50000   0.75000   0.38093   0.00000  Uiso   1.00
N1947  N     0.75000   0.50000   0.61907   0.00000  Uiso   1.00
N1948  N     0.75000   0.50000   0.38093   0.00000  Uiso   1.00
O1949  O     0.54580   0.70419   0.53821   0.00000  Uiso   1.00
O1950  O     0.70419   0.54581   0.46179   0.00000  Uiso   1.00
O1951  O     0.70419   0.54581   0.53821   0.00000  Uiso   1.00
O1952  O     0.79580   0.95419   0.46179   0.00000  Uiso   1.00
O1953  O     0.70419   0.95419   0.46179   0.00000  Uiso   1.00
O1954  O     0.79580   0.54581   0.53821   0.00000  Uiso   1.00
O1955  O     0.79580   0.54581   0.46179   0.00000  Uiso   1.00
O1956  O     0.70419   0.95419   0.53821   0.00000  Uiso   1.00
O1957  O     0.87782   0.68158   0.42976   0.00000  Uiso   1.00
O1958  O     0.56983   0.86854   0.57509   0.00000  Uiso   1.00
O1959  O     0.61710   0.82432   0.42688   0.00000  Uiso   1.00
O1960  O     0.95419   0.79581   0.46179   0.00000  Uiso   1.00
O1961  O     0.92911   0.63353   0.57504   0.00000  Uiso   1.00
O1962  O     0.59684   0.65194   0.58162   0.00000  Uiso   1.00
O1963  O     0.92173   0.86272   0.42159   0.00000  Uiso   1.00
O1964  O     0.90607   0.84476   0.58178   0.00000  Uiso   1.00
O1965  O     0.60070   0.65948   0.41831   0.00000  Uiso   1.00
O1966  O     0.65444   0.90348   0.41900   0.00000  Uiso   1.00
O1967  O     0.85332   0.58771   0.58135   0.00000  Uiso   1.00
O1968  O     0.83577   0.60554   0.41988   0.00000  Uiso   1.00
O1969  O     0.64627   0.91157   0.58198   0.00000  Uiso   1.00
O1970  O     0.85558   0.91561   0.58046   0.00000  Uiso   1.00
O1971  O     0.95419   0.79581   0.53821   0.00000  Uiso   1.00
O1972  O     0.67846   0.61935   0.42617   0.00000  Uiso   1.00
O1973  O     0.62959   0.56948   0.57158   0.00000  Uiso   1.00
O1974  O     0.84159   0.90314   0.41927   0.00000  Uiso   1.00
O1975  O     0.54580   0.70419   0.46179   0.00000  Uiso   1.00
O1976  O     0.95419   0.70419   0.46179   0.00000  Uiso   1.00
O1977  O     0.54580   0.79581   0.53821   0.00000  Uiso   1.00
O1978  O     0.54580   0.79581   0.46179   0.00000  Uiso   1.00
O1979  O     0.95419   0.70419   0.53821   0.00000  Uiso   1.00
O1980  O     0.79580   0.95419   0.53821   0.00000  Uiso   1.00
Zn1981 Zn    0.50000   0.75000   0.55104   0.00000  Uiso   1.00
Zn1982 Zn    0.50000   0.75000   0.44896   0.00000  Uiso   1.00
Zn1983 Zn    0.75000   0.50000   0.55104   0.00000  Uiso   1.00
Zn1984 Zn    0.75000   0.50000   0.44896   0.00000  Uiso   1.00
C1985  C     0.06031   0.19019   0.83343   0.00000  Uiso   1.00
C1986  C     0.48008   0.21811   0.97617   0.00000  Uiso   1.00
C1987  C     0.48127   0.21733   0.69037   0.00000  Uiso   1.00
C1988  C     0.01901   0.28246   0.97631   0.00000  Uiso   1.00
C1989  C     0.21279   0.00698   0.69010   0.00000  Uiso   1.00
C1990  C     0.28720   0.49388   0.97670   0.00000  Uiso   1.00
C1991  C     0.28719   0.49321   0.69089   0.00000  Uiso   1.00
C1992  C     0.21275   0.00681   0.97583   0.00000  Uiso   1.00
C1993  C     0.37965   0.15169   0.79715   0.00000  Uiso   1.00
C1994  C     0.09649   0.37110   0.87157   0.00000  Uiso   1.00
C1995  C     0.11565   0.35280   0.79544   0.00000  Uiso   1.00
C1996  C     0.44107   0.31088   0.83332   0.00000  Uiso   1.00
C1997  C     0.40217   0.12971   0.87157   0.00000  Uiso   1.00
C1998  C     0.10781   0.13704   0.87335   0.00000  Uiso   1.00
C1999  C     0.39786   0.36646   0.79359   0.00000  Uiso   1.00
C2000  C     0.39316   0.36130   0.87425   0.00000  Uiso   1.00
C2001  C     0.11427   0.14512   0.79309   0.00000  Uiso   1.00
C2002  C     0.14096   0.38940   0.79354   0.00000  Uiso   1.00
C2003  C     0.36593   0.10319   0.87345   0.00000  Uiso   1.00
C2004  C     0.35401   0.11531   0.79408   0.00000  Uiso   1.00
C2005  C     0.13258   0.39768   0.87371   0.00000  Uiso   1.00
C2006  C     0.36466   0.39575   0.87386   0.00000  Uiso   1.00
C2007  C     0.44045   0.18970   0.83347   0.00000  Uiso   1.00
C2008  C     0.15124   0.11998   0.79545   0.00000  Uiso   1.00
C2009  C     0.13182   0.09950   0.87066   0.00000  Uiso   1.00
C2010  C     0.36125   0.39272   0.79292   0.00000  Uiso   1.00
C2011  C     0.09069   0.34511   0.83352   0.00000  Uiso   1.00
C2012  C     0.40725   0.15660   0.83411   0.00000  Uiso   1.00
C2013  C     0.41030   0.34638   0.83373   0.00000  Uiso   1.00
C2014  C     0.09423   0.15729   0.83330   0.00000  Uiso   1.00
C2015  C     0.34393   0.09266   0.83346   0.00000  Uiso   1.00
C2016  C     0.15362   0.40950   0.83354   0.00000  Uiso   1.00
C2017  C     0.15803   0.09387   0.83310   0.00000  Uiso   1.00
C2018  C     0.05939   0.31035   0.83342   0.00000  Uiso   1.00
C2019  C     0.34552   0.40909   0.83342   0.00000  Uiso   1.00
C2020  C     0.35243   0.21672   0.77752   0.00000  Uiso   1.00
C2021  C     0.34337   0.24693   0.73845   0.00000  Uiso   1.00
C2022  C     0.38437   0.25648   0.71228   0.00000  Uiso   1.00
C2023  C     0.02761   0.38373   0.89725   0.00000  Uiso   1.00
C2024  C     0.01240   0.41580   0.93195   0.00000  Uiso   1.00
C2025  C     0.00650   0.39510   0.97745   0.00000  Uiso   1.00
C2026  C     0.14691   0.29128   0.77197   0.00000  Uiso   1.00
C2027  C     0.15676   0.26343   0.73156   0.00000  Uiso   1.00
C2028  C     0.11560   0.24845   0.70800   0.00000  Uiso   1.00
C2029  C     0.31048   0.44051   0.83343   0.00000  Uiso   1.00
C2030  C     0.45058   0.09387   0.91636   0.00000  Uiso   1.00
C2031  C     0.47870   0.09854   0.95809   0.00000  Uiso   1.00
C2032  C     0.02034   0.12199   0.94789   0.00000  Uiso   1.00
C2033  C     0.12027   0.18981   0.92454   0.00000  Uiso   1.00
C2034  C     0.16229   0.17911   0.94936   0.00000  Uiso   1.00
C2035  C     0.18825   0.22025   0.95550   0.00000  Uiso   1.00
C2036  C     0.46119   0.38572   0.76001   0.00000  Uiso   1.00
C2037  C     0.45391   0.43436   0.76630   0.00000  Uiso   1.00
C2038  C     0.49612   0.45922   0.76317   0.00000  Uiso   1.00
C2039  C     0.38244   0.30668   0.92349   0.00000  Uiso   1.00
C2040  C     0.19095   0.06062   0.83316   0.00000  Uiso   1.00
C2041  C     0.34002   0.31698   0.94640   0.00000  Uiso   1.00
C2042  C     0.31520   0.27567   0.95507   0.00000  Uiso   1.00
C2043  C     0.06461   0.13481   0.73730   0.00000  Uiso   1.00
C2044  C     0.07755   0.09020   0.71927   0.00000  Uiso   1.00
C2045  C     0.06917   0.05468   0.75342   0.00000  Uiso   1.00
C2046  C     0.12389   0.43399   0.73622   0.00000  Uiso   1.00
C2047  C     0.12458   0.43390   0.68553   0.00000  Uiso   1.00
C2048  C     0.09792   0.47064   0.99916   0.00000  Uiso   1.00
C2049  C     0.31574   0.11007   0.92821   0.00000  Uiso   1.00
C2050  C     0.32671   0.15001   0.95537   0.00000  Uiso   1.00
C2051  C     0.18885   0.44106   0.83332   0.00000  Uiso   1.00
C2052  C     0.28569   0.17668   0.96055   0.00000  Uiso   1.00
C2053  C     0.36133   0.07384   0.73197   0.00000  Uiso   1.00
C2054  C     0.40286   0.09255   0.71191   0.00000  Uiso   1.00
C2055  C     0.44327   0.08053   0.73912   0.00000  Uiso   1.00
C2056  C     0.18485   0.38931   0.92728   0.00000  Uiso   1.00
C2057  C     0.17622   0.34796   0.95332   0.00000  Uiso   1.00
C2058  C     0.21695   0.32025   0.95253   0.00000  Uiso   1.00
C2059  C     0.38563   0.44939   0.92043   0.00000  Uiso   1.00
C2060  C     0.40007   0.44951   0.96931   0.00000  Uiso   1.00
C2061  C     0.42597   0.48994   0.97958   0.00000  Uiso   1.00
C2062  C     0.31026   0.05974   0.83336   0.00000  Uiso   1.00
C2063  C     0.21529   0.14426   0.77052   0.00000  Uiso   1.00
C2064  C     0.24305   0.14921   0.72934   0.00000  Uiso   1.00
C2065  C     0.24984   0.10584   0.70673   0.00000  Uiso   1.00
C2066  C     0.11135   0.03067   0.88808   0.00000  Uiso   1.00
C2067  C     0.06191   0.03115   0.89066   0.00000  Uiso   1.00
C2068  C     0.04259   0.49641   0.86100   0.00000  Uiso   1.00
C2069  C     0.32187   0.36541   0.73595   0.00000  Uiso   1.00
C2070  C     0.28910   0.37619   0.69939   0.00000  Uiso   1.00
C2071  C     0.24595   0.39063   0.71803   0.00000  Uiso   1.00
C2072  C     0.01789   0.28313   0.69051   0.00000  Uiso   1.00
H2073  H     0.03254   0.30981   0.70813   0.00000  Uiso   1.00
H2074  H     0.32066   0.20594   0.79099   0.00000  Uiso   1.00
H2075  H     0.23517   0.12823   0.79701   0.00000  Uiso   1.00
H2076  H     0.20622   0.17703   0.78240   0.00000  Uiso   1.00
H2077  H     0.22664   0.17156   0.70585   0.00000  Uiso   1.00
H2078  H     0.27473   0.16338   0.73897   0.00000  Uiso   1.00
H2079  H     0.25462   0.08029   0.73199   0.00000  Uiso   1.00
H2080  H     0.27912   0.10655   0.68621   0.00000  Uiso   1.00
H2081  H     0.22145   0.09790   0.68528   0.00000  Uiso   1.00
H2082  H     0.12435   0.00353   0.90798   0.00000  Uiso   1.00
H2083  H     0.12093   0.02285   0.85334   0.00000  Uiso   1.00
H2084  H     0.05177   0.02575   0.92569   0.00000  Uiso   1.00
H2085  H     0.31884   0.23237   0.71599   0.00000  Uiso   1.00
H2086  H     0.04916   0.06264   0.87869   0.00000  Uiso   1.00
H2087  H     0.04691   0.00562   0.82574   0.00000  Uiso   1.00
H2088  H     0.00748   0.49276   0.86769   0.00000  Uiso   1.00
H2089  H     0.05966   0.46540   0.86645   0.00000  Uiso   1.00
H2090  H     0.30496   0.34671   0.76253   0.00000  Uiso   1.00
H2091  H     0.34712   0.34475   0.72109   0.00000  Uiso   1.00
H2092  H     0.30223   0.40080   0.67622   0.00000  Uiso   1.00
H2093  H     0.28300   0.34631   0.68082   0.00000  Uiso   1.00
H2094  H     0.23101   0.36424   0.73768   0.00000  Uiso   1.00
H2095  H     0.22389   0.39962   0.69028   0.00000  Uiso   1.00
H2096  H     0.32966   0.27713   0.75172   0.00000  Uiso   1.00
H2097  H     0.25051   0.41897   0.73940   0.00000  Uiso   1.00
H2098  H     0.41190   0.26279   0.73507   0.00000  Uiso   1.00
H2099  H     0.37987   0.28523   0.69113   0.00000  Uiso   1.00
H2100  H     0.39220   0.22870   0.69055   0.00000  Uiso   1.00
H2101  H     0.00449   0.35657   0.89718   0.00000  Uiso   1.00
H2102  H     0.02481   0.39938   0.86372   0.00000  Uiso   1.00
H2103  H     0.03559   0.44256   0.93492   0.00000  Uiso   1.00
H2104  H     0.48120   0.42947   0.92056   0.00000  Uiso   1.00
H2105  H     0.46326   0.19291   0.95857   0.00000  Uiso   1.00
H2106  H     0.48202   0.36900   0.97563   0.00000  Uiso   1.00
H2107  H     0.49482   0.42011   0.66723   0.00000  Uiso   1.00
H2108  H     0.03763   0.38206   0.99049   0.00000  Uiso   1.00
H2109  H     0.13327   0.27022   0.79851   0.00000  Uiso   1.00
H2110  H     0.17835   0.30468   0.78427   0.00000  Uiso   1.00
H2111  H     0.17675   0.28209   0.70792   0.00000  Uiso   1.00
H2112  H     0.17584   0.23496   0.74262   0.00000  Uiso   1.00
H2113  H     0.08954   0.24213   0.73227   0.00000  Uiso   1.00
H2114  H     0.12181   0.21820   0.68990   0.00000  Uiso   1.00
H2115  H     0.10487   0.27342   0.68371   0.00000  Uiso   1.00
H2116  H     0.46622   0.19085   0.70786   0.00000  Uiso   1.00
H2117  H     0.47083   0.08460   0.88731   0.00000  Uiso   1.00
H2118  H     0.42762   0.06726   0.92259   0.00000  Uiso   1.00
H2119  H     0.46088   0.11772   0.98299   0.00000  Uiso   1.00
H2120  H     0.48621   0.06639   0.97273   0.00000  Uiso   1.00
H2121  H     0.01739   0.14069   0.91643   0.00000  Uiso   1.00
H2122  H     0.04720   0.09858   0.94573   0.00000  Uiso   1.00
H2123  H     0.02855   0.14480   0.97472   0.00000  Uiso   1.00
H2124  H     0.09971   0.21012   0.94628   0.00000  Uiso   1.00
H2125  H     0.12743   0.20992   0.89451   0.00000  Uiso   1.00
H2126  H     0.15491   0.16441   0.98227   0.00000  Uiso   1.00
H2127  H     0.03515   0.30810   0.95884   0.00000  Uiso   1.00
H2128  H     0.18172   0.15561   0.93005   0.00000  Uiso   1.00
H2129  H     0.20609   0.22736   0.92438   0.00000  Uiso   1.00
H2130  H     0.21139   0.21724   0.98361   0.00000  Uiso   1.00
H2131  H     0.16645   0.24769   0.96288   0.00000  Uiso   1.00
H2132  H     0.48040   0.38017   0.72966   0.00000  Uiso   1.00
H2133  H     0.48137   0.37308   0.78809   0.00000  Uiso   1.00
H2134  H     0.43037   0.44638   0.74102   0.00000  Uiso   1.00
H2135  H     0.44025   0.44039   0.79989   0.00000  Uiso   1.00
H2136  H     0.02130   0.44410   0.78483   0.00000  Uiso   1.00
H2137  H     0.49053   0.49272   0.77430   0.00000  Uiso   1.00
H2138  H     0.18301   0.01324   0.70755   0.00000  Uiso   1.00
H2139  H     0.00767   0.46015   0.72842   0.00000  Uiso   1.00
H2140  H     0.40260   0.28613   0.94597   0.00000  Uiso   1.00
H2141  H     0.37578   0.28705   0.89299   0.00000  Uiso   1.00
H2142  H     0.34753   0.33388   0.97789   0.00000  Uiso   1.00
H2143  H     0.31967   0.33852   0.92525   0.00000  Uiso   1.00
H2144  H     0.29667   0.26686   0.92455   0.00000  Uiso   1.00
H2145  H     0.29266   0.27976   0.98318   0.00000  Uiso   1.00
H2146  H     0.33774   0.24904   0.96380   0.00000  Uiso   1.00
H2147  H     0.04890   0.15339   0.71017   0.00000  Uiso   1.00
H2148  H     0.03921   0.13174   0.76327   0.00000  Uiso   1.00
H2149  H     0.31709   0.48996   0.95944   0.00000  Uiso   1.00
H2150  H     0.05759   0.08278   0.68938   0.00000  Uiso   1.00
H2151  H     0.11202   0.08978   0.70903   0.00000  Uiso   1.00
H2152  H     0.08972   0.05874   0.78351   0.00000  Uiso   1.00
H2153  H     0.07626   0.02275   0.73896   0.00000  Uiso   1.00
H2154  H     0.03468   0.05518   0.76339   0.00000  Uiso   1.00
H2155  H     0.13272   0.46648   0.74882   0.00000  Uiso   1.00
H2156  H     0.08992   0.42682   0.74640   0.00000  Uiso   1.00
H2157  H     0.15834   0.43695   0.67394   0.00000  Uiso   1.00
H2158  H     0.11130   0.40284   0.67333   0.00000  Uiso   1.00
H2159  H     0.06419   0.46969   0.67803   0.00000  Uiso   1.00
H2160  H     0.31718   0.48742   0.70888   0.00000  Uiso   1.00
H2161  H     0.09724   0.46691   0.96269   0.00000  Uiso   1.00
H2162  H     0.11272   0.00224   0.67380   0.00000  Uiso   1.00
H2163  H     0.29657   0.08772   0.94909   0.00000  Uiso   1.00
H2164  H     0.29390   0.11961   0.89985   0.00000  Uiso   1.00
H2165  H     0.33974   0.14042   0.98857   0.00000  Uiso   1.00
H2166  H     0.35148   0.16981   0.93829   0.00000  Uiso   1.00
H2167  H     0.27951   0.19529   0.92950   0.00000  Uiso   1.00
H2168  H     0.28880   0.19841   0.98948   0.00000  Uiso   1.00
H2169  H     0.25707   0.15591   0.96577   0.00000  Uiso   1.00
H2170  H     0.34165   0.06112   0.70390   0.00000  Uiso   1.00
H2171  H     0.18279   0.01243   0.95793   0.00000  Uiso   1.00
H2172  H     0.36837   0.04558   0.75401   0.00000  Uiso   1.00
H2173  H     0.40635   0.07958   0.67789   0.00000  Uiso   1.00
H2174  H     0.40063   0.12798   0.70804   0.00000  Uiso   1.00
H2175  H     0.44004   0.08995   0.77456   0.00000  Uiso   1.00
H2176  H     0.47196   0.09710   0.72533   0.00000  Uiso   1.00
H2177  H     0.44871   0.04529   0.73744   0.00000  Uiso   1.00
H2178  H     0.20483   0.41102   0.94837   0.00000  Uiso   1.00
H2179  H     0.20553   0.38121   0.89807   0.00000  Uiso   1.00
H2180  H     0.16797   0.35564   0.98833   0.00000  Uiso   1.00
H2181  H     0.14891   0.32969   0.93823   0.00000  Uiso   1.00
H2182  H     0.36978   0.23524   0.80393   0.00000  Uiso   1.00
H2183  H     0.21754   0.30107   0.92138   0.00000  Uiso   1.00
H2184  H     0.21856   0.29899   0.98213   0.00000  Uiso   1.00
H2185  H     0.24626   0.34065   0.95252   0.00000  Uiso   1.00
H2186  H     0.36986   0.48046   0.91144   0.00000  Uiso   1.00
H2187  H     0.41505   0.44742   0.89920   0.00000  Uiso   1.00
H2188  H     0.37159   0.44816   0.99155   0.00000  Uiso   1.00
H2189  H     0.41986   0.42041   0.97634   0.00000  Uiso   1.00
H2190  H     0.45411   0.49287   0.95702   0.00000  Uiso   1.00
H2191  H     0.43804   0.48937   0.68107   0.00000  Uiso   1.00
H2192  H     0.40445   0.01816   0.97505   0.00000  Uiso   1.00
N2193  N     0.00000   0.25000   0.95240   0.00000  Uiso   1.00
N2194  N    -0.00000   0.25000   0.71427   0.00000  Uiso   1.00
N2195  N     0.25000   0.00000   0.95240   0.00000  Uiso   1.00
N2196  N     0.25000   0.00000   0.71427   0.00000  Uiso   1.00
O2197  O     0.04580   0.20419   0.87154   0.00000  Uiso   1.00
O2198  O     0.20419   0.04581   0.79513   0.00000  Uiso   1.00
O2199  O     0.20419   0.04581   0.87154   0.00000  Uiso   1.00
O2200  O     0.29580   0.45419   0.79513   0.00000  Uiso   1.00
O2201  O     0.20419   0.45419   0.79513   0.00000  Uiso   1.00
O2202  O     0.29580   0.04581   0.87154   0.00000  Uiso   1.00
O2203  O     0.29580   0.04581   0.79513   0.00000  Uiso   1.00
O2204  O     0.20419   0.45419   0.87154   0.00000  Uiso   1.00
O2205  O     0.37782   0.18158   0.76310   0.00000  Uiso   1.00
O2206  O     0.06983   0.36854   0.90842   0.00000  Uiso   1.00
O2207  O     0.11710   0.32432   0.76021   0.00000  Uiso   1.00
O2208  O     0.45419   0.29581   0.79513   0.00000  Uiso   1.00
O2209  O     0.42911   0.13353   0.90838   0.00000  Uiso   1.00
O2210  O     0.09684   0.15194   0.91495   0.00000  Uiso   1.00
O2211  O     0.42173   0.36272   0.75492   0.00000  Uiso   1.00
O2212  O     0.40607   0.34476   0.91511   0.00000  Uiso   1.00
O2213  O     0.10070   0.15948   0.75164   0.00000  Uiso   1.00
O2214  O     0.15444   0.40348   0.75234   0.00000  Uiso   1.00
O2215  O     0.35332   0.08771   0.91468   0.00000  Uiso   1.00
O2216  O     0.33577   0.10554   0.75321   0.00000  Uiso   1.00
O2217  O     0.14627   0.41157   0.91532   0.00000  Uiso   1.00
O2218  O     0.35558   0.41561   0.91380   0.00000  Uiso   1.00
O2219  O     0.45419   0.29581   0.87154   0.00000  Uiso   1.00
O2220  O     0.17846   0.11935   0.75950   0.00000  Uiso   1.00
O2221  O     0.12959   0.06948   0.90491   0.00000  Uiso   1.00
O2222  O     0.34159   0.40314   0.75261   0.00000  Uiso   1.00
O2223  O     0.04580   0.20419   0.79513   0.00000  Uiso   1.00
O2224  O     0.45419   0.20419   0.79513   0.00000  Uiso   1.00
O2225  O     0.04580   0.29581   0.87154   0.00000  Uiso   1.00
O2226  O     0.04580   0.29581   0.79513   0.00000  Uiso   1.00
O2227  O     0.45419   0.20419   0.87154   0.00000  Uiso   1.00
O2228  O     0.29580   0.45419   0.87154   0.00000  Uiso   1.00
Zn2229 Zn    0.00000   0.25000   0.88437   0.00000  Uiso   1.00
Zn2230 Zn   -0.00000   0.25000   0.78229   0.00000  Uiso   1.00
Zn2231 Zn    0.25000   0.00000   0.88437   0.00000  Uiso   1.00
Zn2232 Zn    0.25000   0.00000   0.78229   0.00000  Uiso   1.00
C2233  C     0.56031   0.19019   0.83343   0.00000  Uiso   1.00
C2234  C     0.98008   0.21811   0.97617   0.00000  Uiso   1.00
C2235  C     0.98127   0.21733   0.69037   0.00000  Uiso   1.00
C2236  C     0.51901   0.28246   0.97631   0.00000  Uiso   1.00
C2237  C     0.71279   0.00698   0.69010   0.00000  Uiso   1.00
C2238  C     0.78720   0.49388   0.97670   0.00000  Uiso   1.00
C2239  C     0.78719   0.49321   0.69089   0.00000  Uiso   1.00
C2240  C     0.71275   0.00681   0.97583   0.00000  Uiso   1.00
C2241  C     0.87965   0.15169   0.79715   0.00000  Uiso   1.00
C2242  C     0.59649   0.37110   0.87157   0.00000  Uiso   1.00
C2243  C     0.61565   0.35280   0.79544   0.00000  Uiso   1.00
C2244  C     0.94107   0.31088   0.83332   0.00000  Uiso   1.00
C2245  C     0.90217   0.12971   0.87157   0.00000  Uiso   1.00
C2246  C     0.60781   0.13704   0.87335   0.00000  Uiso   1.00
C2247  C     0.89786   0.36646   0.79359   0.00000  Uiso   1.00
C2248  C     0.89316   0.36130   0.87425   0.00000  Uiso   1.00
C2249  C     0.61427   0.14512   0.79309   0.00000  Uiso   1.00
C2250  C     0.64096   0.38940   0.79354   0.00000  Uiso   1.00
C2251  C     0.86593   0.10319   0.87345   0.00000  Uiso   1.00
C2252  C     0.85401   0.11531   0.79408   0.00000  Uiso   1.00
C2253  C     0.63258   0.39768   0.87371   0.00000  Uiso   1.00
C2254  C     0.86466   0.39575   0.87386   0.00000  Uiso   1.00
C2255  C     0.94045   0.18970   0.83347   0.00000  Uiso   1.00
C2256  C     0.65124   0.11998   0.79545   0.00000  Uiso   1.00
C2257  C     0.63182   0.09950   0.87066   0.00000  Uiso   1.00
C2258  C     0.86125   0.39272   0.79292   0.00000  Uiso   1.00
C2259  C     0.59069   0.34511   0.83352   0.00000  Uiso   1.00
C2260  C     0.90725   0.15660   0.83411   0.00000  Uiso   1.00
C2261  C     0.91030   0.34638   0.83373   0.00000  Uiso   1.00
C2262  C     0.59423   0.15729   0.83330   0.00000  Uiso   1.00
C2263  C     0.84393   0.09266   0.83346   0.00000  Uiso   1.00
C2264  C     0.65362   0.40950   0.83354   0.00000  Uiso   1.00
C2265  C     0.65803   0.09387   0.83310   0.00000  Uiso   1.00
C2266  C     0.55939   0.31035   0.83342   0.00000  Uiso   1.00
C2267  C     0.84552   0.40909   0.83342   0.00000  Uiso   1.00
C2268  C     0.85243   0.21672   0.77752   0.00000  Uiso   1.00
C2269  C     0.84337   0.24693   0.73845   0.00000  Uiso   1.00
C2270  C     0.88437   0.25648   0.71228   0.00000  Uiso   1.00
C2271  C     0.52761   0.38373   0.89725   0.00000  Uiso   1.00
C2272  C     0.51240   0.41580   0.93195   0.00000  Uiso   1.00
C2273  C     0.50650   0.39510   0.97745   0.00000  Uiso   1.00
C2274  C     0.64691   0.29128   0.77197   0.00000  Uiso   1.00
C2275  C     0.65676   0.26343   0.73156   0.00000  Uiso   1.00
C2276  C     0.61560   0.24845   0.70800   0.00000  Uiso   1.00
C2277  C     0.81048   0.44051   0.83343   0.00000  Uiso   1.00
C2278  C     0.95058   0.09387   0.91636   0.00000  Uiso   1.00
C2279  C     0.97870   0.09854   0.95809   0.00000  Uiso   1.00
C2280  C     0.52034   0.12199   0.94789   0.00000  Uiso   1.00
C2281  C     0.62027   0.18981   0.92454   0.00000  Uiso   1.00
C2282  C     0.66229   0.17911   0.94936   0.00000  Uiso   1.00
C2283  C     0.68825   0.22025   0.95550   0.00000  Uiso   1.00
C2284  C     0.96119   0.38572   0.76001   0.00000  Uiso   1.00
C2285  C     0.95391   0.43436   0.76630   0.00000  Uiso   1.00
C2286  C     0.99612   0.45922   0.76317   0.00000  Uiso   1.00
C2287  C     0.88244   0.30668   0.92349   0.00000  Uiso   1.00
C2288  C     0.69095   0.06062   0.83316   0.00000  Uiso   1.00
C2289  C     0.84002   0.31698   0.94640   0.00000  Uiso   1.00
C2290  C     0.81520   0.27567   0.95507   0.00000  Uiso   1.00
C2291  C     0.56461   0.13481   0.73730   0.00000  Uiso   1.00
C2292  C     0.57755   0.09020   0.71927   0.00000  Uiso   1.00
C2293  C     0.56917   0.05468   0.75342   0.00000  Uiso   1.00
C2294  C     0.62389   0.43399   0.73622   0.00000  Uiso   1.00
C2295  C     0.62458   0.43390   0.68553   0.00000  Uiso   1.00
C2296  C     0.59792   0.47064   0.99916   0.00000  Uiso   1.00
C2297  C     0.81574   0.11007   0.92821   0.00000  Uiso   1.00
C2298  C     0.82671   0.15001   0.95537   0.00000  Uiso   1.00
C2299  C     0.68885   0.44106   0.83332   0.00000  Uiso   1.00
C2300  C     0.78569   0.17668   0.96055   0.00000  Uiso   1.00
C2301  C     0.86133   0.07384   0.73197   0.00000  Uiso   1.00
C2302  C     0.90286   0.09255   0.71191   0.00000  Uiso   1.00
C2303  C     0.94327   0.08053   0.73912   0.00000  Uiso   1.00
C2304  C     0.68485   0.38931   0.92728   0.00000  Uiso   1.00
C2305  C     0.67622   0.34796   0.95332   0.00000  Uiso   1.00
C2306  C     0.71695   0.32025   0.95253   0.00000  Uiso   1.00
C2307  C     0.88563   0.44939   0.92043   0.00000  Uiso   1.00
C2308  C     0.90007   0.44951   0.96931   0.00000  Uiso   1.00
C2309  C     0.92597   0.48994   0.97958   0.00000  Uiso   1.00
C2310  C     0.81026   0.05974   0.83336   0.00000  Uiso   1.00
C2311  C     0.71529   0.14426   0.77052   0.00000  Uiso   1.00
C2312  C     0.74305   0.14921   0.72934   0.00000  Uiso   1.00
C2313  C     0.74984   0.10584   0.70673   0.00000  Uiso   1.00
C2314  C     0.61135   0.03067   0.88808   0.00000  Uiso   1.00
C2315  C     0.56191   0.03115   0.89066   0.00000  Uiso   1.00
C2316  C     0.54259   0.49641   0.86100   0.00000  Uiso   1.00
C2317  C     0.82187   0.36541   0.73595   0.00000  Uiso   1.00
C2318  C     0.78910   0.37619   0.69939   0.00000  Uiso   1.00
C2319  C     0.74595   0.39063   0.71803   0.00000  Uiso   1.00
C2320  C     0.51789   0.28313   0.69051   0.00000  Uiso   1.00
H2321  H     0.53254   0.30981   0.70813   0.00000  Uiso   1.00
H2322  H     0.82066   0.20594   0.79099   0.00000  Uiso   1.00
H2323  H     0.73517   0.12823   0.79701   0.00000  Uiso   1.00
H2324  H     0.70622   0.17703   0.78240   0.00000  Uiso   1.00
H2325  H     0.72664   0.17156   0.70585   0.00000  Uiso   1.00
H2326  H     0.77473   0.16338   0.73897   0.00000  Uiso   1.00
H2327  H     0.75462   0.08029   0.73199   0.00000  Uiso   1.00
H2328  H     0.77912   0.10655   0.68621   0.00000  Uiso   1.00
H2329  H     0.72145   0.09790   0.68528   0.00000  Uiso   1.00
H2330  H     0.62435   0.00353   0.90798   0.00000  Uiso   1.00
H2331  H     0.62093   0.02285   0.85334   0.00000  Uiso   1.00
H2332  H     0.55177   0.02575   0.92569   0.00000  Uiso   1.00
H2333  H     0.81884   0.23237   0.71599   0.00000  Uiso   1.00
H2334  H     0.54916   0.06264   0.87869   0.00000  Uiso   1.00
H2335  H     0.54691   0.00562   0.82574   0.00000  Uiso   1.00
H2336  H     0.50748   0.49276   0.86769   0.00000  Uiso   1.00
H2337  H     0.55966   0.46540   0.86645   0.00000  Uiso   1.00
H2338  H     0.80496   0.34671   0.76253   0.00000  Uiso   1.00
H2339  H     0.84712   0.34475   0.72109   0.00000  Uiso   1.00
H2340  H     0.80223   0.40080   0.67622   0.00000  Uiso   1.00
H2341  H     0.78300   0.34631   0.68082   0.00000  Uiso   1.00
H2342  H     0.73101   0.36424   0.73768   0.00000  Uiso   1.00
H2343  H     0.72389   0.39962   0.69028   0.00000  Uiso   1.00
H2344  H     0.82966   0.27713   0.75172   0.00000  Uiso   1.00
H2345  H     0.75051   0.41897   0.73940   0.00000  Uiso   1.00
H2346  H     0.91190   0.26279   0.73507   0.00000  Uiso   1.00
H2347  H     0.87987   0.28523   0.69113   0.00000  Uiso   1.00
H2348  H     0.89220   0.22870   0.69055   0.00000  Uiso   1.00
H2349  H     0.50449   0.35657   0.89718   0.00000  Uiso   1.00
H2350  H     0.52481   0.39938   0.86372   0.00000  Uiso   1.00
H2351  H     0.53559   0.44256   0.93492   0.00000  Uiso   1.00
H2352  H     0.98120   0.42947   0.92056   0.00000  Uiso   1.00
H2353  H     0.96326   0.19291   0.95857   0.00000  Uiso   1.00
H2354  H     0.98202   0.36900   0.97563   0.00000  Uiso   1.00
H2355  H     0.99482   0.42011   0.66723   0.00000  Uiso   1.00
H2356  H     0.53763   0.38206   0.99049   0.00000  Uiso   1.00
H2357  H     0.63327   0.27022   0.79851   0.00000  Uiso   1.00
H2358  H     0.67835   0.30468   0.78427   0.00000  Uiso   1.00
H2359  H     0.67675   0.28209   0.70792   0.00000  Uiso   1.00
H2360  H     0.67584   0.23496   0.74262   0.00000  Uiso   1.00
H2361  H     0.58954   0.24213   0.73227   0.00000  Uiso   1.00
H2362  H     0.62181   0.21820   0.68990   0.00000  Uiso   1.00
H2363  H     0.60487   0.27342   0.68371   0.00000  Uiso   1.00
H2364  H     0.96622   0.19085   0.70786   0.00000  Uiso   1.00
H2365  H     0.97083   0.08460   0.88731   0.00000  Uiso   1.00
H2366  H     0.92762   0.06726   0.92259   0.00000  Uiso   1.00
H2367  H     0.96088   0.11772   0.98299   0.00000  Uiso   1.00
H2368  H     0.98621   0.06639   0.97273   0.00000  Uiso   1.00
H2369  H     0.51739   0.14069   0.91643   0.00000  Uiso   1.00
H2370  H     0.54720   0.09858   0.94573   0.00000  Uiso   1.00
H2371  H     0.52855   0.14480   0.97472   0.00000  Uiso   1.00
H2372  H     0.59971   0.21012   0.94628   0.00000  Uiso   1.00
H2373  H     0.62743   0.20992   0.89451   0.00000  Uiso   1.00
H2374  H     0.65491   0.16441   0.98227   0.00000  Uiso   1.00
H2375  H     0.53515   0.30810   0.95884   0.00000  Uiso   1.00
H2376  H     0.68172   0.15561   0.93005   0.00000  Uiso   1.00
H2377  H     0.70609   0.22736   0.92438   0.00000  Uiso   1.00
H2378  H     0.71139   0.21724   0.98361   0.00000  Uiso   1.00
H2379  H     0.66645   0.24769   0.96288   0.00000  Uiso   1.00
H2380  H     0.98040   0.38017   0.72966   0.00000  Uiso   1.00
H2381  H     0.98137   0.37308   0.78809   0.00000  Uiso   1.00
H2382  H     0.93037   0.44638   0.74102   0.00000  Uiso   1.00
H2383  H     0.94025   0.44039   0.79989   0.00000  Uiso   1.00
H2384  H     0.52130   0.44410   0.78483   0.00000  Uiso   1.00
H2385  H     0.99053   0.49272   0.77430   0.00000  Uiso   1.00
H2386  H     0.68301   0.01324   0.70755   0.00000  Uiso   1.00
H2387  H     0.50767   0.46015   0.72842   0.00000  Uiso   1.00
H2388  H     0.90260   0.28613   0.94597   0.00000  Uiso   1.00
H2389  H     0.87578   0.28705   0.89299   0.00000  Uiso   1.00
H2390  H     0.84753   0.33388   0.97789   0.00000  Uiso   1.00
H2391  H     0.81967   0.33852   0.92525   0.00000  Uiso   1.00
H2392  H     0.79667   0.26686   0.92455   0.00000  Uiso   1.00
H2393  H     0.79266   0.27976   0.98318   0.00000  Uiso   1.00
H2394  H     0.83774   0.24904   0.96380   0.00000  Uiso   1.00
H2395  H     0.54890   0.15339   0.71017   0.00000  Uiso   1.00
H2396  H     0.53921   0.13174   0.76327   0.00000  Uiso   1.00
H2397  H     0.81709   0.48996   0.95944   0.00000  Uiso   1.00
H2398  H     0.55759   0.08278   0.68938   0.00000  Uiso   1.00
H2399  H     0.61202   0.08978   0.70903   0.00000  Uiso   1.00
H2400  H     0.58972   0.05874   0.78351   0.00000  Uiso   1.00
H2401  H     0.57626   0.02275   0.73896   0.00000  Uiso   1.00
H2402  H     0.53468   0.05518   0.76339   0.00000  Uiso   1.00
H2403  H     0.63272   0.46648   0.74882   0.00000  Uiso   1.00
H2404  H     0.58992   0.42682   0.74640   0.00000  Uiso   1.00
H2405  H     0.65834   0.43695   0.67394   0.00000  Uiso   1.00
H2406  H     0.61130   0.40284   0.67333   0.00000  Uiso   1.00
H2407  H     0.56419   0.46969   0.67803   0.00000  Uiso   1.00
H2408  H     0.81718   0.48742   0.70888   0.00000  Uiso   1.00
H2409  H     0.59724   0.46691   0.96269   0.00000  Uiso   1.00
H2410  H     0.61272   0.00224   0.67380   0.00000  Uiso   1.00
H2411  H     0.79657   0.08772   0.94909   0.00000  Uiso   1.00
H2412  H     0.79390   0.11961   0.89985   0.00000  Uiso   1.00
H2413  H     0.83974   0.14042   0.98857   0.00000  Uiso   1.00
H2414  H     0.85148   0.16981   0.93829   0.00000  Uiso   1.00
H2415  H     0.77951   0.19529   0.92950   0.00000  Uiso   1.00
H2416  H     0.78880   0.19841   0.98948   0.00000  Uiso   1.00
H2417  H     0.75707   0.15591   0.96577   0.00000  Uiso   1.00
H2418  H     0.84165   0.06112   0.70390   0.00000  Uiso   1.00
H2419  H     0.68279   0.01243   0.95793   0.00000  Uiso   1.00
H2420  H     0.86837   0.04558   0.75401   0.00000  Uiso   1.00
H2421  H     0.90635   0.07958   0.67789   0.00000  Uiso   1.00
H2422  H     0.90063   0.12798   0.70804   0.00000  Uiso   1.00
H2423  H     0.94004   0.08995   0.77456   0.00000  Uiso   1.00
H2424  H     0.97196   0.09710   0.72533   0.00000  Uiso   1.00
H2425  H     0.94871   0.04529   0.73744   0.00000  Uiso   1.00
H2426  H     0.70483   0.41102   0.94837   0.00000  Uiso   1.00
H2427  H     0.70553   0.38121   0.89807   0.00000  Uiso   1.00
H2428  H     0.66797   0.35564   0.98833   0.00000  Uiso   1.00
H2429  H     0.64891   0.32969   0.93823   0.00000  Uiso   1.00
H2430  H     0.86978   0.23524   0.80393   0.00000  Uiso   1.00
H2431  H     0.71754   0.30107   0.92138   0.00000  Uiso   1.00
H2432  H     0.71856   0.29899   0.98213   0.00000  Uiso   1.00
H2433  H     0.74626   0.34065   0.95252   0.00000  Uiso   1.00
H2434  H     0.86986   0.48046   0.91144   0.00000  Uiso   1.00
H2435  H     0.91505   0.44742   0.89920   0.00000  Uiso   1.00
H2436  H     0.87159   0.44816   0.99155   0.00000  Uiso   1.00
H2437  H     0.91986   0.42041   0.97634   0.00000  Uiso   1.00
H2438  H     0.95411   0.49287   0.95702   0.00000  Uiso   1.00
H2439  H     0.93804   0.48937   0.68107   0.00000  Uiso   1.00
H2440  H     0.90445   0.01816   0.97505   0.00000  Uiso   1.00
N2441  N     0.50000   0.25000   0.95240   0.00000  Uiso   1.00
N2442  N     0.50000   0.25000   0.71427   0.00000  Uiso   1.00
N2443  N     0.75000   0.00000   0.95240   0.00000  Uiso   1.00
N2444  N     0.75000   0.00000   0.71427   0.00000  Uiso   1.00
O2445  O     0.54580   0.20419   0.87154   0.00000  Uiso   1.00
O2446  O     0.70419   0.04581   0.79513   0.00000  Uiso   1.00
O2447  O     0.70419   0.04581   0.87154   0.00000  Uiso   1.00
O2448  O     0.79580   0.45419   0.79513   0.00000  Uiso   1.00
O2449  O     0.70419   0.45419   0.79513   0.00000  Uiso   1.00
O2450  O     0.79580   0.04581   0.87154   0.00000  Uiso   1.00
O2451  O     0.79580   0.04581   0.79513   0.00000  Uiso   1.00
O2452  O     0.70419   0.45419   0.87154   0.00000  Uiso   1.00
O2453  O     0.87782   0.18158   0.76310   0.00000  Uiso   1.00
O2454  O     0.56983   0.36854   0.90842   0.00000  Uiso   1.00
O2455  O     0.61710   0.32432   0.76021   0.00000  Uiso   1.00
O2456  O     0.95419   0.29581   0.79513   0.00000  Uiso   1.00
O2457  O     0.92911   0.13353   0.90838   0.00000  Uiso   1.00
O2458  O     0.59684   0.15194   0.91495   0.00000  Uiso   1.00
O2459  O     0.92173   0.36272   0.75492   0.00000  Uiso   1.00
O2460  O     0.90607   0.34476   0.91511   0.00000  Uiso   1.00
O2461  O     0.60070   0.15948   0.75164   0.00000  Uiso   1.00
O2462  O     0.65444   0.40348   0.75234   0.00000  Uiso   1.00
O2463  O     0.85332   0.08771   0.91468   0.00000  Uiso   1.00
O2464  O     0.83577   0.10554   0.75321   0.00000  Uiso   1.00
O2465  O     0.64627   0.41157   0.91532   0.00000  Uiso   1.00
O2466  O     0.85558   0.41561   0.91380   0.00000  Uiso   1.00
O2467  O     0.95419   0.29581   0.87154   0.00000  Uiso   1.00
O2468  O     0.67846   0.11935   0.75950   0.00000  Uiso   1.00
O2469  O     0.62959   0.06948   0.90491   0.00000  Uiso   1.00
O2470  O     0.84159   0.40314   0.75261   0.00000  Uiso   1.00
O2471  O     0.54580   0.20419   0.79513   0.00000  Uiso   1.00
O2472  O     0.95419   0.20419   0.79513   0.00000  Uiso   1.00
O2473  O     0.54580   0.29581   0.87154   0.00000  Uiso   1.00
O2474  O     0.54580   0.29581   0.79513   0.00000  Uiso   1.00
O2475  O     0.95419   0.20419   0.87154   0.00000  Uiso   1.00
O2476  O     0.79580   0.45419   0.87154   0.00000  Uiso   1.00
Zn2477 Zn    0.50000   0.25000   0.88437   0.00000  Uiso   1.00
Zn2478 Zn    0.50000   0.25000   0.78229   0.00000  Uiso   1.00
Zn2479 Zn    0.75000   0.00000   0.88437   0.00000  Uiso   1.00
Zn2480 Zn    0.75000   0.00000   0.78229   0.00000  Uiso   1.00
C2481  C     0.06031   0.69019   0.83343   0.00000  Uiso   1.00
C2482  C     0.48008   0.71811   0.97617   0.00000  Uiso   1.00
C2483  C     0.48127   0.71733   0.69037   0.00000  Uiso   1.00
C2484  C     0.01901   0.78246   0.97631   0.00000  Uiso   1.00
C2485  C     0.21279   0.50698   0.69010   0.00000  Uiso   1.00
C2486  C     0.28720   0.99388   0.97670   0.00000  Uiso   1.00
C2487  C     0.28719   0.99321   0.69089   0.00000  Uiso   1.00
C2488  C     0.21275   0.50681   0.97583   0.00000  Uiso   1.00
C2489  C     0.37965   0.65169   0.79715   0.00000  Uiso   1.00
C2490  C     0.09649   0.87110   0.87157   0.00000  Uiso   1.00
C2491  C     0.11565   0.85280   0.79544   0.00000  Uiso   1.00
C2492  C     0.44107   0.81088   0.83332   0.00000  Uiso   1.00
C2493  C     0.40217   0.62971   0.87157   0.00000  Uiso   1.00
C2494  C     0.10781   0.63704   0.87335   0.00000  Uiso   1.00
C2495  C     0.39786   0.86646   0.79359   0.00000  Uiso   1.00
C2496  C     0.39316   0.86130   0.87425   0.00000  Uiso   1.00
C2497  C     0.11427   0.64512   0.79309   0.00000  Uiso   1.00
C2498  C     0.14096   0.88940   0.79354   0.00000  Uiso   1.00
C2499  C     0.36593   0.60319   0.87345   0.00000  Uiso   1.00
C2500  C     0.35401   0.61531   0.79408   0.00000  Uiso   1.00
C2501  C     0.13258   0.89768   0.87371   0.00000  Uiso   1.00
C2502  C     0.36466   0.89575   0.87386   0.00000  Uiso   1.00
C2503  C     0.44045   0.68970   0.83347   0.00000  Uiso   1.00
C2504  C     0.15124   0.61998   0.79545   0.00000  Uiso   1.00
C2505  C     0.13182   0.59950   0.87066   0.00000  Uiso   1.00
C2506  C     0.36125   0.89272   0.79292   0.00000  Uiso   1.00
C2507  C     0.09069   0.84511   0.83352   0.00000  Uiso   1.00
C2508  C     0.40725   0.65660   0.83411   0.00000  Uiso   1.00
C2509  C     0.41030   0.84638   0.83373   0.00000  Uiso   1.00
C2510  C     0.09423   0.65729   0.83330   0.00000  Uiso   1.00
C2511  C     0.34393   0.59266   0.83346   0.00000  Uiso   1.00
C2512  C     0.15362   0.90950   0.83354   0.00000  Uiso   1.00
C2513  C     0.15803   0.59387   0.83310   0.00000  Uiso   1.00
C2514  C     0.05939   0.81035   0.83342   0.00000  Uiso   1.00
C2515  C     0.34552   0.90909   0.83342   0.00000  Uiso   1.00
C2516  C     0.35243   0.71672   0.77752   0.00000  Uiso   1.00
C2517  C     0.34337   0.74693   0.73845   0.00000  Uiso   1.00
C2518  C     0.38437   0.75648   0.71228   0.00000  Uiso   1.00
C2519  C     0.02761   0.88373   0.89725   0.00000  Uiso   1.00
C2520  C     0.01240   0.91580   0.93195   0.00000  Uiso   1.00
C2521  C     0.00650   0.89510   0.97745   0.00000  Uiso   1.00
C2522  C     0.14691   0.79128   0.77197   0.00000  Uiso   1.00
C2523  C     0.15676   0.76343   0.73156   0.00000  Uiso   1.00
C2524  C     0.11560   0.74845   0.70800   0.00000  Uiso   1.00
C2525  C     0.31048   0.94051   0.83343   0.00000  Uiso   1.00
C2526  C     0.45058   0.59387   0.91636   0.00000  Uiso   1.00
C2527  C     0.47870   0.59854   0.95809   0.00000  Uiso   1.00
C2528  C     0.02034   0.62199   0.94789   0.00000  Uiso   1.00
C2529  C     0.12027   0.68981   0.92454   0.00000  Uiso   1.00
C2530  C     0.16229   0.67911   0.94936   0.00000  Uiso   1.00
C2531  C     0.18825   0.72025   0.95550   0.00000  Uiso   1.00
C2532  C     0.46119   0.88572   0.76001   0.00000  Uiso   1.00
C2533  C     0.45391   0.93436   0.76630   0.00000  Uiso   1.00
C2534  C     0.49612   0.95922   0.76317   0.00000  Uiso   1.00
C2535  C     0.38244   0.80668   0.92349   0.00000  Uiso   1.00
C2536  C     0.19095   0.56062   0.83316   0.00000  Uiso   1.00
C2537  C     0.34002   0.81698   0.94640   0.00000  Uiso   1.00
C2538  C     0.31520   0.77567   0.95507   0.00000  Uiso   1.00
C2539  C     0.06461   0.63481   0.73730   0.00000  Uiso   1.00
C2540  C     0.07755   0.59020   0.71927   0.00000  Uiso   1.00
C2541  C     0.06917   0.55468   0.75342   0.00000  Uiso   1.00
C2542  C     0.12389   0.93399   0.73622   0.00000  Uiso   1.00
C2543  C     0.12458   0.93390   0.68553   0.00000  Uiso   1.00
C2544  C     0.09792   0.97064   0.99916   0.00000  Uiso   1.00
C2545  C     0.31574   0.61007   0.92821   0.00000  Uiso   1.00
C2546  C     0.32671   0.65001   0.95537   0.00000  Uiso   1.00
C2547  C     0.18885   0.94106   0.83332   0.00000  Uiso   1.00
C2548  C     0.28569   0.67668   0.96055   0.00000  Uiso   1.00
C2549  C     0.36133   0.57384   0.73197   0.00000  Uiso   1.00
C2550  C     0.40286   0.59255   0.71191   0.00000  Uiso   1.00
C2551  C     0.44327   0.58053   0.73912   0.00000  Uiso   1.00
C2552  C     0.18485   0.88931   0.92728   0.00000  Uiso   1.00
C2553  C     0.17622   0.84796   0.95332   0.00000  Uiso   1.00
C2554  C     0.21695   0.82025   0.95253   0.00000  Uiso   1.00
C2555  C     0.38563   0.94939   0.92043   0.00000  Uiso   1.00
C2556  C     0.40007   0.94951   0.96931   0.00000  Uiso   1.00
C2557  C     0.42597   0.98994   0.97958   0.00000  Uiso   1.00
C2558  C     0.31026   0.55974   0.83336   0.00000  Uiso   1.00
C2559  C     0.21529   0.64426   0.77052   0.00000  Uiso   1.00
C2560  C     0.24305   0.64921   0.72934   0.00000  Uiso   1.00
C2561  C     0.24984   0.60584   0.70673   0.00000  Uiso   1.00
C2562  C     0.11135   0.53067   0.88808   0.00000  Uiso   1.00
C2563  C     0.06191   0.53115   0.89066   0.00000  Uiso   1.00
C2564  C     0.04259   0.99641   0.86100   0.00000  Uiso   1.00
C2565  C     0.32187   0.86541   0.73595   0.00000  Uiso   1.00
C2566  C     0.28910   0.87619   0.69939   0.00000  Uiso   1.00
C2567  C     0.24595   0.89063   0.71803   0.00000  Uiso   1.00
C2568  C     0.01789   0.78313   0.69051   0.00000  Uiso   1.00
H2569  H     0.03254   0.80981   0.70813   0.00000  Uiso   1.00
H2570  H     0.32066   0.70594   0.79099   0.00000  Uiso   1.00
H2571  H     0.23517   0.62823   0.79701   0.00000  Uiso   1.00
H2572  H     0.20622   0.67703   0.78240   0.00000  Uiso   1.00
H2573  H     0.22664   0.67156   0.70585   0.00000  Uiso   1.00
H2574  H     0.27473   0.66338   0.73897   0.00000  Uiso   1.00
H2575  H     0.25462   0.58029   0.73199   0.00000  Uiso   1.00
H2576  H     0.27912   0.60655   0.68621   0.00000  Uiso   1.00
H2577  H     0.22145   0.59790   0.68528   0.00000  Uiso   1.00
H2578  H     0.12435   0.50353   0.90798   0.00000  Uiso   1.00
H2579  H     0.12093   0.52285   0.85334   0.00000  Uiso   1.00
H2580  H     0.05177   0.52575   0.92569   0.00000  Uiso   1.00
H2581  H     0.31884   0.73237   0.71599   0.00000  Uiso   1.00
H2582  H     0.04916   0.56264   0.87869   0.00000  Uiso   1.00
H2583  H     0.04691   0.50562   0.82574   0.00000  Uiso   1.00
H2584  H     0.00748   0.99276   0.86769   0.00000  Uiso   1.00
H2585  H     0.05966   0.96540   0.86645   0.00000  Uiso   1.00
H2586  H     0.30496   0.84671   0.76253   0.00000  Uiso   1.00
H2587  H     0.34712   0.84475   0.72109   0.00000  Uiso   1.00
H2588  H     0.30223   0.90080   0.67622   0.00000  Uiso   1.00
H2589  H     0.28300   0.84631   0.68082   0.00000  Uiso   1.00
H2590  H     0.23101   0.86424   0.73768   0.00000  Uiso   1.00
H2591  H     0.22389   0.89962   0.69028   0.00000  Uiso   1.00
H2592  H     0.32966   0.77713   0.75172   0.00000  Uiso   1.00
H2593  H     0.25051   0.91897   0.73940   0.00000  Uiso   1.00
H2594  H     0.41190   0.76279   0.73507   0.00000  Uiso   1.00
H2595  H     0.37987   0.78523   0.69113   0.00000  Uiso   1.00
H2596  H     0.39220   0.72870   0.69055   0.00000  Uiso   1.00
H2597  H     0.00449   0.85657   0.89718   0.00000  Uiso   1.00
H2598  H     0.02481   0.89938   0.86372   0.00000  Uiso   1.00
H2599  H     0.03559   0.94256   0.93492   0.00000  Uiso   1.00
H2600  H     0.48120   0.92947   0.92056   0.00000  Uiso   1.00
H2601  H     0.46326   0.69291   0.95857   0.00000  Uiso   1.00
H2602  H     0.48202   0.86900   0.97563   0.00000  Uiso   1.00
H2603  H     0.49482   0.92011   0.66723   0.00000  Uiso   1.00
H2604  H     0.03763   0.88206   0.99049   0.00000  Uiso   1.00
H2605  H     0.13327   0.77022   0.79851   0.00000  Uiso   1.00
H2606  H     0.17835   0.80468   0.78427   0.00000  Uiso   1.00
H2607  H     0.17675   0.78209   0.70792   0.00000  Uiso   1.00
H2608  H     0.17584   0.73496   0.74262   0.00000  Uiso   1.00
H2609  H     0.08954   0.74213   0.73227   0.00000  Uiso   1.00
H2610  H     0.12181   0.71820   0.68990   0.00000  Uiso   1.00
H2611  H     0.10487   0.77342   0.68371   0.00000  Uiso   1.00
H2612  H     0.46622   0.69085   0.70786   0.00000  Uiso   1.00
H2613  H     0.47083   0.58460   0.88731   0.00000  Uiso   1.00
H2614  H     0.42762   0.56726   0.92259   0.00000  Uiso   1.00
H2615  H     0.46088   0.61772   0.98299   0.00000  Uiso   1.00
H2616  H     0.48621   0.56639   0.97273   0.00000  Uiso   1.00
H2617  H     0.01739   0.64069   0.91643   0.00000  Uiso   1.00
H2618  H     0.04720   0.59858   0.94573   0.00000  Uiso   1.00
H2619  H     0.02855   0.64480   0.97472   0.00000  Uiso   1.00
H2620  H     0.09971   0.71012   0.94628   0.00000  Uiso   1.00
H2621  H     0.12743   0.70992   0.89451   0.00000  Uiso   1.00
H2622  H     0.15491   0.66441   0.98227   0.00000  Uiso   1.00
H2623  H     0.03515   0.80810   0.95884   0.00000  Uiso   1.00
H2624  H     0.18172   0.65561   0.93005   0.00000  Uiso   1.00
H2625  H     0.20609   0.72736   0.92438   0.00000  Uiso   1.00
H2626  H     0.21139   0.71724   0.98361   0.00000  Uiso   1.00
H2627  H     0.16645   0.74769   0.96288   0.00000  Uiso   1.00
H2628  H     0.48040   0.88017   0.72966   0.00000  Uiso   1.00
H2629  H     0.48137   0.87308   0.78809   0.00000  Uiso   1.00
H2630  H     0.43037   0.94638   0.74102   0.00000  Uiso   1.00
H2631  H     0.44025   0.94039   0.79989   0.00000  Uiso   1.00
H2632  H     0.02130   0.94410   0.78483   0.00000  Uiso   1.00
H2633  H     0.49053   0.99272   0.77430   0.00000  Uiso   1.00
H2634  H     0.18301   0.51324   0.70755   0.00000  Uiso   1.00
H2635  H     0.00767   0.96015   0.72842   0.00000  Uiso   1.00
H2636  H     0.40260   0.78613   0.94597   0.00000  Uiso   1.00
H2637  H     0.37578   0.78705   0.89299   0.00000  Uiso   1.00
H2638  H     0.34753   0.83388   0.97789   0.00000  Uiso   1.00
H2639  H     0.31967   0.83852   0.92525   0.00000  Uiso   1.00
H2640  H     0.29667   0.76686   0.92455   0.00000  Uiso   1.00
H2641  H     0.29266   0.77976   0.98318   0.00000  Uiso   1.00
H2642  H     0.33774   0.74904   0.96380   0.00000  Uiso   1.00
H2643  H     0.04890   0.65339   0.71017   0.00000  Uiso   1.00
H2644  H     0.03921   0.63174   0.76327   0.00000  Uiso   1.00
H2645  H     0.31709   0.98996   0.95944   0.00000  Uiso   1.00
H2646  H     0.05759   0.58278   0.68938   0.00000  Uiso   1.00
H2647  H     0.11202   0.58978   0.70903   0.00000  Uiso   1.00
H2648  H     0.08972   0.55874   0.78351   0.00000  Uiso   1.00
H2649  H     0.07626   0.52275   0.73896   0.00000  Uiso   1.00
H2650  H     0.03468   0.55518   0.76339   0.00000  Uiso   1.00
H2651  H     0.13272   0.96648   0.74882   0.00000  Uiso   1.00
H2652  H     0.08992   0.92682   0.74640   0.00000  Uiso   1.00
H2653  H     0.15834   0.93695   0.67394   0.00000  Uiso   1.00
H2654  H     0.11130   0.90284   0.67333   0.00000  Uiso   1.00
H2655  H     0.06419   0.96969   0.67803   0.00000  Uiso   1.00
H2656  H     0.31718   0.98742   0.70888   0.00000  Uiso   1.00
H2657  H     0.09724   0.96691   0.96269   0.00000  Uiso   1.00
H2658  H     0.11272   0.50224   0.67380   0.00000  Uiso   1.00
H2659  H     0.29657   0.58772   0.94909   0.00000  Uiso   1.00
H2660  H     0.29390   0.61961   0.89985   0.00000  Uiso   1.00
H2661  H     0.33974   0.64042   0.98857   0.00000  Uiso   1.00
H2662  H     0.35148   0.66981   0.93829   0.00000  Uiso   1.00
H2663  H     0.27951   0.69529   0.92950   0.00000  Uiso   1.00
H2664  H     0.28880   0.69841   0.98948   0.00000  Uiso   1.00
H2665  H     0.25707   0.65591   0.96577   0.00000  Uiso   1.00
H2666  H     0.34165   0.56112   0.70390   0.00000  Uiso   1.00
H2667  H     0.18279   0.51243   0.95793   0.00000  Uiso   1.00
H2668  H     0.36837   0.54558   0.75401   0.00000  Uiso   1.00
H2669  H     0.40635   0.57958   0.67789   0.00000  Uiso   1.00
H2670  H     0.40063   0.62798   0.70804   0.00000  Uiso   1.00
H2671  H     0.44004   0.58995   0.77456   0.00000  Uiso   1.00
H2672  H     0.47196   0.59710   0.72533   0.00000  Uiso   1.00
H2673  H     0.44871   0.54529   0.73744   0.00000  Uiso   1.00
H2674  H     0.20483   0.91102   0.94837   0.00000  Uiso   1.00
H2675  H     0.20553   0.88121   0.89807   0.00000  Uiso   1.00
H2676  H     0.16797   0.85564   0.98833   0.00000  Uiso   1.00
H2677  H     0.14891   0.82969   0.93823   0.00000  Uiso   1.00
H2678  H     0.36978   0.73524   0.80393   0.00000  Uiso   1.00
H2679  H     0.21754   0.80107   0.92138   0.00000  Uiso   1.00
H2680  H     0.21856   0.79899   0.98213   0.00000  Uiso   1.00
H2681  H     0.24626   0.84065   0.95252   0.00000  Uiso   1.00
H2682  H     0.36986   0.98046   0.91144   0.00000  Uiso   1.00
H2683  H     0.41505   0.94742   0.89920   0.00000  Uiso   1.00
H2684  H     0.37159   0.94816   0.99155   0.00000  Uiso   1.00
H2685  H     0.41986   0.92041   0.97634   0.00000  Uiso   1.00
H2686  H     0.45411   0.99287   0.95702   0.00000  Uiso   1.00
H2687  H     0.43804   0.98937   0.68107   0.00000  Uiso   1.00
H2688  H     0.40445   0.51816   0.97505   0.00000  Uiso   1.00
N2689  N     0.00000   0.75000   0.95240   0.00000  Uiso   1.00
N2690  N    -0.00000   0.75000   0.71427   0.00000  Uiso   1.00
N2691  N     0.25000   0.50000   0.95240   0.00000  Uiso   1.00
N2692  N     0.25000   0.50000   0.71427   0.00000  Uiso   1.00
O2693  O     0.04580   0.70419   0.87154   0.00000  Uiso   1.00
O2694  O     0.20419   0.54581   0.79513   0.00000  Uiso   1.00
O2695  O     0.20419   0.54581   0.87154   0.00000  Uiso   1.00
O2696  O     0.29580   0.95419   0.79513   0.00000  Uiso   1.00
O2697  O     0.20419   0.95419   0.79513   0.00000  Uiso   1.00
O2698  O     0.29580   0.54581   0.87154   0.00000  Uiso   1.00
O2699  O     0.29580   0.54581   0.79513   0.00000  Uiso   1.00
O2700  O     0.20419   0.95419   0.87154   0.00000  Uiso   1.00
O2701  O     0.37782   0.68158   0.76310   0.00000  Uiso   1.00
O2702  O     0.06983   0.86854   0.90842   0.00000  Uiso   1.00
O2703  O     0.11710   0.82432   0.76021   0.00000  Uiso   1.00
O2704  O     0.45419   0.79581   0.79513   0.00000  Uiso   1.00
O2705  O     0.42911   0.63353   0.90838   0.00000  Uiso   1.00
O2706  O     0.09684   0.65194   0.91495   0.00000  Uiso   1.00
O2707  O     0.42173   0.86272   0.75492   0.00000  Uiso   1.00
O2708  O     0.40607   0.84476   0.91511   0.00000  Uiso   1.00
O2709  O     0.10070   0.65948   0.75164   0.00000  Uiso   1.00
O2710  O     0.15444   0.90348   0.75234   0.00000  Uiso   1.00
O2711  O     0.35332   0.58771   0.91468   0.00000  Uiso   1.00
O2712  O     0.33577   0.60554   0.75321   0.00000  Uiso   1.00
O2713  O     0.14627   0.91157   0.91532   0.00000  Uiso   1.00
O2714  O     0.35558   0.91561   0.91380   0.00000  Uiso   1.00
O2715  O     0.45419   0.79581   0.87154   0.00000  Uiso   1.00
O2716  O     0.17846   0.61935   0.75950   0.00000  Uiso   1.00
O2717  O     0.12959   0.56948   0.90491   0.00000  Uiso   1.00
O2718  O     0.34159   0.90314   0.75261   0.00000  Uiso   1.00
O2719  O     0.04580   0.70419   0.79513   0.00000  Uiso   1.00
O2720  O     0.45419   0.70419   0.79513   0.00000  Uiso   1.00
O2721  O     0.04580   0.79581   0.87154   0.00000  Uiso   1.00
O2722  O     0.04580   0.79581   0.79513   0.00000  Uiso   1.00
O2723  O     0.45419   0.70419   0.87154   0.00000  Uiso   1.00
O2724  O     0.29580   0.95419   0.87154   0.00000  Uiso   1.00
Zn2725 Zn    0.00000   0.75000   0.88437   0.00000  Uiso   1.00
Zn2726 Zn   -0.00000   0.75000   0.78229   0.00000  Uiso   1.00
Zn2727 Zn    0.25000   0.50000   0.88437   0.00000  Uiso   1.00
Zn2728 Zn    0.25000   0.50000   0.78229   0.00000  Uiso   1.00
C2729  C     0.56031   0.69019   0.83343   0.00000  Uiso   1.00
C2730  C     0.98008   0.71811   0.97617   0.00000  Uiso   1.00
C2731  C     0.98127   0.71733   0.69037   0.00000  Uiso   1.00
C2732  C     0.51901   0.78246   0.97631   0.00000  Uiso   1.00
C2733  C     0.71279   0.50698   0.69010   0.00000  Uiso   1.00
C2734  C     0.78720   0.99388   0.97670   0.00000  Uiso   1.00
C2735  C     0.78719   0.99321   0.69089   0.00000  Uiso   1.00
C2736  C     0.71275   0.50681   0.97583   0.00000  Uiso   1.00
C2737  C     0.87965   0.65169   0.79715   0.00000  Uiso   1.00
C2738  C     0.59649   0.87110   0.87157   0.00000  Uiso   1.00
C2739  C     0.61565   0.85280   0.79544   0.00000  Uiso   1.00
C2740  C     0.94107   0.81088   0.83332   0.00000  Uiso   1.00
C2741  C     0.90217   0.62971   0.87157   0.00000  Uiso   1.00
C2742  C     0.60781   0.63704   0.87335   0.00000  Uiso   1.00
C2743  C     0.89786   0.86646   0.79359   0.00000  Uiso   1.00
C2744  C     0.89316   0.86130   0.87425   0.00000  Uiso   1.00
C2745  C     0.61427   0.64512   0.79309   0.00000  Uiso   1.00
C2746  C     0.64096   0.88940   0.79354   0.00000  Uiso   1.00
C2747  C     0.86593   0.60319   0.87345   0.00000  Uiso   1.00
C2748  C     0.85401   0.61531   0.79408   0.00000  Uiso   1.00
C2749  C     0.63258   0.89768   0.87371   0.00000  Uiso   1.00
C2750  C     0.86466   0.89575   0.87386   0.00000  Uiso   1.00
C2751  C     0.94045   0.68970   0.83347   0.00000  Uiso   1.00
C2752  C     0.65124   0.61998   0.79545   0.00000  Uiso   1.00
C2753  C     0.63182   0.59950   0.87066   0.00000  Uiso   1.00
C2754  C     0.86125   0.89272   0.79292   0.00000  Uiso   1.00
C2755  C     0.59069   0.84511   0.83352   0.00000  Uiso   1.00
C2756  C     0.90725   0.65660   0.83411   0.00000  Uiso   1.00
C2757  C     0.91030   0.84638   0.83373   0.00000  Uiso   1.00
C2758  C     0.59423   0.65729   0.83330   0.00000  Uiso   1.00
C2759  C     0.84393   0.59266   0.83346   0.00000  Uiso   1.00
C2760  C     0.65362   0.90950   0.83354   0.00000  Uiso   1.00
C2761  C     0.65803   0.59387   0.83310   0.00000  Uiso   1.00
C2762  C     0.55939   0.81035   0.83342   0.00000  Uiso   1.00
C2763  C     0.84552   0.90909   0.83342   0.00000  Uiso   1.00
C2764  C     0.85243   0.71672   0.77752   0.00000  Uiso   1.00
C2765  C     0.84337   0.74693   0.73845   0.00000  Uiso   1.00
C2766  C     0.88437   0.75648   0.71228   0.00000  Uiso   1.00
C2767  C     0.52761   0.88373   0.89725   0.00000  Uiso   1.00
C2768  C     0.51240   0.91580   0.93195   0.00000  Uiso   1.00
C2769  C     0.50650   0.89510   0.97745   0.00000  Uiso   1.00
C2770  C     0.64691   0.79128   0.77197   0.00000  Uiso   1.00
C2771  C     0.65676   0.76343   0.73156   0.00000  Uiso   1.00
C2772  C     0.61560   0.74845   0.70800   0.00000  Uiso   1.00
C2773  C     0.81048   0.94051   0.83343   0.00000  Uiso   1.00
C2774  C     0.95058   0.59387   0.91636   0.00000  Uiso   1.00
C2775  C     0.97870   0.59854   0.95809   0.00000  Uiso   1.00
C2776  C     0.52034   0.62199   0.94789   0.00000  Uiso   1.00
C2777  C     0.62027   0.68981   0.92454   0.00000  Uiso   1.00
C2778  C     0.66229   0.67911   0.94936   0.00000  Uiso   1.00
C2779  C     0.68825   0.72025   0.95550   0.00000  Uiso   1.00
C2780  C     0.96119   0.88572   0.76001   0.00000  Uiso   1.00
C2781  C     0.95391   0.93436   0.76630   0.00000  Uiso   1.00
C2782  C     0.99612   0.95922   0.76317   0.00000  Uiso   1.00
C2783  C     0.88244   0.80668   0.92349   0.00000  Uiso   1.00
C2784  C     0.69095   0.56062   0.83316   0.00000  Uiso   1.00
C2785  C     0.84002   0.81698   0.94640   0.00000  Uiso   1.00
C2786  C     0.81520   0.77567   0.95507   0.00000  Uiso   1.00
C2787  C     0.56461   0.63481   0.73730   0.00000  Uiso   1.00
C2788  C     0.57755   0.59020   0.71927   0.00000  Uiso   1.00
C2789  C     0.56917   0.55468   0.75342   0.00000  Uiso   1.00
C2790  C     0.62389   0.93399   0.73622   0.00000  Uiso   1.00
C2791  C     0.62458   0.93390   0.68553   0.00000  Uiso   1.00
C2792  C     0.59792   0.97064   0.99916   0.00000  Uiso   1.00
C2793  C     0.81574   0.61007   0.92821   0.00000  Uiso   1.00
C2794  C     0.82671   0.65001   0.95537   0.00000  Uiso   1.00
C2795  C     0.68885   0.94106   0.83332   0.00000  Uiso   1.00
C2796  C     0.78569   0.67668   0.96055   0.00000  Uiso   1.00
C2797  C     0.86133   0.57384   0.73197   0.00000  Uiso   1.00
C2798  C     0.90286   0.59255   0.71191   0.00000  Uiso   1.00
C2799  C     0.94327   0.58053   0.73912   0.00000  Uiso   1.00
C2800  C     0.68485   0.88931   0.92728   0.00000  Uiso   1.00
C2801  C     0.67622   0.84796   0.95332   0.00000  Uiso   1.00
C2802  C     0.71695   0.82025   0.95253   0.00000  Uiso   1.00
C2803  C     0.88563   0.94939   0.92043   0.00000  Uiso   1.00
C2804  C     0.90007   0.94951   0.96931   0.00000  Uiso   1.00
C2805  C     0.92597   0.98994   0.97958   0.00000  Uiso   1.00
C2806  C     0.81026   0.55974   0.83336   0.00000  Uiso   1.00
C2807  C     0.71529   0.64426   0.77052   0.00000  Uiso   1.00
C2808  C     0.74305   0.64921   0.72934   0.00000  Uiso   1.00
C2809  C     0.74984   0.60584   0.70673   0.00000  Uiso   1.00
C2810  C     0.61135   0.53067   0.88808   0.00000  Uiso   1.00
C2811  C     0.56191   0.53115   0.89066   0.00000  Uiso   1.00
C2812  C     0.54259   0.99641   0.86100   0.00000  Uiso   1.00
C2813  C     0.82187   0.86541   0.73595   0.00000  Uiso   1.00
C2814  C     0.78910   0.87619   0.69939   0.00000  Uiso   1.00
C2815  C     0.74595   0.89063   0.71803   0.00000  Uiso   1.00
C2816  C     0.51789   0.78313   0.69051   0.00000  Uiso   1.00
H2817  H     0.53254   0.80981   0.70813   0.00000  Uiso   1.00
H2818  H     0.82066   0.70594   0.79099   0.00000  Uiso   1.00
H2819  H     0.73517   0.62823   0.79701   0.00000  Uiso   1.00
H2820  H     0.70622   0.67703   0.78240   0.00000  Uiso   1.00
H2821  H     0.72664   0.67156   0.70585   0.00000  Uiso   1.00
H2822  H     0.77473   0.66338   0.73897   0.00000  Uiso   1.00
H2823  H     0.75462   0.58029   0.73199   0.00000  Uiso   1.00
H2824  H     0.77912   0.60655   0.68621   0.00000  Uiso   1.00
H2825  H     0.72145   0.59790   0.68528   0.00000  Uiso   1.00
H2826  H     0.62435   0.50353   0.90798   0.00000  Uiso   1.00
H2827  H     0.62093   0.52285   0.85334   0.00000  Uiso   1.00
H2828  H     0.55177   0.52575   0.92569   0.00000  Uiso   1.00
H2829  H     0.81884   0.73237   0.71599   0.00000  Uiso   1.00
H2830  H     0.54916   0.56264   0.87869   0.00000  Uiso   1.00
H2831  H     0.54691   0.50562   0.82574   0.00000  Uiso   1.00
H2832  H     0.50748   0.99276   0.86769   0.00000  Uiso   1.00
H2833  H     0.55966   0.96540   0.86645   0.00000  Uiso   1.00
H2834  H     0.80496   0.84671   0.76253   0.00000  Uiso   1.00
H2835  H     0.84712   0.84475   0.72109   0.00000  Uiso   1.00
H2836  H     0.80223   0.90080   0.67622   0.00000  Uiso   1.00
H2837  H     0.78300   0.84631   0.68082   0.00000  Uiso   1.00
H2838  H     0.73101   0.86424   0.73768   0.00000  Uiso   1.00
H2839  H     0.72389   0.89962   0.69028   0.00000  Uiso   1.00
H2840  H     0.82966   0.77713   0.75172   0.00000  Uiso   1.00
H2841  H     0.75051   0.91897   0.73940   0.00000  Uiso   1.00
H2842  H     0.91190   0.76279   0.73507   0.00000  Uiso   1.00
H2843  H     0.87987   0.78523   0.69113   0.00000  Uiso   1.00
H2844  H     0.89220   0.72870   0.69055   0.00000  Uiso   1.00
H2845  H     0.50449   0.85657   0.89718   0.00000  Uiso   1.00
H2846  H     0.52481   0.89938   0.86372   0.00000  Uiso   1.00
H2847  H     0.53559   0.94256   0.93492   0.00000  Uiso   1.00
H2848  H     0.98120   0.92947   0.92056   0.00000  Uiso   1.00
H2849  H     0.96326   0.69291   0.95857   0.00000  Uiso   1.00
H2850  H     0.98202   0.86900   0.97563   0.00000  Uiso   1.00
H2851  H     0.99482   0.92011   0.66723   0.00000  Uiso   1.00
H2852  H     0.53763   0.88206   0.99049   0.00000  Uiso   1.00
H2853  H     0.63327   0.77022   0.79851   0.00000  Uiso   1.00
H2854  H     0.67835   0.80468   0.78427   0.00000  Uiso   1.00
H2855  H     0.67675   0.78209   0.70792   0.00000  Uiso   1.00
H2856  H     0.67584   0.73496   0.74262   0.00000  Uiso   1.00
H2857  H     0.58954   0.74213   0.73227   0.00000  Uiso   1.00
H2858  H     0.62181   0.71820   0.68990   0.00000  Uiso   1.00
H2859  H     0.60487   0.77342   0.68371   0.00000  Uiso   1.00
H2860  H     0.96622   0.69085   0.70786   0.00000  Uiso   1.00
H2861  H     0.97083   0.58460   0.88731   0.00000  Uiso   1.00
H2862  H     0.92762   0.56726   0.92259   0.00000  Uiso   1.00
H2863  H     0.96088   0.61772   0.98299   0.00000  Uiso   1.00
H2864  H     0.98621   0.56639   0.97273   0.00000  Uiso   1.00
H2865  H     0.51739   0.64069   0.91643   0.00000  Uiso   1.00
H2866  H     0.54720   0.59858   0.94573   0.00000  Uiso   1.00
H2867  H     0.52855   0.64480   0.97472   0.00000  Uiso   1.00
H2868  H     0.59971   0.71012   0.94628   0.00000  Uiso   1.00
H2869  H     0.62743   0.70992   0.89451   0.00000  Uiso   1.00
H2870  H     0.65491   0.66441   0.98227   0.00000  Uiso   1.00
H2871  H     0.53515   0.80810   0.95884   0.00000  Uiso   1.00
H2872  H     0.68172   0.65561   0.93005   0.00000  Uiso   1.00
H2873  H     0.70609   0.72736   0.92438   0.00000  Uiso   1.00
H2874  H     0.71139   0.71724   0.98361   0.00000  Uiso   1.00
H2875  H     0.66645   0.74769   0.96288   0.00000  Uiso   1.00
H2876  H     0.98040   0.88017   0.72966   0.00000  Uiso   1.00
H2877  H     0.98137   0.87308   0.78809   0.00000  Uiso   1.00
H2878  H     0.93037   0.94638   0.74102   0.00000  Uiso   1.00
H2879  H     0.94025   0.94039   0.79989   0.00000  Uiso   1.00
H2880  H     0.52130   0.94410   0.78483   0.00000  Uiso   1.00
H2881  H     0.99053   0.99272   0.77430   0.00000  Uiso   1.00
H2882  H     0.68301   0.51324   0.70755   0.00000  Uiso   1.00
H2883  H     0.50767   0.96015   0.72842   0.00000  Uiso   1.00
H2884  H     0.90260   0.78613   0.94597   0.00000  Uiso   1.00
H2885  H     0.87578   0.78705   0.89299   0.00000  Uiso   1.00
H2886  H     0.84753   0.83388   0.97789   0.00000  Uiso   1.00
H2887  H     0.81967   0.83852   0.92525   0.00000  Uiso   1.00
H2888  H     0.79667   0.76686   0.92455   0.00000  Uiso   1.00
H2889  H     0.79266   0.77976   0.98318   0.00000  Uiso   1.00
H2890  H     0.83774   0.74904   0.96380   0.00000  Uiso   1.00
H2891  H     0.54890   0.65339   0.71017   0.00000  Uiso   1.00
H2892  H     0.53921   0.63174   0.76327   0.00000  Uiso   1.00
H2893  H     0.81709   0.98996   0.95944   0.00000  Uiso   1.00
H2894  H     0.55759   0.58278   0.68938   0.00000  Uiso   1.00
H2895  H     0.61202   0.58978   0.70903   0.00000  Uiso   1.00
H2896  H     0.58972   0.55874   0.78351   0.00000  Uiso   1.00
H2897  H     0.57626   0.52275   0.73896   0.00000  Uiso   1.00
H2898  H     0.53468   0.55518   0.76339   0.00000  Uiso   1.00
H2899  H     0.63272   0.96648   0.74882   0.00000  Uiso   1.00
H2900  H     0.58992   0.92682   0.74640   0.00000  Uiso   1.00
H2901  H     0.65834   0.93695   0.67394   0.00000  Uiso   1.00
H2902  H     0.61130   0.90284   0.67333   0.00000  Uiso   1.00
H2903  H     0.56419   0.96969   0.67803   0.00000  Uiso   1.00
H2904  H     0.81718   0.98742   0.70888   0.00000  Uiso   1.00
H2905  H     0.59724   0.96691   0.96269   0.00000  Uiso   1.00
H2906  H     0.61272   0.50224   0.67380   0.00000  Uiso   1.00
H2907  H     0.79657   0.58772   0.94909   0.00000  Uiso   1.00
H2908  H     0.79390   0.61961   0.89985   0.00000  Uiso   1.00
H2909  H     0.83974   0.64042   0.98857   0.00000  Uiso   1.00
H2910  H     0.85148   0.66981   0.93829   0.00000  Uiso   1.00
H2911  H     0.77951   0.69529   0.92950   0.00000  Uiso   1.00
H2912  H     0.78880   0.69841   0.98948   0.00000  Uiso   1.00
H2913  H     0.75707   0.65591   0.96577   0.00000  Uiso   1.00
H2914  H     0.84165   0.56112   0.70390   0.00000  Uiso   1.00
H2915  H     0.68279   0.51243   0.95793   0.00000  Uiso   1.00
H2916  H     0.86837   0.54558   0.75401   0.00000  Uiso   1.00
H2917  H     0.90635   0.57958   0.67789   0.00000  Uiso   1.00
H2918  H     0.90063   0.62798   0.70804   0.00000  Uiso   1.00
H2919  H     0.94004   0.58995   0.77456   0.00000  Uiso   1.00
H2920  H     0.97196   0.59710   0.72533   0.00000  Uiso   1.00
H2921  H     0.94871   0.54529   0.73744   0.00000  Uiso   1.00
H2922  H     0.70483   0.91102   0.94837   0.00000  Uiso   1.00
H2923  H     0.70553   0.88121   0.89807   0.00000  Uiso   1.00
H2924  H     0.66797   0.85564   0.98833   0.00000  Uiso   1.00
H2925  H     0.64891   0.82969   0.93823   0.00000  Uiso   1.00
H2926  H     0.86978   0.73524   0.80393   0.00000  Uiso   1.00
H2927  H     0.71754   0.80107   0.92138   0.00000  Uiso   1.00
H2928  H     0.71856   0.79899   0.98213   0.00000  Uiso   1.00
H2929  H     0.74626   0.84065   0.95252   0.00000  Uiso   1.00
H2930  H     0.86986   0.98046   0.91144   0.00000  Uiso   1.00
H2931  H     0.91505   0.94742   0.89920   0.00000  Uiso   1.00
H2932  H     0.87159   0.94816   0.99155   0.00000  Uiso   1.00
H2933  H     0.91986   0.92041   0.97634   0.00000  Uiso   1.00
H2934  H     0.95411   0.99287   0.95702   0.00000  Uiso   1.00
H2935  H     0.93804   0.98937   0.68107   0.00000  Uiso   1.00
H2936  H     0.90445   0.51816   0.97505   0.00000  Uiso   1.00
N2937  N     0.50000   0.75000   0.95240   0.00000  Uiso   1.00
N2938  N     0.50000   0.75000   0.71427   0.00000  Uiso   1.00
N2939  N     0.75000   0.50000   0.95240   0.00000  Uiso   1.00
N2940  N     0.75000   0.50000   0.71427   0.00000  Uiso   1.00
O2941  O     0.54580   0.70419   0.87154   0.00000  Uiso   1.00
O2942  O     0.70419   0.54581   0.79513   0.00000  Uiso   1.00
O2943  O     0.70419   0.54581   0.87154   0.00000  Uiso   1.00
O2944  O     0.79580   0.95419   0.79513   0.00000  Uiso   1.00
O2945  O     0.70419   0.95419   0.79513   0.00000  Uiso   1.00
O2946  O     0.79580   0.54581   0.87154   0.00000  Uiso   1.00
O2947  O     0.79580   0.54581   0.79513   0.00000  Uiso   1.00
O2948  O     0.70419   0.95419   0.87154   0.00000  Uiso   1.00
O2949  O     0.87782   0.68158   0.76310   0.00000  Uiso   1.00
O2950  O     0.56983   0.86854   0.90842   0.00000  Uiso   1.00
O2951  O     0.61710   0.82432   0.76021   0.00000  Uiso   1.00
O2952  O     0.95419   0.79581   0.79513   0.00000  Uiso   1.00
O2953  O     0.92911   0.63353   0.90838   0.00000  Uiso   1.00
O2954  O     0.59684   0.65194   0.91495   0.00000  Uiso   1.00
O2955  O     0.92173   0.86272   0.75492   0.00000  Uiso   1.00
O2956  O     0.90607   0.84476   0.91511   0.00000  Uiso   1.00
O2957  O     0.60070   0.65948   0.75164   0.00000  Uiso   1.00
O2958  O     0.65444   0.90348   0.75234   0.00000  Uiso   1.00
O2959  O     0.85332   0.58771   0.91468   0.00000  Uiso   1.00
O2960  O     0.83577   0.60554   0.75321   0.00000  Uiso   1.00
O2961  O     0.64627   0.91157   0.91532   0.00000  Uiso   1.00
O2962  O     0.85558   0.91561   0.91380   0.00000  Uiso   1.00
O2963  O     0.95419   0.79581   0.87154   0.00000  Uiso   1.00
O2964  O     0.67846   0.61935   0.75950   0.00000  Uiso   1.00
O2965  O     0.62959   0.56948   0.90491   0.00000  Uiso   1.00
O2966  O     0.84159   0.90314   0.75261   0.00000  Uiso   1.00
O2967  O     0.54580   0.70419   0.79513   0.00000  Uiso   1.00
O2968  O     0.95419   0.70419   0.79513   0.00000  Uiso   1.00
O2969  O     0.54580   0.79581   0.87154   0.00000  Uiso   1.00
O2970  O     0.54580   0.79581   0.79513   0.00000  Uiso   1.00
O2971  O     0.95419   0.70419   0.87154   0.00000  Uiso   1.00
O2972  O     0.79580   0.95419   0.87154   0.00000  Uiso   1.00
Zn2973 Zn    0.50000   0.75000   0.88437   0.00000  Uiso   1.00
Zn2974 Zn    0.50000   0.75000   0.78229   0.00000  Uiso   1.00
Zn2975 Zn    0.75000   0.50000   0.88437   0.00000  Uiso   1.00
Zn2976 Zn    0.75000   0.50000   0.78229   0.00000  Uiso   1.00
loop_
_geom_bond_atom_site_label_1
_geom_bond_atom_site_label_2
_geom_bond_distance
_geom_bond_site_symmetry_2
_ccdc_geom_bond_type
C1     O239    1.301   .     A
C1     O213    1.307   .     A
C1     C30     1.461   .     S
C2     H121    1.077   .     S
C2     C995    1.425   .     S
C2     N457    1.368   .     S
C3     N458    1.369   .     A
C3     H132    1.082   .     S
C3     C1986   1.425   1_554 S
C4     H143    1.077   .     S
C4     N209    1.368   .     A
C4     C1080   1.426   .     S
C5     H154    1.080   .     S
C5     N212    1.369   .     A
C5     C1992   1.427   1_554 S
C6     H165    1.069   .     S
C6     C999    1.424   .     S
C6     N707    1.366   .     S
C7     H176    1.081   .     S
C7     C1990   1.424   1_554 S
C7     N708    1.368   .     S
C8     N211    1.370   .     A
C8     H187    1.078   .     S
C8     C997    1.427   .     S
C9     C20     1.384   .     A
C9     O221    1.377   .     S
C9     C28     1.400   .     A
C10    C27     1.409   .     A
C10    C21     1.389   .     A
C10    O222    1.386   .     S
C11    C18     1.382   .     A
C11    O223    1.380   .     S
C11    C27     1.404   .     A
C12    O235    1.297   .     A
C12    O224    1.306   .     A
C12    C29     1.453   .     S
C13    O225    1.381   .     S
C13    C19     1.392   .     A
C13    C28     1.407   .     A
C14    O226    1.377   .     S
C14    C30     1.412   .     A
C14    C25     1.383   .     A
C15    C29     1.403   .     A
C15    C26     1.392   .     A
C15    O227    1.385   .     S
C16    O228    1.381   .     S
C16    C29     1.409   .     A
C16    C22     1.383   .     A
C17    C30     1.412   .     A
C17    C24     1.382   .     A
C17    O229    1.379   .     S
C18    O230    1.377   .     S
C18    C32     1.406   .     A
C19    C31     1.412   .     A
C19    O231    1.384   .     S
C20    O232    1.378   .     S
C20    C31     1.409   .     A
C21    O233    1.383   .     S
C21    C32     1.421   .     A
C22    C35     1.404   .     A
C22    O234    1.379   .     S
C23    C28     1.454   .     S
C23    O243    1.296   .     A
C23    O240    1.308   .     A
C24    O236    1.373   .     S
C24    C33     1.401   .     A
C25    O237    1.386   .     S
C25    C33     1.404   .     A
C26    O238    1.384   .     S
C26    C35     1.408   .     A
C27    C34     1.450   .     S
C31    C78     1.459   .     S
C32    C67     1.466   .     S
C33    C56     1.447   .     S
C34    O242    1.301   .     A
C34    O241    1.301   .     A
C35    C45     1.455   .     S
C36    H198    1.114   .     S
C36    C37     1.521   .     S
C36    H90     1.116   .     S
C36    O221    1.413   .     S
C37    H101    1.107   .     S
C37    H112    1.105   .     S
C37    C38     1.525   .     S
C38    H114    1.104   .     S
C38    H116    1.110   .     S
C38    H115    1.101   .     S
C39    O222    1.422   .     S
C39    C40     1.519   .     S
C39    H118    1.117   .     S
C39    H117    1.106   .     S
C40    C41     1.518   .     S
C40    H119    1.101   .     S
C40    H368    1.102   1_455 S
C41    H124    1.109   .     S
C41    H370    1.110   1_455 S
C41    H1363   1.104   1_455 S
C42    H125    1.114   .     S
C42    C43     1.523   .     S
C42    H126    1.117   .     S
C42    O223    1.417   .     S
C43    H127    1.107   .     S
C43    C44     1.522   .     S
C43    H128    1.109   .     S
C44    H131    1.109   .     S
C44    H130    1.103   .     S
C44    H129    1.107   .     S
C45    O216    1.300   .     A
C45    O244    1.305   .     A
C46    H134    1.106   .     S
C46    C47     1.523   .     S
C46    H133    1.115   .     S
C46    O225    1.415   .     S
C47    H136    1.112   .     S
C47    H135    1.106   .     S
C47    C296    1.513   .     S
C48    H137    1.109   .     S
C48    H139    1.101   .     S
C48    H138    1.104   .     S
C48    C295    1.513   1_455 S
C49    H141    1.118   .     S
C49    O226    1.410   .     S
C49    C50     1.525   .     S
C49    H140    1.111   .     S
C50    H142    1.111   .     S
C50    H144    1.111   .     S
C50    C51     1.520   .     S
C51    H145    1.110   .     S
C51    H147    1.109   .     S
C51    H146    1.103   .     S
C52    O227    1.421   .     S
C52    H149    1.112   .     S
C52    C53     1.538   .     S
C52    H148    1.105   .     S
C53    C54     1.520   .     S
C53    H150    1.108   .     S
C53    H151    1.112   .     S
C54    H153    1.107   .     S
C54    H400    1.110   .     S
C54    H403    1.104   .     S
C55    O228    1.413   .     S
C55    H156    1.111   .     S
C55    C57     1.519   .     S
C55    H157    1.118   .     S
C56    O214    1.300   .     A
C56    O215    1.299   .     A
C57    H158    1.104   .     S
C57    C58     1.518   .     S
C57    H159    1.109   .     S
C58    H160    1.110   .     S
C58    H161    1.106   .     S
C58    H162    1.108   .     S
C59    O229    1.418   .     S
C59    H164    1.115   .     S
C59    C60     1.541   .     S
C59    H163    1.103   .     S
C60    H167    1.111   .     S
C60    H166    1.108   .     S
C60    C61     1.526   .     S
C61    H169    1.105   .     S
C61    H168    1.105   .     S
C61    H170    1.109   .     S
C62    H171    1.111   .     S
C62    O230    1.415   .     S
C62    C63     1.520   .     S
C62    H172    1.118   .     S
C63    H173    1.106   .     S
C63    H174    1.110   .     S
C63    C2048   1.519   1_554 S
C64    H177    1.100   .     S
C64    C1055   1.519   .     S
C64    H1167   1.108   .     S
C64    H1666   1.109   .     S
C65    O231    1.414   .     S
C65    H179    1.109   .     S
C65    C66     1.522   .     S
C65    H180    1.118   .     S
C66    C68     1.521   .     S
C66    H182    1.110   .     S
C66    H181    1.109   .     S
C67    O220    1.302   .     A
C67    O217    1.308   .     A
C68    H183    1.108   .     S
C68    H185    1.107   .     S
C68    H184    1.104   .     S
C69    H188    1.116   .     S
C69    O232    1.417   .     S
C69    C70     1.536   .     S
C69    H186    1.108   .     S
C70    C71     1.528   .     S
C70    H190    1.107   .     S
C70    H189    1.104   .     S
C71    H193    1.108   .     S
C71    H192    1.109   .     S
C71    H191    1.108   .     S
C72    H195    1.118   .     S
C72    O233    1.418   .     S
C72    C73     1.525   .     S
C72    H194    1.110   .     S
C73    H196    1.109   .     S
C73    C74     1.522   .     S
C73    H197    1.111   .     S
C74    H199    1.109   .     S
C74    H201    1.106   .     S
C74    H200    1.105   .     S
C75    O234    1.415   .     S
C75    H202    1.110   .     S
C75    C76     1.527   .     S
C75    H203    1.116   .     S
C76    C77     1.520   .     S
C76    H205    1.107   .     S
C76    H204    1.110   .     S
C77    H206    1.110   .     S
C77    H1199   1.105   .     S
C77    H704    1.105   .     S
C78    O219    1.301   .     A
C78    O218    1.305   .     A
C79    O236    1.414   .     S
C79    H92     1.115   .     S
C79    H91     1.114   .     S
C79    C80     1.517   .     S
C80    C81     1.524   .     S
C80    H93     1.105   .     S
C80    H94     1.109   .     S
C81    H96     1.099   .     S
C81    H97     1.111   .     S
C81    H95     1.103   .     S
C82    H99     1.113   .     S
C82    O237    1.423   .     S
C82    H98     1.103   .     S
C82    C83     1.530   .     S
C83    H102    1.110   .     S
C83    H100    1.111   .     S
C83    C580    1.519   1_545 S
C84    H104    1.110   .     S
C84    H105    1.107   .     S
C84    C579    1.519   .     S
C84    H599    1.103   .     S
C85    O238    1.412   .     S
C85    C86     1.520   .     S
C85    H106    1.118   .     S
C85    H107    1.106   .     S
C86    H109    1.099   .     S
C86    C87     1.517   .     S
C86    H108    1.111   .     S
C87    H110    1.111   .     S
C87    H111    1.105   .     S
C87    H113    1.098   .     S
C88    H89     1.081   .     S
C88    C1988   1.426   1_554 S
C88    N210    1.369   .     S
H103   C580    1.103   1_545 S
H120   C288    1.102   .     S
H122   C289    1.110   .     S
H123   C2273   1.104   1_554 S
H152   C302    1.110   1_455 S
H155   C302    1.104   1_455 S
H175   C2048   1.108   1_554 S
H178   C2544   1.109   1_544 S
H207   C2061   1.105   1_554 S
H208   C573    1.105   1_545 S
N209   Zn245   2.039   .     S
N209   C250    1.368   1_455 S
N210   C251    1.369   1_455 A
N210   Zn246   2.039   .     S
N211   Zn247   2.039   .     S
N211   C502    1.366   1_545 S
N212   Zn248   2.039   .     S
N212   C503    1.368   1_545 S
O213   Zn245   2.043   .     S
O214   Zn248   2.043   .     S
O215   Zn247   2.036   .     S
O216   Zn744   2.036   .     S
O217   Zn744   2.046   .     S
O218   Zn247   2.046   .     S
O219   Zn248   2.043   .     S
O220   Zn743   2.043   .     S
O224   Zn494   2.043   .     S
O235   Zn493   2.036   .     S
O239   Zn246   2.036   .     S
O240   Zn494   2.046   .     S
O241   Zn245   2.046   .     S
O242   Zn246   2.043   .     S
O243   Zn493   2.043   .     S
O244   Zn743   2.043   .     S
Zn245  O491    2.043   1_455 S
Zn245  O483    2.036   1_455 S
Zn246  O488    2.046   1_455 S
Zn246  O472    2.043   1_455 S
Zn247  O716    2.043   1_545 S
Zn247  O740    2.043   1_545 S
Zn248  O713    2.046   1_545 S
Zn248  O712    2.036   1_545 S
C249   O487    1.301   .     A
C249   O461    1.307   .     A
C249   C278    1.461   .     S
C250   H369    1.077   .     S
C250   C1243   1.425   .     S
C250   N209    1.368   1_655 S
C251   N210    1.369   1_655 A
C251   H380    1.082   .     S
C251   C2234   1.425   1_554 S
C252   H391    1.077   .     S
C252   N457    1.368   .     A
C252   C1328   1.426   .     S
C253   H402    1.080   .     S
C253   N460    1.369   .     A
C253   C2240   1.427   1_554 S
C254   H413    1.069   .     S
C254   C1247   1.424   .     S
C254   N955    1.366   .     S
C255   H424    1.081   .     S
C255   C2238   1.424   1_554 S
C255   N956    1.368   .     S
C256   N459    1.370   .     A
C256   H435    1.078   .     S
C256   C1245   1.427   .     S
C257   C268    1.384   .     A
C257   O469    1.377   .     S
C257   C276    1.400   .     A
C258   C275    1.409   .     A
C258   C269    1.389   .     A
C258   O470    1.386   .     S
C259   C266    1.382   .     A
C259   O471    1.380   .     S
C259   C275    1.404   .     A
C260   O483    1.297   .     A
C260   O472    1.306   .     A
C260   C277    1.453   .     S
C261   O473    1.381   .     S
C261   C267    1.392   .     A
C261   C276    1.407   .     A
C262   O474    1.377   .     S
C262   C278    1.412   .     A
C262   C273    1.383   .     A
C263   C277    1.403   .     A
C263   C274    1.392   .     A
C263   O475    1.385   .     S
C264   O476    1.381   .     S
C264   C277    1.409   .     A
C264   C270    1.383   .     A
C265   C278    1.412   .     A
C265   C272    1.382   .     A
C265   O477    1.379   .     S
C266   O478    1.377   .     S
C266   C280    1.406   .     A
C267   C279    1.412   .     A
C267   O479    1.384   .     S
C268   O480    1.378   .     S
C268   C279    1.409   .     A
C269   O481    1.383   .     S
C269   C280    1.421   .     A
C270   C283    1.404   .     A
C270   O482    1.379   .     S
C271   C276    1.454   .     S
C271   O491    1.296   .     A
C271   O488    1.308   .     A
C272   O484    1.373   .     S
C272   C281    1.401   .     A
C273   O485    1.386   .     S
C273   C281    1.404   .     A
C274   O486    1.384   .     S
C274   C283    1.408   .     A
C275   C282    1.450   .     S
C279   C326    1.459   .     S
C280   C315    1.466   .     S
C281   C304    1.447   .     S
C282   O490    1.301   .     A
C282   O489    1.301   .     A
C283   C293    1.455   .     S
C284   H446    1.114   .     S
C284   C285    1.521   .     S
C284   H338    1.116   .     S
C284   O469    1.413   .     S
C285   H349    1.107   .     S
C285   H360    1.105   .     S
C285   C286    1.525   .     S
C286   H362    1.104   .     S
C286   H364    1.110   .     S
C286   H363    1.101   .     S
C287   O470    1.422   .     S
C287   C288    1.519   .     S
C287   H366    1.117   .     S
C287   H365    1.106   .     S
C288   C289    1.518   .     S
C288   H367    1.101   .     S
C289   H372    1.109   .     S
C289   H1115   1.104   .     S
C290   H373    1.114   .     S
C290   C291    1.523   .     S
C290   H374    1.117   .     S
C290   O471    1.417   .     S
C291   H375    1.107   .     S
C291   C292    1.522   .     S
C291   H376    1.109   .     S
C292   H379    1.109   .     S
C292   H378    1.103   .     S
C292   H377    1.107   .     S
C293   O464    1.300   .     A
C293   O492    1.305   .     A
C294   H382    1.106   .     S
C294   C295    1.523   .     S
C294   H381    1.115   .     S
C294   O473    1.415   .     S
C295   H384    1.112   .     S
C295   H383    1.106   .     S
C295   C48     1.513   1_655 S
C296   H385    1.109   .     S
C296   H387    1.101   .     S
C296   H386    1.104   .     S
C297   H389    1.118   .     S
C297   O474    1.410   .     S
C297   C298    1.525   .     S
C297   H388    1.111   .     S
C298   H390    1.111   .     S
C298   H392    1.111   .     S
C298   C299    1.520   .     S
C299   H393    1.110   .     S
C299   H395    1.109   .     S
C299   H394    1.103   .     S
C300   O475    1.421   .     S
C300   H397    1.112   .     S
C300   C301    1.538   .     S
C300   H396    1.105   .     S
C301   C302    1.520   .     S
C301   H398    1.108   .     S
C301   H399    1.112   .     S
C302   H401    1.107   .     S
C302   H152    1.110   1_655 S
C302   H155    1.104   1_655 S
C303   O476    1.413   .     S
C303   H404    1.111   .     S
C303   C305    1.519   .     S
C303   H405    1.118   .     S
C304   O462    1.300   .     A
C304   O463    1.299   .     A
C305   H406    1.104   .     S
C305   C306    1.518   .     S
C305   H407    1.109   .     S
C306   H408    1.110   .     S
C306   H409    1.106   .     S
C306   H410    1.108   .     S
C307   O477    1.418   .     S
C307   H412    1.115   .     S
C307   C308    1.541   .     S
C307   H411    1.103   .     S
C308   H415    1.111   .     S
C308   H414    1.108   .     S
C308   C309    1.526   .     S
C309   H417    1.105   .     S
C309   H416    1.105   .     S
C309   H418    1.109   .     S
C310   H419    1.111   .     S
C310   O478    1.415   .     S
C310   C311    1.520   .     S
C310   H420    1.118   .     S
C311   H421    1.106   .     S
C311   H422    1.110   .     S
C311   C2296   1.519   1_554 S
C312   H425    1.100   .     S
C312   C1303   1.519   .     S
C312   H1415   1.108   .     S
C312   H1914   1.109   .     S
C313   O479    1.414   .     S
C313   H427    1.109   .     S
C313   C314    1.522   .     S
C313   H428    1.118   .     S
C314   C316    1.521   .     S
C314   H430    1.110   .     S
C314   H429    1.109   .     S
C315   O468    1.302   .     A
C315   O465    1.308   .     A
C316   H431    1.108   .     S
C316   H433    1.107   .     S
C316   H432    1.104   .     S
C317   H436    1.116   .     S
C317   O480    1.417   .     S
C317   C318    1.536   .     S
C317   H434    1.108   .     S
C318   C319    1.528   .     S
C318   H438    1.107   .     S
C318   H437    1.104   .     S
C319   H441    1.108   .     S
C319   H440    1.109   .     S
C319   H439    1.108   .     S
C320   H443    1.118   .     S
C320   O481    1.418   .     S
C320   C321    1.525   .     S
C320   H442    1.110   .     S
C321   H444    1.109   .     S
C321   C322    1.522   .     S
C321   H445    1.111   .     S
C322   H447    1.109   .     S
C322   H449    1.106   .     S
C322   H448    1.105   .     S
C323   O482    1.415   .     S
C323   H450    1.110   .     S
C323   C324    1.527   .     S
C323   H451    1.116   .     S
C324   C325    1.520   .     S
C324   H453    1.107   .     S
C324   H452    1.110   .     S
C325   H454    1.110   .     S
C325   H1447   1.105   .     S
C325   H952    1.105   .     S
C326   O467    1.301   .     A
C326   O466    1.305   .     A
C327   O484    1.414   .     S
C327   H340    1.115   .     S
C327   H339    1.114   .     S
C327   C328    1.517   .     S
C328   C329    1.524   .     S
C328   H341    1.105   .     S
C328   H342    1.109   .     S
C329   H344    1.099   .     S
C329   H345    1.111   .     S
C329   H343    1.103   .     S
C330   H347    1.113   .     S
C330   O485    1.423   .     S
C330   H346    1.103   .     S
C330   C331    1.530   .     S
C331   H350    1.110   .     S
C331   H348    1.111   .     S
C331   C828    1.519   1_545 S
C332   H352    1.110   .     S
C332   H353    1.107   .     S
C332   C827    1.519   .     S
C332   H847    1.103   .     S
C333   O486    1.412   .     S
C333   C334    1.520   .     S
C333   H354    1.118   .     S
C333   H355    1.106   .     S
C334   H357    1.099   .     S
C334   C335    1.517   .     S
C334   H356    1.111   .     S
C335   H358    1.111   .     S
C335   H359    1.105   .     S
C335   H361    1.098   .     S
C336   H337    1.081   .     S
C336   C2236   1.426   1_554 S
C336   N458    1.369   .     S
H351   C828    1.103   1_545 S
H368   C40     1.102   1_655 S
H370   C41     1.110   1_655 S
H371   C2025   1.104   1_654 S
H423   C2296   1.108   1_554 S
H426   C2792   1.109   1_544 S
H455   C2309   1.105   1_554 S
H456   C821    1.105   1_545 S
N457   Zn493   2.039   .     S
N458   Zn494   2.039   .     S
N459   Zn495   2.039   .     S
N459   C750    1.366   1_545 S
N460   Zn496   2.039   .     S
N460   C751    1.368   1_545 S
O461   Zn493   2.043   .     S
O462   Zn496   2.043   .     S
O463   Zn495   2.036   .     S
O464   Zn992   2.036   .     S
O465   Zn992   2.046   .     S
O466   Zn495   2.046   .     S
O467   Zn496   2.043   .     S
O468   Zn991   2.043   .     S
O472   Zn246   2.043   1_655 S
O483   Zn245   2.036   1_655 S
O487   Zn494   2.036   .     S
O488   Zn246   2.046   1_655 S
O489   Zn493   2.046   .     S
O490   Zn494   2.043   .     S
O491   Zn245   2.043   1_655 S
O492   Zn991   2.043   .     S
Zn495  O964    2.043   1_545 S
Zn495  O988    2.043   1_545 S
Zn496  O961    2.046   1_545 S
Zn496  O960    2.036   1_545 S
C497   O735    1.301   .     A
C497   O709    1.307   .     A
C497   C526    1.461   .     S
C498   H617    1.077   .     S
C498   C1491   1.425   .     S
C498   N953    1.368   .     S
C499   N954    1.369   .     A
C499   H628    1.082   .     S
C499   C2482   1.425   1_554 S
C500   H639    1.077   .     S
C500   N705    1.368   .     A
C500   C1576   1.426   .     S
C501   H650    1.080   .     S
C501   N708    1.369   .     A
C501   C2488   1.427   1_554 S
C502   H661    1.069   .     S
C502   C1495   1.424   .     S
C502   N211    1.366   1_565 S
C503   H672    1.081   .     S
C503   C2486   1.424   1_554 S
C503   N212    1.368   1_565 S
C504   N707    1.370   .     A
C504   H683    1.078   .     S
C504   C1493   1.427   .     S
C505   C516    1.384   .     A
C505   O717    1.377   .     S
C505   C524    1.400   .     A
C506   C523    1.409   .     A
C506   C517    1.389   .     A
C506   O718    1.386   .     S
C507   C514    1.382   .     A
C507   O719    1.380   .     S
C507   C523    1.404   .     A
C508   O731    1.297   .     A
C508   O720    1.306   .     A
C508   C525    1.453   .     S
C509   O721    1.381   .     S
C509   C515    1.392   .     A
C509   C524    1.407   .     A
C510   O722    1.377   .     S
C510   C526    1.412   .     A
C510   C521    1.383   .     A
C511   C525    1.403   .     A
C511   C522    1.392   .     A
C511   O723    1.385   .     S
C512   O724    1.381   .     S
C512   C525    1.409   .     A
C512   C518    1.383   .     A
C513   C526    1.412   .     A
C513   C520    1.382   .     A
C513   O725    1.379   .     S
C514   O726    1.377   .     S
C514   C528    1.406   .     A
C515   C527    1.412   .     A
C515   O727    1.384   .     S
C516   O728    1.378   .     S
C516   C527    1.409   .     A
C517   O729    1.383   .     S
C517   C528    1.421   .     A
C518   C531    1.404   .     A
C518   O730    1.379   .     S
C519   C524    1.454   .     S
C519   O739    1.296   .     A
C519   O736    1.308   .     A
C520   O732    1.373   .     S
C520   C529    1.401   .     A
C521   O733    1.386   .     S
C521   C529    1.404   .     A
C522   O734    1.384   .     S
C522   C531    1.408   .     A
C523   C530    1.450   .     S
C527   C574    1.459   .     S
C528   C563    1.466   .     S
C529   C552    1.447   .     S
C530   O738    1.301   .     A
C530   O737    1.301   .     A
C531   C541    1.455   .     S
C532   H694    1.114   .     S
C532   C533    1.521   .     S
C532   H586    1.116   .     S
C532   O717    1.413   .     S
C533   H597    1.107   .     S
C533   H608    1.105   .     S
C533   C534    1.525   .     S
C534   H610    1.104   .     S
C534   H612    1.110   .     S
C534   H611    1.101   .     S
C535   O718    1.422   .     S
C535   C536    1.519   .     S
C535   H614    1.117   .     S
C535   H613    1.106   .     S
C536   C537    1.518   .     S
C536   H615    1.101   .     S
C536   H864    1.102   1_455 S
C537   H620    1.109   .     S
C537   H866    1.110   1_455 S
C537   H1859   1.104   1_455 S
C538   H621    1.114   .     S
C538   C539    1.523   .     S
C538   H622    1.117   .     S
C538   O719    1.417   .     S
C539   H623    1.107   .     S
C539   C540    1.522   .     S
C539   H624    1.109   .     S
C540   H627    1.109   .     S
C540   H626    1.103   .     S
C540   H625    1.107   .     S
C541   O712    1.300   .     A
C541   O740    1.305   .     A
C542   H630    1.106   .     S
C542   C543    1.523   .     S
C542   H629    1.115   .     S
C542   O721    1.415   .     S
C543   H632    1.112   .     S
C543   H631    1.106   .     S
C543   C792    1.513   .     S
C544   H633    1.109   .     S
C544   H635    1.101   .     S
C544   H634    1.104   .     S
C544   C791    1.513   1_455 S
C545   H637    1.118   .     S
C545   O722    1.410   .     S
C545   C546    1.525   .     S
C545   H636    1.111   .     S
C546   H638    1.111   .     S
C546   H640    1.111   .     S
C546   C547    1.520   .     S
C547   H641    1.110   .     S
C547   H643    1.109   .     S
C547   H642    1.103   .     S
C548   O723    1.421   .     S
C548   H645    1.112   .     S
C548   C549    1.538   .     S
C548   H644    1.105   .     S
C549   C550    1.520   .     S
C549   H646    1.108   .     S
C549   H647    1.112   .     S
C550   H649    1.107   .     S
C550   H896    1.110   .     S
C550   H899    1.104   .     S
C551   O724    1.413   .     S
C551   H652    1.111   .     S
C551   C553    1.519   .     S
C551   H653    1.118   .     S
C552   O710    1.300   .     A
C552   O711    1.299   .     A
C553   H654    1.104   .     S
C553   C554    1.518   .     S
C553   H655    1.109   .     S
C554   H656    1.110   .     S
C554   H657    1.106   .     S
C554   H658    1.108   .     S
C555   O725    1.418   .     S
C555   H660    1.115   .     S
C555   C556    1.541   .     S
C555   H659    1.103   .     S
C556   H663    1.111   .     S
C556   H662    1.108   .     S
C556   C557    1.526   .     S
C557   H665    1.105   .     S
C557   H664    1.105   .     S
C557   H666    1.109   .     S
C558   H667    1.111   .     S
C558   O726    1.415   .     S
C558   C559    1.520   .     S
C558   H668    1.118   .     S
C559   H669    1.106   .     S
C559   H670    1.110   .     S
C559   C2544   1.519   1_554 S
C560   H673    1.100   .     S
C560   C1551   1.519   .     S
C560   H1663   1.108   .     S
C560   H1170   1.109   1_565 S
C561   O727    1.414   .     S
C561   H675    1.109   .     S
C561   C562    1.522   .     S
C561   H676    1.118   .     S
C562   C564    1.521   .     S
C562   H678    1.110   .     S
C562   H677    1.109   .     S
C563   O716    1.302   .     A
C563   O713    1.308   .     A
C564   H679    1.108   .     S
C564   H681    1.107   .     S
C564   H680    1.104   .     S
C565   H684    1.116   .     S
C565   O728    1.417   .     S
C565   C566    1.536   .     S
C565   H682    1.108   .     S
C566   C567    1.528   .     S
C566   H686    1.107   .     S
C566   H685    1.104   .     S
C567   H689    1.108   .     S
C567   H688    1.109   .     S
C567   H687    1.108   .     S
C568   H691    1.118   .     S
C568   O729    1.418   .     S
C568   C569    1.525   .     S
C568   H690    1.110   .     S
C569   H692    1.109   .     S
C569   C570    1.522   .     S
C569   H693    1.111   .     S
C570   H695    1.109   .     S
C570   H697    1.106   .     S
C570   H696    1.105   .     S
C571   O730    1.415   .     S
C571   H698    1.110   .     S
C571   C572    1.527   .     S
C571   H699    1.116   .     S
C572   C573    1.520   .     S
C572   H701    1.107   .     S
C572   H700    1.110   .     S
C573   H702    1.110   .     S
C573   H1695   1.105   .     S
C573   H208    1.105   1_565 S
C574   O715    1.301   .     A
C574   O714    1.305   .     A
C575   O732    1.414   .     S
C575   H588    1.115   .     S
C575   H587    1.114   .     S
C575   C576    1.517   .     S
C576   C577    1.524   .     S
C576   H589    1.105   .     S
C576   H590    1.109   .     S
C577   H592    1.099   .     S
C577   H593    1.111   .     S
C577   H591    1.103   .     S
C578   H595    1.113   .     S
C578   O733    1.423   .     S
C578   H594    1.103   .     S
C578   C579    1.530   .     S
C579   H598    1.110   .     S
C579   H596    1.111   .     S
C580   H600    1.110   .     S
C580   H601    1.107   .     S
C580   C83     1.519   1_565 S
C580   H103    1.103   1_565 S
C581   O734    1.412   .     S
C581   C582    1.520   .     S
C581   H602    1.118   .     S
C581   H603    1.106   .     S
C582   H605    1.099   .     S
C582   C583    1.517   .     S
C582   H604    1.111   .     S
C583   H606    1.111   .     S
C583   H607    1.105   .     S
C583   H609    1.098   .     S
C584   H585    1.081   .     S
C584   C2484   1.426   1_554 S
C584   N706    1.369   .     S
H616   C784    1.102   .     S
H618   C785    1.110   .     S
H619   C2769   1.104   1_554 S
H648   C798    1.110   1_455 S
H651   C798    1.104   1_455 S
H671   C2544   1.108   1_554 S
H674   C2048   1.109   1_554 S
H703   C2557   1.105   1_554 S
N705   Zn741   2.039   .     S
N705   C746    1.368   1_455 S
N706   C747    1.369   1_455 A
N706   Zn742   2.039   .     S
N707   Zn743   2.039   .     S
N708   Zn744   2.039   .     S
O709   Zn741   2.043   .     S
O710   Zn744   2.043   .     S
O711   Zn743   2.036   .     S
O712   Zn248   2.036   1_565 S
O713   Zn248   2.046   1_565 S
O714   Zn743   2.046   .     S
O715   Zn744   2.043   .     S
O716   Zn247   2.043   1_565 S
O720   Zn990   2.043   .     S
O731   Zn989   2.036   .     S
O735   Zn742   2.036   .     S
O736   Zn990   2.046   .     S
O737   Zn741   2.046   .     S
O738   Zn742   2.043   .     S
O739   Zn989   2.043   .     S
O740   Zn247   2.043   1_565 S
Zn741  O987    2.043   1_455 S
Zn741  O979    2.036   1_455 S
Zn742  O984    2.046   1_455 S
Zn742  O968    2.043   1_455 S
C745   O983    1.301   .     A
C745   O957    1.307   .     A
C745   C774    1.461   .     S
C746   H865    1.077   .     S
C746   C1739   1.425   .     S
C746   N705    1.368   1_655 S
C747   N706    1.369   1_655 A
C747   H876    1.082   .     S
C747   C2730   1.425   1_554 S
C748   H887    1.077   .     S
C748   N953    1.368   .     A
C748   C1824   1.426   .     S
C749   H898    1.080   .     S
C749   N956    1.369   .     A
C749   C2736   1.427   1_554 S
C750   H909    1.069   .     S
C750   C1743   1.424   .     S
C750   N459    1.366   1_565 S
C751   H920    1.081   .     S
C751   C2734   1.424   1_554 S
C751   N460    1.368   1_565 S
C752   N955    1.370   .     A
C752   H931    1.078   .     S
C752   C1741   1.427   .     S
C753   C764    1.384   .     A
C753   O965    1.377   .     S
C753   C772    1.400   .     A
C754   C771    1.409   .     A
C754   C765    1.389   .     A
C754   O966    1.386   .     S
C755   C762    1.382   .     A
C755   O967    1.380   .     S
C755   C771    1.404   .     A
C756   O979    1.297   .     A
C756   O968    1.306   .     A
C756   C773    1.453   .     S
C757   O969    1.381   .     S
C757   C763    1.392   .     A
C757   C772    1.407   .     A
C758   O970    1.377   .     S
C758   C774    1.412   .     A
C758   C769    1.383   .     A
C759   C773    1.403   .     A
C759   C770    1.392   .     A
C759   O971    1.385   .     S
C760   O972    1.381   .     S
C760   C773    1.409   .     A
C760   C766    1.383   .     A
C761   C774    1.412   .     A
C761   C768    1.382   .     A
C761   O973    1.379   .     S
C762   O974    1.377   .     S
C762   C776    1.406   .     A
C763   C775    1.412   .     A
C763   O975    1.384   .     S
C764   O976    1.378   .     S
C764   C775    1.409   .     A
C765   O977    1.383   .     S
C765   C776    1.421   .     A
C766   C779    1.404   .     A
C766   O978    1.379   .     S
C767   C772    1.454   .     S
C767   O987    1.296   .     A
C767   O984    1.308   .     A
C768   O980    1.373   .     S
C768   C777    1.401   .     A
C769   O981    1.386   .     S
C769   C777    1.404   .     A
C770   O982    1.384   .     S
C770   C779    1.408   .     A
C771   C778    1.450   .     S
C775   C822    1.459   .     S
C776   C811    1.466   .     S
C777   C800    1.447   .     S
C778   O986    1.301   .     A
C778   O985    1.301   .     A
C779   C789    1.455   .     S
C780   H942    1.114   .     S
C780   C781    1.521   .     S
C780   H834    1.116   .     S
C780   O965    1.413   .     S
C781   H845    1.107   .     S
C781   H856    1.105   .     S
C781   C782    1.525   .     S
C782   H858    1.104   .     S
C782   H860    1.110   .     S
C782   H859    1.101   .     S
C783   O966    1.422   .     S
C783   C784    1.519   .     S
C783   H862    1.117   .     S
C783   H861    1.106   .     S
C784   C785    1.518   .     S
C784   H863    1.101   .     S
C785   H868    1.109   .     S
C785   H1611   1.104   .     S
C786   H869    1.114   .     S
C786   C787    1.523   .     S
C786   H870    1.117   .     S
C786   O967    1.417   .     S
C787   H871    1.107   .     S
C787   C788    1.522   .     S
C787   H872    1.109   .     S
C788   H875    1.109   .     S
C788   H874    1.103   .     S
C788   H873    1.107   .     S
C789   O960    1.300   .     A
C789   O988    1.305   .     A
C790   H878    1.106   .     S
C790   C791    1.523   .     S
C790   H877    1.115   .     S
C790   O969    1.415   .     S
C791   H880    1.112   .     S
C791   H879    1.106   .     S
C791   C544    1.513   1_655 S
C792   H881    1.109   .     S
C792   H883    1.101   .     S
C792   H882    1.104   .     S
C793   H885    1.118   .     S
C793   O970    1.410   .     S
C793   C794    1.525   .     S
C793   H884    1.111   .     S
C794   H886    1.111   .     S
C794   H888    1.111   .     S
C794   C795    1.520   .     S
C795   H889    1.110   .     S
C795   H891    1.109   .     S
C795   H890    1.103   .     S
C796   O971    1.421   .     S
C796   H893    1.112   .     S
C796   C797    1.538   .     S
C796   H892    1.105   .     S
C797   C798    1.520   .     S
C797   H894    1.108   .     S
C797   H895    1.112   .     S
C798   H897    1.107   .     S
C798   H648    1.110   1_655 S
C798   H651    1.104   1_655 S
C799   O972    1.413   .     S
C799   H900    1.111   .     S
C799   C801    1.519   .     S
C799   H901    1.118   .     S
C800   O958    1.300   .     A
C800   O959    1.299   .     A
C801   H902    1.104   .     S
C801   C802    1.518   .     S
C801   H903    1.109   .     S
C802   H904    1.110   .     S
C802   H905    1.106   .     S
C802   H906    1.108   .     S
C803   O973    1.418   .     S
C803   H908    1.115   .     S
C803   C804    1.541   .     S
C803   H907    1.103   .     S
C804   H911    1.111   .     S
C804   H910    1.108   .     S
C804   C805    1.526   .     S
C805   H913    1.105   .     S
C805   H912    1.105   .     S
C805   H914    1.109   .     S
C806   H915    1.111   .     S
C806   O974    1.415   .     S
C806   C807    1.520   .     S
C806   H916    1.118   .     S
C807   H917    1.106   .     S
C807   H918    1.110   .     S
C807   C2792   1.519   1_554 S
C808   H921    1.100   .     S
C808   C1799   1.519   .     S
C808   H1911   1.108   .     S
C808   H1418   1.109   1_565 S
C809   O975    1.414   .     S
C809   H923    1.109   .     S
C809   C810    1.522   .     S
C809   H924    1.118   .     S
C810   C812    1.521   .     S
C810   H926    1.110   .     S
C810   H925    1.109   .     S
C811   O964    1.302   .     A
C811   O961    1.308   .     A
C812   H927    1.108   .     S
C812   H929    1.107   .     S
C812   H928    1.104   .     S
C813   H932    1.116   .     S
C813   O976    1.417   .     S
C813   C814    1.536   .     S
C813   H930    1.108   .     S
C814   C815    1.528   .     S
C814   H934    1.107   .     S
C814   H933    1.104   .     S
C815   H937    1.108   .     S
C815   H936    1.109   .     S
C815   H935    1.108   .     S
C816   H939    1.118   .     S
C816   O977    1.418   .     S
C816   C817    1.525   .     S
C816   H938    1.110   .     S
C817   H940    1.109   .     S
C817   C818    1.522   .     S
C817   H941    1.111   .     S
C818   H943    1.109   .     S
C818   H945    1.106   .     S
C818   H944    1.105   .     S
C819   O978    1.415   .     S
C819   H946    1.110   .     S
C819   C820    1.527   .     S
C819   H947    1.116   .     S
C820   C821    1.520   .     S
C820   H949    1.107   .     S
C820   H948    1.110   .     S
C821   H950    1.110   .     S
C821   H1943   1.105   .     S
C821   H456    1.105   1_565 S
C822   O963    1.301   .     A
C822   O962    1.305   .     A
C823   O980    1.414   .     S
C823   H836    1.115   .     S
C823   H835    1.114   .     S
C823   C824    1.517   .     S
C824   C825    1.524   .     S
C824   H837    1.105   .     S
C824   H838    1.109   .     S
C825   H840    1.099   .     S
C825   H841    1.111   .     S
C825   H839    1.103   .     S
C826   H843    1.113   .     S
C826   O981    1.423   .     S
C826   H842    1.103   .     S
C826   C827    1.530   .     S
C827   H846    1.110   .     S
C827   H844    1.111   .     S
C828   H848    1.110   .     S
C828   H849    1.107   .     S
C828   C331    1.519   1_565 S
C828   H351    1.103   1_565 S
C829   O982    1.412   .     S
C829   C830    1.520   .     S
C829   H850    1.118   .     S
C829   H851    1.106   .     S
C830   H853    1.099   .     S
C830   C831    1.517   .     S
C830   H852    1.111   .     S
C831   H854    1.111   .     S
C831   H855    1.105   .     S
C831   H857    1.098   .     S
C832   H833    1.081   .     S
C832   C2732   1.426   1_554 S
C832   N954    1.369   .     S
H864   C536    1.102   1_655 S
H866   C537    1.110   1_655 S
H867   C2521   1.104   1_654 S
H919   C2792   1.108   1_554 S
H922   C2296   1.109   1_554 S
H951   C2805   1.105   1_554 S
N953   Zn989   2.039   .     S
N954   Zn990   2.039   .     S
N955   Zn991   2.039   .     S
N956   Zn992   2.039   .     S
O957   Zn989   2.043   .     S
O958   Zn992   2.043   .     S
O959   Zn991   2.036   .     S
O960   Zn496   2.036   1_565 S
O961   Zn496   2.046   1_565 S
O962   Zn991   2.046   .     S
O963   Zn992   2.043   .     S
O964   Zn495   2.043   1_565 S
O968   Zn742   2.043   1_655 S
O979   Zn741   2.036   1_655 S
O983   Zn990   2.036   .     S
O984   Zn742   2.046   1_655 S
O985   Zn989   2.046   .     S
O986   Zn990   2.043   .     S
O987   Zn741   2.043   1_655 S
O988   Zn495   2.043   1_565 S
C993   O1231   1.301   .     A
C993   O1205   1.307   .     A
C993   C1022   1.461   .     S
C994   H1113   1.077   .     S
C994   C1987   1.425   .     S
C994   N1449   1.368   .     S
C995   N1450   1.369   .     A
C995   H1124   1.082   .     S
C996   H1135   1.077   .     S
C996   N1201   1.368   .     A
C996   C2072   1.426   .     S
C997   H1146   1.080   .     S
C997   N1204   1.369   .     A
C998   H1157   1.069   .     S
C998   C1991   1.424   .     S
C998   N1699   1.366   .     S
C999   H1168   1.081   .     S
C999   N1700   1.368   .     S
C1000  N1203   1.370   .     A
C1000  H1179   1.078   .     S
C1000  C1989   1.427   .     S
C1001  C1012   1.384   .     A
C1001  O1213   1.377   .     S
C1001  C1020   1.400   .     A
C1002  C1019   1.409   .     A
C1002  C1013   1.389   .     A
C1002  O1214   1.386   .     S
C1003  C1010   1.382   .     A
C1003  O1215   1.380   .     S
C1003  C1019   1.404   .     A
C1004  O1227   1.297   .     A
C1004  O1216   1.306   .     A
C1004  C1021   1.453   .     S
C1005  O1217   1.381   .     S
C1005  C1011   1.392   .     A
C1005  C1020   1.407   .     A
C1006  O1218   1.377   .     S
C1006  C1022   1.412   .     A
C1006  C1017   1.383   .     A
C1007  C1021   1.403   .     A
C1007  C1018   1.392   .     A
C1007  O1219   1.385   .     S
C1008  O1220   1.381   .     S
C1008  C1021   1.409   .     A
C1008  C1014   1.383   .     A
C1009  C1022   1.412   .     A
C1009  C1016   1.382   .     A
C1009  O1221   1.379   .     S
C1010  O1222   1.377   .     S
C1010  C1024   1.406   .     A
C1011  C1023   1.412   .     A
C1011  O1223   1.384   .     S
C1012  O1224   1.378   .     S
C1012  C1023   1.409   .     A
C1013  O1225   1.383   .     S
C1013  C1024   1.421   .     A
C1014  C1027   1.404   .     A
C1014  O1226   1.379   .     S
C1015  C1020   1.454   .     S
C1015  O1235   1.296   .     A
C1015  O1232   1.308   .     A
C1016  O1228   1.373   .     S
C1016  C1025   1.401   .     A
C1017  O1229   1.386   .     S
C1017  C1025   1.404   .     A
C1018  O1230   1.384   .     S
C1018  C1027   1.408   .     A
C1019  C1026   1.450   .     S
C1023  C1070   1.459   .     S
C1024  C1059   1.466   .     S
C1025  C1048   1.447   .     S
C1026  O1234   1.301   .     A
C1026  O1233   1.301   .     A
C1027  C1037   1.455   .     S
C1028  H1190   1.114   .     S
C1028  C1029   1.521   .     S
C1028  H1082   1.116   .     S
C1028  O1213   1.413   .     S
C1029  H1093   1.107   .     S
C1029  H1104   1.105   .     S
C1029  C1030   1.525   .     S
C1030  H1106   1.104   .     S
C1030  H1108   1.110   .     S
C1030  H1107   1.101   .     S
C1031  O1214   1.422   .     S
C1031  C1032   1.519   .     S
C1031  H1110   1.117   .     S
C1031  H1109   1.106   .     S
C1032  C1033   1.518   .     S
C1032  H1111   1.101   .     S
C1032  H1360   1.102   1_455 S
C1033  H1116   1.109   .     S
C1033  H1362   1.110   1_455 S
C1033  H2355   1.104   1_455 S
C1034  H1117   1.114   .     S
C1034  C1035   1.523   .     S
C1034  H1118   1.117   .     S
C1034  O1215   1.417   .     S
C1035  H1119   1.107   .     S
C1035  C1036   1.522   .     S
C1035  H1120   1.109   .     S
C1036  H1123   1.109   .     S
C1036  H1122   1.103   .     S
C1036  H1121   1.107   .     S
C1037  O1208   1.300   .     A
C1037  O1236   1.305   .     A
C1038  H1126   1.106   .     S
C1038  C1039   1.523   .     S
C1038  H1125   1.115   .     S
C1038  O1217   1.415   .     S
C1039  H1128   1.112   .     S
C1039  H1127   1.106   .     S
C1039  C1288   1.513   .     S
C1040  H1129   1.109   .     S
C1040  H1131   1.101   .     S
C1040  H1130   1.104   .     S
C1040  C1287   1.513   1_455 S
C1041  H1133   1.118   .     S
C1041  O1218   1.410   .     S
C1041  C1042   1.525   .     S
C1041  H1132   1.111   .     S
C1042  H1134   1.111   .     S
C1042  H1136   1.111   .     S
C1042  C1043   1.520   .     S
C1043  H1137   1.110   .     S
C1043  H1139   1.109   .     S
C1043  H1138   1.103   .     S
C1044  O1219   1.421   .     S
C1044  H1141   1.112   .     S
C1044  C1045   1.538   .     S
C1044  H1140   1.105   .     S
C1045  C1046   1.520   .     S
C1045  H1142   1.108   .     S
C1045  H1143   1.112   .     S
C1046  H1145   1.107   .     S
C1046  H1392   1.110   .     S
C1046  H1395   1.104   .     S
C1047  O1220   1.413   .     S
C1047  H1148   1.111   .     S
C1047  C1049   1.519   .     S
C1047  H1149   1.118   .     S
C1048  O1206   1.300   .     A
C1048  O1207   1.299   .     A
C1049  H1150   1.104   .     S
C1049  C1050   1.518   .     S
C1049  H1151   1.109   .     S
C1050  H1152   1.110   .     S
C1050  H1153   1.106   .     S
C1050  H1154   1.108   .     S
C1051  O1221   1.418   .     S
C1051  H1156   1.115   .     S
C1051  C1052   1.541   .     S
C1051  H1155   1.103   .     S
C1052  H1159   1.111   .     S
C1052  H1158   1.108   .     S
C1052  C1053   1.526   .     S
C1053  H1161   1.105   .     S
C1053  H1160   1.105   .     S
C1053  H1162   1.109   .     S
C1054  H1163   1.111   .     S
C1054  O1222   1.415   .     S
C1054  C1055   1.520   .     S
C1054  H1164   1.118   .     S
C1055  H1165   1.106   .     S
C1055  H1166   1.110   .     S
C1056  H1169   1.100   .     S
C1056  C2047   1.519   .     S
C1056  H2159   1.108   .     S
C1056  H2658   1.109   .     S
C1057  O1223   1.414   .     S
C1057  H1171   1.109   .     S
C1057  C1058   1.522   .     S
C1057  H1172   1.118   .     S
C1058  C1060   1.521   .     S
C1058  H1174   1.110   .     S
C1058  H1173   1.109   .     S
C1059  O1212   1.302   .     A
C1059  O1209   1.308   .     A
C1060  H1175   1.108   .     S
C1060  H1177   1.107   .     S
C1060  H1176   1.104   .     S
C1061  H1180   1.116   .     S
C1061  O1224   1.417   .     S
C1061  C1062   1.536   .     S
C1061  H1178   1.108   .     S
C1062  C1063   1.528   .     S
C1062  H1182   1.107   .     S
C1062  H1181   1.104   .     S
C1063  H1185   1.108   .     S
C1063  H1184   1.109   .     S
C1063  H1183   1.108   .     S
C1064  H1187   1.118   .     S
C1064  O1225   1.418   .     S
C1064  C1065   1.525   .     S
C1064  H1186   1.110   .     S
C1065  H1188   1.109   .     S
C1065  C1066   1.522   .     S
C1065  H1189   1.111   .     S
C1066  H1191   1.109   .     S
C1066  H1193   1.106   .     S
C1066  H1192   1.105   .     S
C1067  O1226   1.415   .     S
C1067  H1194   1.110   .     S
C1067  C1068   1.527   .     S
C1067  H1195   1.116   .     S
C1068  C1069   1.520   .     S
C1068  H1197   1.107   .     S
C1068  H1196   1.110   .     S
C1069  H1198   1.110   .     S
C1069  H2191   1.105   .     S
C1069  H1696   1.105   .     S
C1070  O1211   1.301   .     A
C1070  O1210   1.305   .     A
C1071  O1228   1.414   .     S
C1071  H1084   1.115   .     S
C1071  H1083   1.114   .     S
C1071  C1072   1.517   .     S
C1072  C1073   1.524   .     S
C1072  H1085   1.105   .     S
C1072  H1086   1.109   .     S
C1073  H1088   1.099   .     S
C1073  H1089   1.111   .     S
C1073  H1087   1.103   .     S
C1074  H1091   1.113   .     S
C1074  O1229   1.423   .     S
C1074  H1090   1.103   .     S
C1074  C1075   1.530   .     S
C1075  H1094   1.110   .     S
C1075  H1092   1.111   .     S
C1075  C1572   1.519   1_545 S
C1076  H1096   1.110   .     S
C1076  H1097   1.107   .     S
C1076  C1571   1.519   .     S
C1076  H1591   1.103   .     S
C1077  O1230   1.412   .     S
C1077  C1078   1.520   .     S
C1077  H1098   1.118   .     S
C1077  H1099   1.106   .     S
C1078  H1101   1.099   .     S
C1078  C1079   1.517   .     S
C1078  H1100   1.111   .     S
C1079  H1102   1.111   .     S
C1079  H1103   1.105   .     S
C1079  H1105   1.098   .     S
C1080  H1081   1.081   .     S
C1080  N1202   1.369   .     S
H1095  C1572   1.103   1_545 S
H1112  C1280   1.102   .     S
H1114  C1281   1.110   .     S
H1144  C1294   1.110   1_455 S
H1147  C1294   1.104   1_455 S
H1170  C560    1.109   1_545 S
H1200  C1565   1.105   1_545 S
N1201  Zn1237  2.039   .     S
N1201  C1242   1.368   1_455 S
N1202  C1243   1.369   1_455 A
N1202  Zn1238  2.039   .     S
N1203  Zn1239  2.039   .     S
N1203  C1494   1.366   1_545 S
N1204  Zn1240  2.039   .     S
N1204  C1495   1.368   1_545 S
O1205  Zn1237  2.043   .     S
O1206  Zn1240  2.043   .     S
O1207  Zn1239  2.036   .     S
O1208  Zn1736  2.036   .     S
O1209  Zn1736  2.046   .     S
O1210  Zn1239  2.046   .     S
O1211  Zn1240  2.043   .     S
O1212  Zn1735  2.043   .     S
O1216  Zn1486  2.043   .     S
O1227  Zn1485  2.036   .     S
O1231  Zn1238  2.036   .     S
O1232  Zn1486  2.046   .     S
O1233  Zn1237  2.046   .     S
O1234  Zn1238  2.043   .     S
O1235  Zn1485  2.043   .     S
O1236  Zn1735  2.043   .     S
Zn1237 O1483   2.043   1_455 S
Zn1237 O1475   2.036   1_455 S
Zn1238 O1480   2.046   1_455 S
Zn1238 O1464   2.043   1_455 S
Zn1239 O1708   2.043   1_545 S
Zn1239 O1732   2.043   1_545 S
Zn1240 O1705   2.046   1_545 S
Zn1240 O1704   2.036   1_545 S
C1241  O1479   1.301   .     A
C1241  O1453   1.307   .     A
C1241  C1270   1.461   .     S
C1242  H1361   1.077   .     S
C1242  C2235   1.425   .     S
C1242  N1201   1.368   1_655 S
C1243  N1202   1.369   1_655 A
C1243  H1372   1.082   .     S
C1244  H1383   1.077   .     S
C1244  N1449   1.368   .     A
C1244  C2320   1.426   .     S
C1245  H1394   1.080   .     S
C1245  N1452   1.369   .     A
C1246  H1405   1.069   .     S
C1246  C2239   1.424   .     S
C1246  N1947   1.366   .     S
C1247  H1416   1.081   .     S
C1247  N1948   1.368   .     S
C1248  N1451   1.370   .     A
C1248  H1427   1.078   .     S
C1248  C2237   1.427   .     S
C1249  C1260   1.384   .     A
C1249  O1461   1.377   .     S
C1249  C1268   1.400   .     A
C1250  C1267   1.409   .     A
C1250  C1261   1.389   .     A
C1250  O1462   1.386   .     S
C1251  C1258   1.382   .     A
C1251  O1463   1.380   .     S
C1251  C1267   1.404   .     A
C1252  O1475   1.297   .     A
C1252  O1464   1.306   .     A
C1252  C1269   1.453   .     S
C1253  O1465   1.381   .     S
C1253  C1259   1.392   .     A
C1253  C1268   1.407   .     A
C1254  O1466   1.377   .     S
C1254  C1270   1.412   .     A
C1254  C1265   1.383   .     A
C1255  C1269   1.403   .     A
C1255  C1266   1.392   .     A
C1255  O1467   1.385   .     S
C1256  O1468   1.381   .     S
C1256  C1269   1.409   .     A
C1256  C1262   1.383   .     A
C1257  C1270   1.412   .     A
C1257  C1264   1.382   .     A
C1257  O1469   1.379   .     S
C1258  O1470   1.377   .     S
C1258  C1272   1.406   .     A
C1259  C1271   1.412   .     A
C1259  O1471   1.384   .     S
C1260  O1472   1.378   .     S
C1260  C1271   1.409   .     A
C1261  O1473   1.383   .     S
C1261  C1272   1.421   .     A
C1262  C1275   1.404   .     A
C1262  O1474   1.379   .     S
C1263  C1268   1.454   .     S
C1263  O1483   1.296   .     A
C1263  O1480   1.308   .     A
C1264  O1476   1.373   .     S
C1264  C1273   1.401   .     A
C1265  O1477   1.386   .     S
C1265  C1273   1.404   .     A
C1266  O1478   1.384   .     S
C1266  C1275   1.408   .     A
C1267  C1274   1.450   .     S
C1271  C1318   1.459   .     S
C1272  C1307   1.466   .     S
C1273  C1296   1.447   .     S
C1274  O1482   1.301   .     A
C1274  O1481   1.301   .     A
C1275  C1285   1.455   .     S
C1276  H1438   1.114   .     S
C1276  C1277   1.521   .     S
C1276  H1330   1.116   .     S
C1276  O1461   1.413   .     S
C1277  H1341   1.107   .     S
C1277  H1352   1.105   .     S
C1277  C1278   1.525   .     S
C1278  H1354   1.104   .     S
C1278  H1356   1.110   .     S
C1278  H1355   1.101   .     S
C1279  O1462   1.422   .     S
C1279  C1280   1.519   .     S
C1279  H1358   1.117   .     S
C1279  H1357   1.106   .     S
C1280  C1281   1.518   .     S
C1280  H1359   1.101   .     S
C1281  H1364   1.109   .     S
C1281  H2107   1.104   .     S
C1282  H1365   1.114   .     S
C1282  C1283   1.523   .     S
C1282  H1366   1.117   .     S
C1282  O1463   1.417   .     S
C1283  H1367   1.107   .     S
C1283  C1284   1.522   .     S
C1283  H1368   1.109   .     S
C1284  H1371   1.109   .     S
C1284  H1370   1.103   .     S
C1284  H1369   1.107   .     S
C1285  O1456   1.300   .     A
C1285  O1484   1.305   .     A
C1286  H1374   1.106   .     S
C1286  C1287   1.523   .     S
C1286  H1373   1.115   .     S
C1286  O1465   1.415   .     S
C1287  H1376   1.112   .     S
C1287  H1375   1.106   .     S
C1287  C1040   1.513   1_655 S
C1288  H1377   1.109   .     S
C1288  H1379   1.101   .     S
C1288  H1378   1.104   .     S
C1289  H1381   1.118   .     S
C1289  O1466   1.410   .     S
C1289  C1290   1.525   .     S
C1289  H1380   1.111   .     S
C1290  H1382   1.111   .     S
C1290  H1384   1.111   .     S
C1290  C1291   1.520   .     S
C1291  H1385   1.110   .     S
C1291  H1387   1.109   .     S
C1291  H1386   1.103   .     S
C1292  O1467   1.421   .     S
C1292  H1389   1.112   .     S
C1292  C1293   1.538   .     S
C1292  H1388   1.105   .     S
C1293  C1294   1.520   .     S
C1293  H1390   1.108   .     S
C1293  H1391   1.112   .     S
C1294  H1393   1.107   .     S
C1294  H1144   1.110   1_655 S
C1294  H1147   1.104   1_655 S
C1295  O1468   1.413   .     S
C1295  H1396   1.111   .     S
C1295  C1297   1.519   .     S
C1295  H1397   1.118   .     S
C1296  O1454   1.300   .     A
C1296  O1455   1.299   .     A
C1297  H1398   1.104   .     S
C1297  C1298   1.518   .     S
C1297  H1399   1.109   .     S
C1298  H1400   1.110   .     S
C1298  H1401   1.106   .     S
C1298  H1402   1.108   .     S
C1299  O1469   1.418   .     S
C1299  H1404   1.115   .     S
C1299  C1300   1.541   .     S
C1299  H1403   1.103   .     S
C1300  H1407   1.111   .     S
C1300  H1406   1.108   .     S
C1300  C1301   1.526   .     S
C1301  H1409   1.105   .     S
C1301  H1408   1.105   .     S
C1301  H1410   1.109   .     S
C1302  H1411   1.111   .     S
C1302  O1470   1.415   .     S
C1302  C1303   1.520   .     S
C1302  H1412   1.118   .     S
C1303  H1413   1.106   .     S
C1303  H1414   1.110   .     S
C1304  H1417   1.100   .     S
C1304  C2295   1.519   .     S
C1304  H2407   1.108   .     S
C1304  H2906   1.109   .     S
C1305  O1471   1.414   .     S
C1305  H1419   1.109   .     S
C1305  C1306   1.522   .     S
C1305  H1420   1.118   .     S
C1306  C1308   1.521   .     S
C1306  H1422   1.110   .     S
C1306  H1421   1.109   .     S
C1307  O1460   1.302   .     A
C1307  O1457   1.308   .     A
C1308  H1423   1.108   .     S
C1308  H1425   1.107   .     S
C1308  H1424   1.104   .     S
C1309  H1428   1.116   .     S
C1309  O1472   1.417   .     S
C1309  C1310   1.536   .     S
C1309  H1426   1.108   .     S
C1310  C1311   1.528   .     S
C1310  H1430   1.107   .     S
C1310  H1429   1.104   .     S
C1311  H1433   1.108   .     S
C1311  H1432   1.109   .     S
C1311  H1431   1.108   .     S
C1312  H1435   1.118   .     S
C1312  O1473   1.418   .     S
C1312  C1313   1.525   .     S
C1312  H1434   1.110   .     S
C1313  H1436   1.109   .     S
C1313  C1314   1.522   .     S
C1313  H1437   1.111   .     S
C1314  H1439   1.109   .     S
C1314  H1441   1.106   .     S
C1314  H1440   1.105   .     S
C1315  O1474   1.415   .     S
C1315  H1442   1.110   .     S
C1315  C1316   1.527   .     S
C1315  H1443   1.116   .     S
C1316  C1317   1.520   .     S
C1316  H1445   1.107   .     S
C1316  H1444   1.110   .     S
C1317  H1446   1.110   .     S
C1317  H2439   1.105   .     S
C1317  H1944   1.105   .     S
C1318  O1459   1.301   .     A
C1318  O1458   1.305   .     A
C1319  O1476   1.414   .     S
C1319  H1332   1.115   .     S
C1319  H1331   1.114   .     S
C1319  C1320   1.517   .     S
C1320  C1321   1.524   .     S
C1320  H1333   1.105   .     S
C1320  H1334   1.109   .     S
C1321  H1336   1.099   .     S
C1321  H1337   1.111   .     S
C1321  H1335   1.103   .     S
C1322  H1339   1.113   .     S
C1322  O1477   1.423   .     S
C1322  H1338   1.103   .     S
C1322  C1323   1.530   .     S
C1323  H1342   1.110   .     S
C1323  H1340   1.111   .     S
C1323  C1820   1.519   1_545 S
C1324  H1344   1.110   .     S
C1324  H1345   1.107   .     S
C1324  C1819   1.519   .     S
C1324  H1839   1.103   .     S
C1325  O1478   1.412   .     S
C1325  C1326   1.520   .     S
C1325  H1346   1.118   .     S
C1325  H1347   1.106   .     S
C1326  H1349   1.099   .     S
C1326  C1327   1.517   .     S
C1326  H1348   1.111   .     S
C1327  H1350   1.111   .     S
C1327  H1351   1.105   .     S
C1327  H1353   1.098   .     S
C1328  H1329   1.081   .     S
C1328  N1450   1.369   .     S
H1343  C1820   1.103   1_545 S
H1360  C1032   1.102   1_655 S
H1362  C1033   1.110   1_655 S
H1363  C41     1.104   1_655 S
H1418  C808    1.109   1_545 S
H1448  C1813   1.105   1_545 S
N1449  Zn1485  2.039   .     S
N1450  Zn1486  2.039   .     S
N1451  Zn1487  2.039   .     S
N1451  C1742   1.366   1_545 S
N1452  Zn1488  2.039   .     S
N1452  C1743   1.368   1_545 S
O1453  Zn1485  2.043   .     S
O1454  Zn1488  2.043   .     S
O1455  Zn1487  2.036   .     S
O1456  Zn1984  2.036   .     S
O1457  Zn1984  2.046   .     S
O1458  Zn1487  2.046   .     S
O1459  Zn1488  2.043   .     S
O1460  Zn1983  2.043   .     S
O1464  Zn1238  2.043   1_655 S
O1475  Zn1237  2.036   1_655 S
O1479  Zn1486  2.036   .     S
O1480  Zn1238  2.046   1_655 S
O1481  Zn1485  2.046   .     S
O1482  Zn1486  2.043   .     S
O1483  Zn1237  2.043   1_655 S
O1484  Zn1983  2.043   .     S
Zn1487 O1956   2.043   1_545 S
Zn1487 O1980   2.043   1_545 S
Zn1488 O1953   2.046   1_545 S
Zn1488 O1952   2.036   1_545 S
C1489  O1727   1.301   .     A
C1489  O1701   1.307   .     A
C1489  C1518   1.461   .     S
C1490  H1609   1.077   .     S
C1490  C2483   1.425   .     S
C1490  N1945   1.368   .     S
C1491  N1946   1.369   .     A
C1491  H1620   1.082   .     S
C1492  H1631   1.077   .     S
C1492  N1697   1.368   .     A
C1492  C2568   1.426   .     S
C1493  H1642   1.080   .     S
C1493  N1700   1.369   .     A
C1494  H1653   1.069   .     S
C1494  C2487   1.424   .     S
C1494  N1203   1.366   1_565 S
C1495  H1664   1.081   .     S
C1495  N1204   1.368   1_565 S
C1496  N1699   1.370   .     A
C1496  H1675   1.078   .     S
C1496  C2485   1.427   .     S
C1497  C1508   1.384   .     A
C1497  O1709   1.377   .     S
C1497  C1516   1.400   .     A
C1498  C1515   1.409   .     A
C1498  C1509   1.389   .     A
C1498  O1710   1.386   .     S
C1499  C1506   1.382   .     A
C1499  O1711   1.380   .     S
C1499  C1515   1.404   .     A
C1500  O1723   1.297   .     A
C1500  O1712   1.306   .     A
C1500  C1517   1.453   .     S
C1501  O1713   1.381   .     S
C1501  C1507   1.392   .     A
C1501  C1516   1.407   .     A
C1502  O1714   1.377   .     S
C1502  C1518   1.412   .     A
C1502  C1513   1.383   .     A
C1503  C1517   1.403   .     A
C1503  C1514   1.392   .     A
C1503  O1715   1.385   .     S
C1504  O1716   1.381   .     S
C1504  C1517   1.409   .     A
C1504  C1510   1.383   .     A
C1505  C1518   1.412   .     A
C1505  C1512   1.382   .     A
C1505  O1717   1.379   .     S
C1506  O1718   1.377   .     S
C1506  C1520   1.406   .     A
C1507  C1519   1.412   .     A
C1507  O1719   1.384   .     S
C1508  O1720   1.378   .     S
C1508  C1519   1.409   .     A
C1509  O1721   1.383   .     S
C1509  C1520   1.421   .     A
C1510  C1523   1.404   .     A
C1510  O1722   1.379   .     S
C1511  C1516   1.454   .     S
C1511  O1731   1.296   .     A
C1511  O1728   1.308   .     A
C1512  O1724   1.373   .     S
C1512  C1521   1.401   .     A
C1513  O1725   1.386   .     S
C1513  C1521   1.404   .     A
C1514  O1726   1.384   .     S
C1514  C1523   1.408   .     A
C1515  C1522   1.450   .     S
C1519  C1566   1.459   .     S
C1520  C1555   1.466   .     S
C1521  C1544   1.447   .     S
C1522  O1730   1.301   .     A
C1522  O1729   1.301   .     A
C1523  C1533   1.455   .     S
C1524  H1686   1.114   .     S
C1524  C1525   1.521   .     S
C1524  H1578   1.116   .     S
C1524  O1709   1.413   .     S
C1525  H1589   1.107   .     S
C1525  H1600   1.105   .     S
C1525  C1526   1.525   .     S
C1526  H1602   1.104   .     S
C1526  H1604   1.110   .     S
C1526  H1603   1.101   .     S
C1527  O1710   1.422   .     S
C1527  C1528   1.519   .     S
C1527  H1606   1.117   .     S
C1527  H1605   1.106   .     S
C1528  C1529   1.518   .     S
C1528  H1607   1.101   .     S
C1528  H1856   1.102   1_455 S
C1529  H1612   1.109   .     S
C1529  H1858   1.110   1_455 S
C1529  H2851   1.104   1_455 S
C1530  H1613   1.114   .     S
C1530  C1531   1.523   .     S
C1530  H1614   1.117   .     S
C1530  O1711   1.417   .     S
C1531  H1615   1.107   .     S
C1531  C1532   1.522   .     S
C1531  H1616   1.109   .     S
C1532  H1619   1.109   .     S
C1532  H1618   1.103   .     S
C1532  H1617   1.107   .     S
C1533  O1704   1.300   .     A
C1533  O1732   1.305   .     A
C1534  H1622   1.106   .     S
C1534  C1535   1.523   .     S
C1534  H1621   1.115   .     S
C1534  O1713   1.415   .     S
C1535  H1624   1.112   .     S
C1535  H1623   1.106   .     S
C1535  C1784   1.513   .     S
C1536  H1625   1.109   .     S
C1536  H1627   1.101   .     S
C1536  H1626   1.104   .     S
C1536  C1783   1.513   1_455 S
C1537  H1629   1.118   .     S
C1537  O1714   1.410   .     S
C1537  C1538   1.525   .     S
C1537  H1628   1.111   .     S
C1538  H1630   1.111   .     S
C1538  H1632   1.111   .     S
C1538  C1539   1.520   .     S
C1539  H1633   1.110   .     S
C1539  H1635   1.109   .     S
C1539  H1634   1.103   .     S
C1540  O1715   1.421   .     S
C1540  H1637   1.112   .     S
C1540  C1541   1.538   .     S
C1540  H1636   1.105   .     S
C1541  C1542   1.520   .     S
C1541  H1638   1.108   .     S
C1541  H1639   1.112   .     S
C1542  H1641   1.107   .     S
C1542  H1888   1.110   .     S
C1542  H1891   1.104   .     S
C1543  O1716   1.413   .     S
C1543  H1644   1.111   .     S
C1543  C1545   1.519   .     S
C1543  H1645   1.118   .     S
C1544  O1702   1.300   .     A
C1544  O1703   1.299   .     A
C1545  H1646   1.104   .     S
C1545  C1546   1.518   .     S
C1545  H1647   1.109   .     S
C1546  H1648   1.110   .     S
C1546  H1649   1.106   .     S
C1546  H1650   1.108   .     S
C1547  O1717   1.418   .     S
C1547  H1652   1.115   .     S
C1547  C1548   1.541   .     S
C1547  H1651   1.103   .     S
C1548  H1655   1.111   .     S
C1548  H1654   1.108   .     S
C1548  C1549   1.526   .     S
C1549  H1657   1.105   .     S
C1549  H1656   1.105   .     S
C1549  H1658   1.109   .     S
C1550  H1659   1.111   .     S
C1550  O1718   1.415   .     S
C1550  C1551   1.520   .     S
C1550  H1660   1.118   .     S
C1551  H1661   1.106   .     S
C1551  H1662   1.110   .     S
C1552  H1665   1.100   .     S
C1552  C2543   1.519   .     S
C1552  H2655   1.108   .     S
C1552  H2162   1.109   1_565 S
C1553  O1719   1.414   .     S
C1553  H1667   1.109   .     S
C1553  C1554   1.522   .     S
C1553  H1668   1.118   .     S
C1554  C1556   1.521   .     S
C1554  H1670   1.110   .     S
C1554  H1669   1.109   .     S
C1555  O1708   1.302   .     A
C1555  O1705   1.308   .     A
C1556  H1671   1.108   .     S
C1556  H1673   1.107   .     S
C1556  H1672   1.104   .     S
C1557  H1676   1.116   .     S
C1557  O1720   1.417   .     S
C1557  C1558   1.536   .     S
C1557  H1674   1.108   .     S
C1558  C1559   1.528   .     S
C1558  H1678   1.107   .     S
C1558  H1677   1.104   .     S
C1559  H1681   1.108   .     S
C1559  H1680   1.109   .     S
C1559  H1679   1.108   .     S
C1560  H1683   1.118   .     S
C1560  O1721   1.418   .     S
C1560  C1561   1.525   .     S
C1560  H1682   1.110   .     S
C1561  H1684   1.109   .     S
C1561  C1562   1.522   .     S
C1561  H1685   1.111   .     S
C1562  H1687   1.109   .     S
C1562  H1689   1.106   .     S
C1562  H1688   1.105   .     S
C1563  O1722   1.415   .     S
C1563  H1690   1.110   .     S
C1563  C1564   1.527   .     S
C1563  H1691   1.116   .     S
C1564  C1565   1.520   .     S
C1564  H1693   1.107   .     S
C1564  H1692   1.110   .     S
C1565  H1694   1.110   .     S
C1565  H2687   1.105   .     S
C1565  H1200   1.105   1_565 S
C1566  O1707   1.301   .     A
C1566  O1706   1.305   .     A
C1567  O1724   1.414   .     S
C1567  H1580   1.115   .     S
C1567  H1579   1.114   .     S
C1567  C1568   1.517   .     S
C1568  C1569   1.524   .     S
C1568  H1581   1.105   .     S
C1568  H1582   1.109   .     S
C1569  H1584   1.099   .     S
C1569  H1585   1.111   .     S
C1569  H1583   1.103   .     S
C1570  H1587   1.113   .     S
C1570  O1725   1.423   .     S
C1570  H1586   1.103   .     S
C1570  C1571   1.530   .     S
C1571  H1590   1.110   .     S
C1571  H1588   1.111   .     S
C1572  H1592   1.110   .     S
C1572  H1593   1.107   .     S
C1572  C1075   1.519   1_565 S
C1572  H1095   1.103   1_565 S
C1573  O1726   1.412   .     S
C1573  C1574   1.520   .     S
C1573  H1594   1.118   .     S
C1573  H1595   1.106   .     S
C1574  H1597   1.099   .     S
C1574  C1575   1.517   .     S
C1574  H1596   1.111   .     S
C1575  H1598   1.111   .     S
C1575  H1599   1.105   .     S
C1575  H1601   1.098   .     S
C1576  H1577   1.081   .     S
C1576  N1698   1.369   .     S
H1608  C1776   1.102   .     S
H1610  C1777   1.110   .     S
H1640  C1790   1.110   1_455 S
H1643  C1790   1.104   1_455 S
N1697  Zn1733  2.039   .     S
N1697  C1738   1.368   1_455 S
N1698  C1739   1.369   1_455 A
N1698  Zn1734  2.039   .     S
N1699  Zn1735  2.039   .     S
N1700  Zn1736  2.039   .     S
O1701  Zn1733  2.043   .     S
O1702  Zn1736  2.043   .     S
O1703  Zn1735  2.036   .     S
O1704  Zn1240  2.036   1_565 S
O1705  Zn1240  2.046   1_565 S
O1706  Zn1735  2.046   .     S
O1707  Zn1736  2.043   .     S
O1708  Zn1239  2.043   1_565 S
O1712  Zn1982  2.043   .     S
O1723  Zn1981  2.036   .     S
O1727  Zn1734  2.036   .     S
O1728  Zn1982  2.046   .     S
O1729  Zn1733  2.046   .     S
O1730  Zn1734  2.043   .     S
O1731  Zn1981  2.043   .     S
O1732  Zn1239  2.043   1_565 S
Zn1733 O1979   2.043   1_455 S
Zn1733 O1971   2.036   1_455 S
Zn1734 O1976   2.046   1_455 S
Zn1734 O1960   2.043   1_455 S
C1737  O1975   1.301   .     A
C1737  O1949   1.307   .     A
C1737  C1766   1.461   .     S
C1738  H1857   1.077   .     S
C1738  C2731   1.425   .     S
C1738  N1697   1.368   1_655 S
C1739  N1698   1.369   1_655 A
C1739  H1868   1.082   .     S
C1740  H1879   1.077   .     S
C1740  N1945   1.368   .     A
C1740  C2816   1.426   .     S
C1741  H1890   1.080   .     S
C1741  N1948   1.369   .     A
C1742  H1901   1.069   .     S
C1742  C2735   1.424   .     S
C1742  N1451   1.366   1_565 S
C1743  H1912   1.081   .     S
C1743  N1452   1.368   1_565 S
C1744  N1947   1.370   .     A
C1744  H1923   1.078   .     S
C1744  C2733   1.427   .     S
C1745  C1756   1.384   .     A
C1745  O1957   1.377   .     S
C1745  C1764   1.400   .     A
C1746  C1763   1.409   .     A
C1746  C1757   1.389   .     A
C1746  O1958   1.386   .     S
C1747  C1754   1.382   .     A
C1747  O1959   1.380   .     S
C1747  C1763   1.404   .     A
C1748  O1971   1.297   .     A
C1748  O1960   1.306   .     A
C1748  C1765   1.453   .     S
C1749  O1961   1.381   .     S
C1749  C1755   1.392   .     A
C1749  C1764   1.407   .     A
C1750  O1962   1.377   .     S
C1750  C1766   1.412   .     A
C1750  C1761   1.383   .     A
C1751  C1765   1.403   .     A
C1751  C1762   1.392   .     A
C1751  O1963   1.385   .     S
C1752  O1964   1.381   .     S
C1752  C1765   1.409   .     A
C1752  C1758   1.383   .     A
C1753  C1766   1.412   .     A
C1753  C1760   1.382   .     A
C1753  O1965   1.379   .     S
C1754  O1966   1.377   .     S
C1754  C1768   1.406   .     A
C1755  C1767   1.412   .     A
C1755  O1967   1.384   .     S
C1756  O1968   1.378   .     S
C1756  C1767   1.409   .     A
C1757  O1969   1.383   .     S
C1757  C1768   1.421   .     A
C1758  C1771   1.404   .     A
C1758  O1970   1.379   .     S
C1759  C1764   1.454   .     S
C1759  O1979   1.296   .     A
C1759  O1976   1.308   .     A
C1760  O1972   1.373   .     S
C1760  C1769   1.401   .     A
C1761  O1973   1.386   .     S
C1761  C1769   1.404   .     A
C1762  O1974   1.384   .     S
C1762  C1771   1.408   .     A
C1763  C1770   1.450   .     S
C1767  C1814   1.459   .     S
C1768  C1803   1.466   .     S
C1769  C1792   1.447   .     S
C1770  O1978   1.301   .     A
C1770  O1977   1.301   .     A
C1771  C1781   1.455   .     S
C1772  H1934   1.114   .     S
C1772  C1773   1.521   .     S
C1772  H1826   1.116   .     S
C1772  O1957   1.413   .     S
C1773  H1837   1.107   .     S
C1773  H1848   1.105   .     S
C1773  C1774   1.525   .     S
C1774  H1850   1.104   .     S
C1774  H1852   1.110   .     S
C1774  H1851   1.101   .     S
C1775  O1958   1.422   .     S
C1775  C1776   1.519   .     S
C1775  H1854   1.117   .     S
C1775  H1853   1.106   .     S
C1776  C1777   1.518   .     S
C1776  H1855   1.101   .     S
C1777  H1860   1.109   .     S
C1777  H2603   1.104   .     S
C1778  H1861   1.114   .     S
C1778  C1779   1.523   .     S
C1778  H1862   1.117   .     S
C1778  O1959   1.417   .     S
C1779  H1863   1.107   .     S
C1779  C1780   1.522   .     S
C1779  H1864   1.109   .     S
C1780  H1867   1.109   .     S
C1780  H1866   1.103   .     S
C1780  H1865   1.107   .     S
C1781  O1952   1.300   .     A
C1781  O1980   1.305   .     A
C1782  H1870   1.106   .     S
C1782  C1783   1.523   .     S
C1782  H1869   1.115   .     S
C1782  O1961   1.415   .     S
C1783  H1872   1.112   .     S
C1783  H1871   1.106   .     S
C1783  C1536   1.513   1_655 S
C1784  H1873   1.109   .     S
C1784  H1875   1.101   .     S
C1784  H1874   1.104   .     S
C1785  H1877   1.118   .     S
C1785  O1962   1.410   .     S
C1785  C1786   1.525   .     S
C1785  H1876   1.111   .     S
C1786  H1878   1.111   .     S
C1786  H1880   1.111   .     S
C1786  C1787   1.520   .     S
C1787  H1881   1.110   .     S
C1787  H1883   1.109   .     S
C1787  H1882   1.103   .     S
C1788  O1963   1.421   .     S
C1788  H1885   1.112   .     S
C1788  C1789   1.538   .     S
C1788  H1884   1.105   .     S
C1789  C1790   1.520   .     S
C1789  H1886   1.108   .     S
C1789  H1887   1.112   .     S
C1790  H1889   1.107   .     S
C1790  H1640   1.110   1_655 S
C1790  H1643   1.104   1_655 S
C1791  O1964   1.413   .     S
C1791  H1892   1.111   .     S
C1791  C1793   1.519   .     S
C1791  H1893   1.118   .     S
C1792  O1950   1.300   .     A
C1792  O1951   1.299   .     A
C1793  H1894   1.104   .     S
C1793  C1794   1.518   .     S
C1793  H1895   1.109   .     S
C1794  H1896   1.110   .     S
C1794  H1897   1.106   .     S
C1794  H1898   1.108   .     S
C1795  O1965   1.418   .     S
C1795  H1900   1.115   .     S
C1795  C1796   1.541   .     S
C1795  H1899   1.103   .     S
C1796  H1903   1.111   .     S
C1796  H1902   1.108   .     S
C1796  C1797   1.526   .     S
C1797  H1905   1.105   .     S
C1797  H1904   1.105   .     S
C1797  H1906   1.109   .     S
C1798  H1907   1.111   .     S
C1798  O1966   1.415   .     S
C1798  C1799   1.520   .     S
C1798  H1908   1.118   .     S
C1799  H1909   1.106   .     S
C1799  H1910   1.110   .     S
C1800  H1913   1.100   .     S
C1800  C2791   1.519   .     S
C1800  H2903   1.108   .     S
C1800  H2410   1.109   1_565 S
C1801  O1967   1.414   .     S
C1801  H1915   1.109   .     S
C1801  C1802   1.522   .     S
C1801  H1916   1.118   .     S
C1802  C1804   1.521   .     S
C1802  H1918   1.110   .     S
C1802  H1917   1.109   .     S
C1803  O1956   1.302   .     A
C1803  O1953   1.308   .     A
C1804  H1919   1.108   .     S
C1804  H1921   1.107   .     S
C1804  H1920   1.104   .     S
C1805  H1924   1.116   .     S
C1805  O1968   1.417   .     S
C1805  C1806   1.536   .     S
C1805  H1922   1.108   .     S
C1806  C1807   1.528   .     S
C1806  H1926   1.107   .     S
C1806  H1925   1.104   .     S
C1807  H1929   1.108   .     S
C1807  H1928   1.109   .     S
C1807  H1927   1.108   .     S
C1808  H1931   1.118   .     S
C1808  O1969   1.418   .     S
C1808  C1809   1.525   .     S
C1808  H1930   1.110   .     S
C1809  H1932   1.109   .     S
C1809  C1810   1.522   .     S
C1809  H1933   1.111   .     S
C1810  H1935   1.109   .     S
C1810  H1937   1.106   .     S
C1810  H1936   1.105   .     S
C1811  O1970   1.415   .     S
C1811  H1938   1.110   .     S
C1811  C1812   1.527   .     S
C1811  H1939   1.116   .     S
C1812  C1813   1.520   .     S
C1812  H1941   1.107   .     S
C1812  H1940   1.110   .     S
C1813  H1942   1.110   .     S
C1813  H2935   1.105   .     S
C1813  H1448   1.105   1_565 S
C1814  O1955   1.301   .     A
C1814  O1954   1.305   .     A
C1815  O1972   1.414   .     S
C1815  H1828   1.115   .     S
C1815  H1827   1.114   .     S
C1815  C1816   1.517   .     S
C1816  C1817   1.524   .     S
C1816  H1829   1.105   .     S
C1816  H1830   1.109   .     S
C1817  H1832   1.099   .     S
C1817  H1833   1.111   .     S
C1817  H1831   1.103   .     S
C1818  H1835   1.113   .     S
C1818  O1973   1.423   .     S
C1818  H1834   1.103   .     S
C1818  C1819   1.530   .     S
C1819  H1838   1.110   .     S
C1819  H1836   1.111   .     S
C1820  H1840   1.110   .     S
C1820  H1841   1.107   .     S
C1820  C1323   1.519   1_565 S
C1820  H1343   1.103   1_565 S
C1821  O1974   1.412   .     S
C1821  C1822   1.520   .     S
C1821  H1842   1.118   .     S
C1821  H1843   1.106   .     S
C1822  H1845   1.099   .     S
C1822  C1823   1.517   .     S
C1822  H1844   1.111   .     S
C1823  H1846   1.111   .     S
C1823  H1847   1.105   .     S
C1823  H1849   1.098   .     S
C1824  H1825   1.081   .     S
C1824  N1946   1.369   .     S
H1856  C1528   1.102   1_655 S
H1858  C1529   1.110   1_655 S
H1859  C537    1.104   1_655 S
N1945  Zn1981  2.039   .     S
N1946  Zn1982  2.039   .     S
N1947  Zn1983  2.039   .     S
N1948  Zn1984  2.039   .     S
O1949  Zn1981  2.043   .     S
O1950  Zn1984  2.043   .     S
O1951  Zn1983  2.036   .     S
O1952  Zn1488  2.036   1_565 S
O1953  Zn1488  2.046   1_565 S
O1954  Zn1983  2.046   .     S
O1955  Zn1984  2.043   .     S
O1956  Zn1487  2.043   1_565 S
O1960  Zn1734  2.043   1_655 S
O1971  Zn1733  2.036   1_655 S
O1975  Zn1982  2.036   .     S
O1976  Zn1734  2.046   1_655 S
O1977  Zn1981  2.046   .     S
O1978  Zn1982  2.043   .     S
O1979  Zn1733  2.043   1_655 S
O1980  Zn1487  2.043   1_565 S
C1985  O2223   1.301   .     A
C1985  O2197   1.307   .     A
C1985  C2014   1.461   .     S
C1986  H2105   1.077   .     S
C1986  C3      1.425   1_556 S
C1986  N2441   1.368   .     S
C1987  N2442   1.369   .     A
C1987  H2116   1.082   .     S
C1988  H2127   1.077   .     S
C1988  N2193   1.368   .     A
C1988  C88     1.426   1_556 S
C1989  H2138   1.080   .     S
C1989  N2196   1.369   .     A
C1990  H2149   1.069   .     S
C1990  C7      1.424   1_556 S
C1990  N2691   1.366   .     S
C1991  H2160   1.081   .     S
C1991  N2692   1.368   .     S
C1992  N2195   1.370   .     A
C1992  H2171   1.078   .     S
C1992  C5      1.427   1_556 S
C1993  C2004   1.384   .     A
C1993  O2205   1.377   .     S
C1993  C2012   1.400   .     A
C1994  C2011   1.409   .     A
C1994  C2005   1.389   .     A
C1994  O2206   1.386   .     S
C1995  C2002   1.382   .     A
C1995  O2207   1.380   .     S
C1995  C2011   1.404   .     A
C1996  O2219   1.297   .     A
C1996  O2208   1.306   .     A
C1996  C2013   1.453   .     S
C1997  O2209   1.381   .     S
C1997  C2003   1.392   .     A
C1997  C2012   1.407   .     A
C1998  O2210   1.377   .     S
C1998  C2014   1.412   .     A
C1998  C2009   1.383   .     A
C1999  C2013   1.403   .     A
C1999  C2010   1.392   .     A
C1999  O2211   1.385   .     S
C2000  O2212   1.381   .     S
C2000  C2013   1.409   .     A
C2000  C2006   1.383   .     A
C2001  C2014   1.412   .     A
C2001  C2008   1.382   .     A
C2001  O2213   1.379   .     S
C2002  O2214   1.377   .     S
C2002  C2016   1.406   .     A
C2003  C2015   1.412   .     A
C2003  O2215   1.384   .     S
C2004  O2216   1.378   .     S
C2004  C2015   1.409   .     A
C2005  O2217   1.383   .     S
C2005  C2016   1.421   .     A
C2006  C2019   1.404   .     A
C2006  O2218   1.379   .     S
C2007  C2012   1.454   .     S
C2007  O2227   1.296   .     A
C2007  O2224   1.308   .     A
C2008  O2220   1.373   .     S
C2008  C2017   1.401   .     A
C2009  O2221   1.386   .     S
C2009  C2017   1.404   .     A
C2010  O2222   1.384   .     S
C2010  C2019   1.408   .     A
C2011  C2018   1.450   .     S
C2015  C2062   1.459   .     S
C2016  C2051   1.466   .     S
C2017  C2040   1.447   .     S
C2018  O2226   1.301   .     A
C2018  O2225   1.301   .     A
C2019  C2029   1.455   .     S
C2020  H2182   1.114   .     S
C2020  C2021   1.521   .     S
C2020  H2074   1.116   .     S
C2020  O2205   1.413   .     S
C2021  H2085   1.107   .     S
C2021  H2096   1.105   .     S
C2021  C2022   1.525   .     S
C2022  H2098   1.104   .     S
C2022  H2100   1.110   .     S
C2022  H2099   1.101   .     S
C2023  O2206   1.422   .     S
C2023  C2024   1.519   .     S
C2023  H2102   1.117   .     S
C2023  H2101   1.106   .     S
C2024  C2025   1.518   .     S
C2024  H2103   1.101   .     S
C2024  H2352   1.102   1_455 S
C2025  H2108   1.109   .     S
C2025  H2354   1.110   1_455 S
C2025  H371    1.104   1_456 S
C2026  H2109   1.114   .     S
C2026  C2027   1.523   .     S
C2026  H2110   1.117   .     S
C2026  O2207   1.417   .     S
C2027  H2111   1.107   .     S
C2027  C2028   1.522   .     S
C2027  H2112   1.109   .     S
C2028  H2115   1.109   .     S
C2028  H2114   1.103   .     S
C2028  H2113   1.107   .     S
C2029  O2200   1.300   .     A
C2029  O2228   1.305   .     A
C2030  H2118   1.106   .     S
C2030  C2031   1.523   .     S
C2030  H2117   1.115   .     S
C2030  O2209   1.415   .     S
C2031  H2120   1.112   .     S
C2031  H2119   1.106   .     S
C2031  C2280   1.513   .     S
C2032  H2121   1.109   .     S
C2032  H2123   1.101   .     S
C2032  H2122   1.104   .     S
C2032  C2279   1.513   1_455 S
C2033  H2125   1.118   .     S
C2033  O2210   1.410   .     S
C2033  C2034   1.525   .     S
C2033  H2124   1.111   .     S
C2034  H2126   1.111   .     S
C2034  H2128   1.111   .     S
C2034  C2035   1.520   .     S
C2035  H2129   1.110   .     S
C2035  H2131   1.109   .     S
C2035  H2130   1.103   .     S
C2036  O2211   1.421   .     S
C2036  H2133   1.112   .     S
C2036  C2037   1.538   .     S
C2036  H2132   1.105   .     S
C2037  C2038   1.520   .     S
C2037  H2134   1.108   .     S
C2037  H2135   1.112   .     S
C2038  H2137   1.107   .     S
C2038  H2384   1.110   .     S
C2038  H2387   1.104   .     S
C2039  O2212   1.413   .     S
C2039  H2140   1.111   .     S
C2039  C2041   1.519   .     S
C2039  H2141   1.118   .     S
C2040  O2198   1.300   .     A
C2040  O2199   1.299   .     A
C2041  H2142   1.104   .     S
C2041  C2042   1.518   .     S
C2041  H2143   1.109   .     S
C2042  H2144   1.110   .     S
C2042  H2145   1.106   .     S
C2042  H2146   1.108   .     S
C2043  O2213   1.418   .     S
C2043  H2148   1.115   .     S
C2043  C2044   1.541   .     S
C2043  H2147   1.103   .     S
C2044  H2151   1.111   .     S
C2044  H2150   1.108   .     S
C2044  C2045   1.526   .     S
C2045  H2153   1.105   .     S
C2045  H2152   1.105   .     S
C2045  H2154   1.109   .     S
C2046  H2155   1.111   .     S
C2046  O2214   1.415   .     S
C2046  C2047   1.520   .     S
C2046  H2156   1.118   .     S
C2047  H2157   1.106   .     S
C2047  H2158   1.110   .     S
C2048  H2161   1.100   .     S
C2048  C63     1.519   1_556 S
C2048  H175    1.108   1_556 S
C2048  H674    1.109   1_556 S
C2049  O2215   1.414   .     S
C2049  H2163   1.109   .     S
C2049  C2050   1.522   .     S
C2049  H2164   1.118   .     S
C2050  C2052   1.521   .     S
C2050  H2166   1.110   .     S
C2050  H2165   1.109   .     S
C2051  O2204   1.302   .     A
C2051  O2201   1.308   .     A
C2052  H2167   1.108   .     S
C2052  H2169   1.107   .     S
C2052  H2168   1.104   .     S
C2053  H2172   1.116   .     S
C2053  O2216   1.417   .     S
C2053  C2054   1.536   .     S
C2053  H2170   1.108   .     S
C2054  C2055   1.528   .     S
C2054  H2174   1.107   .     S
C2054  H2173   1.104   .     S
C2055  H2177   1.108   .     S
C2055  H2176   1.109   .     S
C2055  H2175   1.108   .     S
C2056  H2179   1.118   .     S
C2056  O2217   1.418   .     S
C2056  C2057   1.525   .     S
C2056  H2178   1.110   .     S
C2057  H2180   1.109   .     S
C2057  C2058   1.522   .     S
C2057  H2181   1.111   .     S
C2058  H2183   1.109   .     S
C2058  H2185   1.106   .     S
C2058  H2184   1.105   .     S
C2059  O2218   1.415   .     S
C2059  H2186   1.110   .     S
C2059  C2060   1.527   .     S
C2059  H2187   1.116   .     S
C2060  C2061   1.520   .     S
C2060  H2189   1.107   .     S
C2060  H2188   1.110   .     S
C2061  H2190   1.110   .     S
C2061  H207    1.105   1_556 S
C2061  H2688   1.105   .     S
C2062  O2203   1.301   .     A
C2062  O2202   1.305   .     A
C2063  O2220   1.414   .     S
C2063  H2076   1.115   .     S
C2063  H2075   1.114   .     S
C2063  C2064   1.517   .     S
C2064  C2065   1.524   .     S
C2064  H2077   1.105   .     S
C2064  H2078   1.109   .     S
C2065  H2080   1.099   .     S
C2065  H2081   1.111   .     S
C2065  H2079   1.103   .     S
C2066  H2083   1.113   .     S
C2066  O2221   1.423   .     S
C2066  H2082   1.103   .     S
C2066  C2067   1.530   .     S
C2067  H2086   1.110   .     S
C2067  H2084   1.111   .     S
C2067  C2564   1.519   1_545 S
C2068  H2088   1.110   .     S
C2068  H2089   1.107   .     S
C2068  C2563   1.519   .     S
C2068  H2583   1.103   .     S
C2069  O2222   1.412   .     S
C2069  C2070   1.520   .     S
C2069  H2090   1.118   .     S
C2069  H2091   1.106   .     S
C2070  H2093   1.099   .     S
C2070  C2071   1.517   .     S
C2070  H2092   1.111   .     S
C2071  H2094   1.111   .     S
C2071  H2095   1.105   .     S
C2071  H2097   1.098   .     S
C2072  H2073   1.081   .     S
C2072  N2194   1.369   .     S
H2087  C2564   1.103   1_545 S
H2104  C2272   1.102   .     S
H2106  C2273   1.110   .     S
H2136  C2286   1.110   1_455 S
H2139  C2286   1.104   1_455 S
H2162  C1552   1.109   1_545 S
H2192  C2557   1.105   1_545 S
N2193  Zn2229  2.039   .     S
N2193  C2234   1.368   1_455 S
N2194  C2235   1.369   1_455 A
N2194  Zn2230  2.039   .     S
N2195  Zn2231  2.039   .     S
N2195  C2486   1.366   1_545 S
N2196  Zn2232  2.039   .     S
N2196  C2487   1.368   1_545 S
O2197  Zn2229  2.043   .     S
O2198  Zn2232  2.043   .     S
O2199  Zn2231  2.036   .     S
O2200  Zn2728  2.036   .     S
O2201  Zn2728  2.046   .     S
O2202  Zn2231  2.046   .     S
O2203  Zn2232  2.043   .     S
O2204  Zn2727  2.043   .     S
O2208  Zn2478  2.043   .     S
O2219  Zn2477  2.036   .     S
O2223  Zn2230  2.036   .     S
O2224  Zn2478  2.046   .     S
O2225  Zn2229  2.046   .     S
O2226  Zn2230  2.043   .     S
O2227  Zn2477  2.043   .     S
O2228  Zn2727  2.043   .     S
Zn2229 O2475   2.043   1_455 S
Zn2229 O2467   2.036   1_455 S
Zn2230 O2472   2.046   1_455 S
Zn2230 O2456   2.043   1_455 S
Zn2231 O2700   2.043   1_545 S
Zn2231 O2724   2.043   1_545 S
Zn2232 O2697   2.046   1_545 S
Zn2232 O2696   2.036   1_545 S
C2233  O2471   1.301   .     A
C2233  O2445   1.307   .     A
C2233  C2262   1.461   .     S
C2234  H2353   1.077   .     S
C2234  C251    1.425   1_556 S
C2234  N2193   1.368   1_655 S
C2235  N2194   1.369   1_655 A
C2235  H2364   1.082   .     S
C2236  H2375   1.077   .     S
C2236  N2441   1.368   .     A
C2236  C336    1.426   1_556 S
C2237  H2386   1.080   .     S
C2237  N2444   1.369   .     A
C2238  H2397   1.069   .     S
C2238  C255    1.424   1_556 S
C2238  N2939   1.366   .     S
C2239  H2408   1.081   .     S
C2239  N2940   1.368   .     S
C2240  N2443   1.370   .     A
C2240  H2419   1.078   .     S
C2240  C253    1.427   1_556 S
C2241  C2252   1.384   .     A
C2241  O2453   1.377   .     S
C2241  C2260   1.400   .     A
C2242  C2259   1.409   .     A
C2242  C2253   1.389   .     A
C2242  O2454   1.386   .     S
C2243  C2250   1.382   .     A
C2243  O2455   1.380   .     S
C2243  C2259   1.404   .     A
C2244  O2467   1.297   .     A
C2244  O2456   1.306   .     A
C2244  C2261   1.453   .     S
C2245  O2457   1.381   .     S
C2245  C2251   1.392   .     A
C2245  C2260   1.407   .     A
C2246  O2458   1.377   .     S
C2246  C2262   1.412   .     A
C2246  C2257   1.383   .     A
C2247  C2261   1.403   .     A
C2247  C2258   1.392   .     A
C2247  O2459   1.385   .     S
C2248  O2460   1.381   .     S
C2248  C2261   1.409   .     A
C2248  C2254   1.383   .     A
C2249  C2262   1.412   .     A
C2249  C2256   1.382   .     A
C2249  O2461   1.379   .     S
C2250  O2462   1.377   .     S
C2250  C2264   1.406   .     A
C2251  C2263   1.412   .     A
C2251  O2463   1.384   .     S
C2252  O2464   1.378   .     S
C2252  C2263   1.409   .     A
C2253  O2465   1.383   .     S
C2253  C2264   1.421   .     A
C2254  C2267   1.404   .     A
C2254  O2466   1.379   .     S
C2255  C2260   1.454   .     S
C2255  O2475   1.296   .     A
C2255  O2472   1.308   .     A
C2256  O2468   1.373   .     S
C2256  C2265   1.401   .     A
C2257  O2469   1.386   .     S
C2257  C2265   1.404   .     A
C2258  O2470   1.384   .     S
C2258  C2267   1.408   .     A
C2259  C2266   1.450   .     S
C2263  C2310   1.459   .     S
C2264  C2299   1.466   .     S
C2265  C2288   1.447   .     S
C2266  O2474   1.301   .     A
C2266  O2473   1.301   .     A
C2267  C2277   1.455   .     S
C2268  H2430   1.114   .     S
C2268  C2269   1.521   .     S
C2268  H2322   1.116   .     S
C2268  O2453   1.413   .     S
C2269  H2333   1.107   .     S
C2269  H2344   1.105   .     S
C2269  C2270   1.525   .     S
C2270  H2346   1.104   .     S
C2270  H2348   1.110   .     S
C2270  H2347   1.101   .     S
C2271  O2454   1.422   .     S
C2271  C2272   1.519   .     S
C2271  H2350   1.117   .     S
C2271  H2349   1.106   .     S
C2272  C2273   1.518   .     S
C2272  H2351   1.101   .     S
C2273  H2356   1.109   .     S
C2273  H123    1.104   1_556 S
C2274  H2357   1.114   .     S
C2274  C2275   1.523   .     S
C2274  H2358   1.117   .     S
C2274  O2455   1.417   .     S
C2275  H2359   1.107   .     S
C2275  C2276   1.522   .     S
C2275  H2360   1.109   .     S
C2276  H2363   1.109   .     S
C2276  H2362   1.103   .     S
C2276  H2361   1.107   .     S
C2277  O2448   1.300   .     A
C2277  O2476   1.305   .     A
C2278  H2366   1.106   .     S
C2278  C2279   1.523   .     S
C2278  H2365   1.115   .     S
C2278  O2457   1.415   .     S
C2279  H2368   1.112   .     S
C2279  H2367   1.106   .     S
C2279  C2032   1.513   1_655 S
C2280  H2369   1.109   .     S
C2280  H2371   1.101   .     S
C2280  H2370   1.104   .     S
C2281  H2373   1.118   .     S
C2281  O2458   1.410   .     S
C2281  C2282   1.525   .     S
C2281  H2372   1.111   .     S
C2282  H2374   1.111   .     S
C2282  H2376   1.111   .     S
C2282  C2283   1.520   .     S
C2283  H2377   1.110   .     S
C2283  H2379   1.109   .     S
C2283  H2378   1.103   .     S
C2284  O2459   1.421   .     S
C2284  H2381   1.112   .     S
C2284  C2285   1.538   .     S
C2284  H2380   1.105   .     S
C2285  C2286   1.520   .     S
C2285  H2382   1.108   .     S
C2285  H2383   1.112   .     S
C2286  H2385   1.107   .     S
C2286  H2136   1.110   1_655 S
C2286  H2139   1.104   1_655 S
C2287  O2460   1.413   .     S
C2287  H2388   1.111   .     S
C2287  C2289   1.519   .     S
C2287  H2389   1.118   .     S
C2288  O2446   1.300   .     A
C2288  O2447   1.299   .     A
C2289  H2390   1.104   .     S
C2289  C2290   1.518   .     S
C2289  H2391   1.109   .     S
C2290  H2392   1.110   .     S
C2290  H2393   1.106   .     S
C2290  H2394   1.108   .     S
C2291  O2461   1.418   .     S
C2291  H2396   1.115   .     S
C2291  C2292   1.541   .     S
C2291  H2395   1.103   .     S
C2292  H2399   1.111   .     S
C2292  H2398   1.108   .     S
C2292  C2293   1.526   .     S
C2293  H2401   1.105   .     S
C2293  H2400   1.105   .     S
C2293  H2402   1.109   .     S
C2294  H2403   1.111   .     S
C2294  O2462   1.415   .     S
C2294  C2295   1.520   .     S
C2294  H2404   1.118   .     S
C2295  H2405   1.106   .     S
C2295  H2406   1.110   .     S
C2296  H2409   1.100   .     S
C2296  C311    1.519   1_556 S
C2296  H423    1.108   1_556 S
C2296  H922    1.109   1_556 S
C2297  O2463   1.414   .     S
C2297  H2411   1.109   .     S
C2297  C2298   1.522   .     S
C2297  H2412   1.118   .     S
C2298  C2300   1.521   .     S
C2298  H2414   1.110   .     S
C2298  H2413   1.109   .     S
C2299  O2452   1.302   .     A
C2299  O2449   1.308   .     A
C2300  H2415   1.108   .     S
C2300  H2417   1.107   .     S
C2300  H2416   1.104   .     S
C2301  H2420   1.116   .     S
C2301  O2464   1.417   .     S
C2301  C2302   1.536   .     S
C2301  H2418   1.108   .     S
C2302  C2303   1.528   .     S
C2302  H2422   1.107   .     S
C2302  H2421   1.104   .     S
C2303  H2425   1.108   .     S
C2303  H2424   1.109   .     S
C2303  H2423   1.108   .     S
C2304  H2427   1.118   .     S
C2304  O2465   1.418   .     S
C2304  C2305   1.525   .     S
C2304  H2426   1.110   .     S
C2305  H2428   1.109   .     S
C2305  C2306   1.522   .     S
C2305  H2429   1.111   .     S
C2306  H2431   1.109   .     S
C2306  H2433   1.106   .     S
C2306  H2432   1.105   .     S
C2307  O2466   1.415   .     S
C2307  H2434   1.110   .     S
C2307  C2308   1.527   .     S
C2307  H2435   1.116   .     S
C2308  C2309   1.520   .     S
C2308  H2437   1.107   .     S
C2308  H2436   1.110   .     S
C2309  H2438   1.110   .     S
C2309  H455    1.105   1_556 S
C2309  H2936   1.105   .     S
C2310  O2451   1.301   .     A
C2310  O2450   1.305   .     A
C2311  O2468   1.414   .     S
C2311  H2324   1.115   .     S
C2311  H2323   1.114   .     S
C2311  C2312   1.517   .     S
C2312  C2313   1.524   .     S
C2312  H2325   1.105   .     S
C2312  H2326   1.109   .     S
C2313  H2328   1.099   .     S
C2313  H2329   1.111   .     S
C2313  H2327   1.103   .     S
C2314  H2331   1.113   .     S
C2314  O2469   1.423   .     S
C2314  H2330   1.103   .     S
C2314  C2315   1.530   .     S
C2315  H2334   1.110   .     S
C2315  H2332   1.111   .     S
C2315  C2812   1.519   1_545 S
C2316  H2336   1.110   .     S
C2316  H2337   1.107   .     S
C2316  C2811   1.519   .     S
C2316  H2831   1.103   .     S
C2317  O2470   1.412   .     S
C2317  C2318   1.520   .     S
C2317  H2338   1.118   .     S
C2317  H2339   1.106   .     S
C2318  H2341   1.099   .     S
C2318  C2319   1.517   .     S
C2318  H2340   1.111   .     S
C2319  H2342   1.111   .     S
C2319  H2343   1.105   .     S
C2319  H2345   1.098   .     S
C2320  H2321   1.081   .     S
C2320  N2442   1.369   .     S
H2335  C2812   1.103   1_545 S
H2352  C2024   1.102   1_655 S
H2354  C2025   1.110   1_655 S
H2355  C1033   1.104   1_655 S
H2410  C1800   1.109   1_545 S
H2440  C2805   1.105   1_545 S
N2441  Zn2477  2.039   .     S
N2442  Zn2478  2.039   .     S
N2443  Zn2479  2.039   .     S
N2443  C2734   1.366   1_545 S
N2444  Zn2480  2.039   .     S
N2444  C2735   1.368   1_545 S
O2445  Zn2477  2.043   .     S
O2446  Zn2480  2.043   .     S
O2447  Zn2479  2.036   .     S
O2448  Zn2976  2.036   .     S
O2449  Zn2976  2.046   .     S
O2450  Zn2479  2.046   .     S
O2451  Zn2480  2.043   .     S
O2452  Zn2975  2.043   .     S
O2456  Zn2230  2.043   1_655 S
O2467  Zn2229  2.036   1_655 S
O2471  Zn2478  2.036   .     S
O2472  Zn2230  2.046   1_655 S
O2473  Zn2477  2.046   .     S
O2474  Zn2478  2.043   .     S
O2475  Zn2229  2.043   1_655 S
O2476  Zn2975  2.043   .     S
Zn2479 O2948   2.043   1_545 S
Zn2479 O2972   2.043   1_545 S
Zn2480 O2945   2.046   1_545 S
Zn2480 O2944   2.036   1_545 S
C2481  O2719   1.301   .     A
C2481  O2693   1.307   .     A
C2481  C2510   1.461   .     S
C2482  H2601   1.077   .     S
C2482  C499    1.425   1_556 S
C2482  N2937   1.368   .     S
C2483  N2938   1.369   .     A
C2483  H2612   1.082   .     S
C2484  H2623   1.077   .     S
C2484  N2689   1.368   .     A
C2484  C584    1.426   1_556 S
C2485  H2634   1.080   .     S
C2485  N2692   1.369   .     A
C2486  H2645   1.069   .     S
C2486  C503    1.424   1_556 S
C2486  N2195   1.366   1_565 S
C2487  H2656   1.081   .     S
C2487  N2196   1.368   1_565 S
C2488  N2691   1.370   .     A
C2488  H2667   1.078   .     S
C2488  C501    1.427   1_556 S
C2489  C2500   1.384   .     A
C2489  O2701   1.377   .     S
C2489  C2508   1.400   .     A
C2490  C2507   1.409   .     A
C2490  C2501   1.389   .     A
C2490  O2702   1.386   .     S
C2491  C2498   1.382   .     A
C2491  O2703   1.380   .     S
C2491  C2507   1.404   .     A
C2492  O2715   1.297   .     A
C2492  O2704   1.306   .     A
C2492  C2509   1.453   .     S
C2493  O2705   1.381   .     S
C2493  C2499   1.392   .     A
C2493  C2508   1.407   .     A
C2494  O2706   1.377   .     S
C2494  C2510   1.412   .     A
C2494  C2505   1.383   .     A
C2495  C2509   1.403   .     A
C2495  C2506   1.392   .     A
C2495  O2707   1.385   .     S
C2496  O2708   1.381   .     S
C2496  C2509   1.409   .     A
C2496  C2502   1.383   .     A
C2497  C2510   1.412   .     A
C2497  C2504   1.382   .     A
C2497  O2709   1.379   .     S
C2498  O2710   1.377   .     S
C2498  C2512   1.406   .     A
C2499  C2511   1.412   .     A
C2499  O2711   1.384   .     S
C2500  O2712   1.378   .     S
C2500  C2511   1.409   .     A
C2501  O2713   1.383   .     S
C2501  C2512   1.421   .     A
C2502  C2515   1.404   .     A
C2502  O2714   1.379   .     S
C2503  C2508   1.454   .     S
C2503  O2723   1.296   .     A
C2503  O2720   1.308   .     A
C2504  O2716   1.373   .     S
C2504  C2513   1.401   .     A
C2505  O2717   1.386   .     S
C2505  C2513   1.404   .     A
C2506  O2718   1.384   .     S
C2506  C2515   1.408   .     A
C2507  C2514   1.450   .     S
C2511  C2558   1.459   .     S
C2512  C2547   1.466   .     S
C2513  C2536   1.447   .     S
C2514  O2722   1.301   .     A
C2514  O2721   1.301   .     A
C2515  C2525   1.455   .     S
C2516  H2678   1.114   .     S
C2516  C2517   1.521   .     S
C2516  H2570   1.116   .     S
C2516  O2701   1.413   .     S
C2517  H2581   1.107   .     S
C2517  H2592   1.105   .     S
C2517  C2518   1.525   .     S
C2518  H2594   1.104   .     S
C2518  H2596   1.110   .     S
C2518  H2595   1.101   .     S
C2519  O2702   1.422   .     S
C2519  C2520   1.519   .     S
C2519  H2598   1.117   .     S
C2519  H2597   1.106   .     S
C2520  C2521   1.518   .     S
C2520  H2599   1.101   .     S
C2520  H2848   1.102   1_455 S
C2521  H2604   1.109   .     S
C2521  H2850   1.110   1_455 S
C2521  H867    1.104   1_456 S
C2522  H2605   1.114   .     S
C2522  C2523   1.523   .     S
C2522  H2606   1.117   .     S
C2522  O2703   1.417   .     S
C2523  H2607   1.107   .     S
C2523  C2524   1.522   .     S
C2523  H2608   1.109   .     S
C2524  H2611   1.109   .     S
C2524  H2610   1.103   .     S
C2524  H2609   1.107   .     S
C2525  O2696   1.300   .     A
C2525  O2724   1.305   .     A
C2526  H2614   1.106   .     S
C2526  C2527   1.523   .     S
C2526  H2613   1.115   .     S
C2526  O2705   1.415   .     S
C2527  H2616   1.112   .     S
C2527  H2615   1.106   .     S
C2527  C2776   1.513   .     S
C2528  H2617   1.109   .     S
C2528  H2619   1.101   .     S
C2528  H2618   1.104   .     S
C2528  C2775   1.513   1_455 S
C2529  H2621   1.118   .     S
C2529  O2706   1.410   .     S
C2529  C2530   1.525   .     S
C2529  H2620   1.111   .     S
C2530  H2622   1.111   .     S
C2530  H2624   1.111   .     S
C2530  C2531   1.520   .     S
C2531  H2625   1.110   .     S
C2531  H2627   1.109   .     S
C2531  H2626   1.103   .     S
C2532  O2707   1.421   .     S
C2532  H2629   1.112   .     S
C2532  C2533   1.538   .     S
C2532  H2628   1.105   .     S
C2533  C2534   1.520   .     S
C2533  H2630   1.108   .     S
C2533  H2631   1.112   .     S
C2534  H2633   1.107   .     S
C2534  H2880   1.110   .     S
C2534  H2883   1.104   .     S
C2535  O2708   1.413   .     S
C2535  H2636   1.111   .     S
C2535  C2537   1.519   .     S
C2535  H2637   1.118   .     S
C2536  O2694   1.300   .     A
C2536  O2695   1.299   .     A
C2537  H2638   1.104   .     S
C2537  C2538   1.518   .     S
C2537  H2639   1.109   .     S
C2538  H2640   1.110   .     S
C2538  H2641   1.106   .     S
C2538  H2642   1.108   .     S
C2539  O2709   1.418   .     S
C2539  H2644   1.115   .     S
C2539  C2540   1.541   .     S
C2539  H2643   1.103   .     S
C2540  H2647   1.111   .     S
C2540  H2646   1.108   .     S
C2540  C2541   1.526   .     S
C2541  H2649   1.105   .     S
C2541  H2648   1.105   .     S
C2541  H2650   1.109   .     S
C2542  H2651   1.111   .     S
C2542  O2710   1.415   .     S
C2542  C2543   1.520   .     S
C2542  H2652   1.118   .     S
C2543  H2653   1.106   .     S
C2543  H2654   1.110   .     S
C2544  H2657   1.100   .     S
C2544  C559    1.519   1_556 S
C2544  H671    1.108   1_556 S
C2544  H178    1.109   1_566 S
C2545  O2711   1.414   .     S
C2545  H2659   1.109   .     S
C2545  C2546   1.522   .     S
C2545  H2660   1.118   .     S
C2546  C2548   1.521   .     S
C2546  H2662   1.110   .     S
C2546  H2661   1.109   .     S
C2547  O2700   1.302   .     A
C2547  O2697   1.308   .     A
C2548  H2663   1.108   .     S
C2548  H2665   1.107   .     S
C2548  H2664   1.104   .     S
C2549  H2668   1.116   .     S
C2549  O2712   1.417   .     S
C2549  C2550   1.536   .     S
C2549  H2666   1.108   .     S
C2550  C2551   1.528   .     S
C2550  H2670   1.107   .     S
C2550  H2669   1.104   .     S
C2551  H2673   1.108   .     S
C2551  H2672   1.109   .     S
C2551  H2671   1.108   .     S
C2552  H2675   1.118   .     S
C2552  O2713   1.418   .     S
C2552  C2553   1.525   .     S
C2552  H2674   1.110   .     S
C2553  H2676   1.109   .     S
C2553  C2554   1.522   .     S
C2553  H2677   1.111   .     S
C2554  H2679   1.109   .     S
C2554  H2681   1.106   .     S
C2554  H2680   1.105   .     S
C2555  O2714   1.415   .     S
C2555  H2682   1.110   .     S
C2555  C2556   1.527   .     S
C2555  H2683   1.116   .     S
C2556  C2557   1.520   .     S
C2556  H2685   1.107   .     S
C2556  H2684   1.110   .     S
C2557  H2686   1.110   .     S
C2557  H703    1.105   1_556 S
C2557  H2192   1.105   1_565 S
C2558  O2699   1.301   .     A
C2558  O2698   1.305   .     A
C2559  O2716   1.414   .     S
C2559  H2572   1.115   .     S
C2559  H2571   1.114   .     S
C2559  C2560   1.517   .     S
C2560  C2561   1.524   .     S
C2560  H2573   1.105   .     S
C2560  H2574   1.109   .     S
C2561  H2576   1.099   .     S
C2561  H2577   1.111   .     S
C2561  H2575   1.103   .     S
C2562  H2579   1.113   .     S
C2562  O2717   1.423   .     S
C2562  H2578   1.103   .     S
C2562  C2563   1.530   .     S
C2563  H2582   1.110   .     S
C2563  H2580   1.111   .     S
C2564  H2584   1.110   .     S
C2564  H2585   1.107   .     S
C2564  C2067   1.519   1_565 S
C2564  H2087   1.103   1_565 S
C2565  O2718   1.412   .     S
C2565  C2566   1.520   .     S
C2565  H2586   1.118   .     S
C2565  H2587   1.106   .     S
C2566  H2589   1.099   .     S
C2566  C2567   1.517   .     S
C2566  H2588   1.111   .     S
C2567  H2590   1.111   .     S
C2567  H2591   1.105   .     S
C2567  H2593   1.098   .     S
C2568  H2569   1.081   .     S
C2568  N2690   1.369   .     S
H2600  C2768   1.102   .     S
H2602  C2769   1.110   .     S
H2632  C2782   1.110   1_455 S
H2635  C2782   1.104   1_455 S
N2689  Zn2725  2.039   .     S
N2689  C2730   1.368   1_455 S
N2690  C2731   1.369   1_455 A
N2690  Zn2726  2.039   .     S
N2691  Zn2727  2.039   .     S
N2692  Zn2728  2.039   .     S
O2693  Zn2725  2.043   .     S
O2694  Zn2728  2.043   .     S
O2695  Zn2727  2.036   .     S
O2696  Zn2232  2.036   1_565 S
O2697  Zn2232  2.046   1_565 S
O2698  Zn2727  2.046   .     S
O2699  Zn2728  2.043   .     S
O2700  Zn2231  2.043   1_565 S
O2704  Zn2974  2.043   .     S
O2715  Zn2973  2.036   .     S
O2719  Zn2726  2.036   .     S
O2720  Zn2974  2.046   .     S
O2721  Zn2725  2.046   .     S
O2722  Zn2726  2.043   .     S
O2723  Zn2973  2.043   .     S
O2724  Zn2231  2.043   1_565 S
Zn2725 O2971   2.043   1_455 S
Zn2725 O2963   2.036   1_455 S
Zn2726 O2968   2.046   1_455 S
Zn2726 O2952   2.043   1_455 S
C2729  O2967   1.301   .     A
C2729  O2941   1.307   .     A
C2729  C2758   1.461   .     S
C2730  H2849   1.077   .     S
C2730  C747    1.425   1_556 S
C2730  N2689   1.368   1_655 S
C2731  N2690   1.369   1_655 A
C2731  H2860   1.082   .     S
C2732  H2871   1.077   .     S
C2732  N2937   1.368   .     A
C2732  C832    1.426   1_556 S
C2733  H2882   1.080   .     S
C2733  N2940   1.369   .     A
C2734  H2893   1.069   .     S
C2734  C751    1.424   1_556 S
C2734  N2443   1.366   1_565 S
C2735  H2904   1.081   .     S
C2735  N2444   1.368   1_565 S
C2736  N2939   1.370   .     A
C2736  H2915   1.078   .     S
C2736  C749    1.427   1_556 S
C2737  C2748   1.384   .     A
C2737  O2949   1.377   .     S
C2737  C2756   1.400   .     A
C2738  C2755   1.409   .     A
C2738  C2749   1.389   .     A
C2738  O2950   1.386   .     S
C2739  C2746   1.382   .     A
C2739  O2951   1.380   .     S
C2739  C2755   1.404   .     A
C2740  O2963   1.297   .     A
C2740  O2952   1.306   .     A
C2740  C2757   1.453   .     S
C2741  O2953   1.381   .     S
C2741  C2747   1.392   .     A
C2741  C2756   1.407   .     A
C2742  O2954   1.377   .     S
C2742  C2758   1.412   .     A
C2742  C2753   1.383   .     A
C2743  C2757   1.403   .     A
C2743  C2754   1.392   .     A
C2743  O2955   1.385   .     S
C2744  O2956   1.381   .     S
C2744  C2757   1.409   .     A
C2744  C2750   1.383   .     A
C2745  C2758   1.412   .     A
C2745  C2752   1.382   .     A
C2745  O2957   1.379   .     S
C2746  O2958   1.377   .     S
C2746  C2760   1.406   .     A
C2747  C2759   1.412   .     A
C2747  O2959   1.384   .     S
C2748  O2960   1.378   .     S
C2748  C2759   1.409   .     A
C2749  O2961   1.383   .     S
C2749  C2760   1.421   .     A
C2750  C2763   1.404   .     A
C2750  O2962   1.379   .     S
C2751  C2756   1.454   .     S
C2751  O2971   1.296   .     A
C2751  O2968   1.308   .     A
C2752  O2964   1.373   .     S
C2752  C2761   1.401   .     A
C2753  O2965   1.386   .     S
C2753  C2761   1.404   .     A
C2754  O2966   1.384   .     S
C2754  C2763   1.408   .     A
C2755  C2762   1.450   .     S
C2759  C2806   1.459   .     S
C2760  C2795   1.466   .     S
C2761  C2784   1.447   .     S
C2762  O2970   1.301   .     A
C2762  O2969   1.301   .     A
C2763  C2773   1.455   .     S
C2764  H2926   1.114   .     S
C2764  C2765   1.521   .     S
C2764  H2818   1.116   .     S
C2764  O2949   1.413   .     S
C2765  H2829   1.107   .     S
C2765  H2840   1.105   .     S
C2765  C2766   1.525   .     S
C2766  H2842   1.104   .     S
C2766  H2844   1.110   .     S
C2766  H2843   1.101   .     S
C2767  O2950   1.422   .     S
C2767  C2768   1.519   .     S
C2767  H2846   1.117   .     S
C2767  H2845   1.106   .     S
C2768  C2769   1.518   .     S
C2768  H2847   1.101   .     S
C2769  H2852   1.109   .     S
C2769  H619    1.104   1_556 S
C2770  H2853   1.114   .     S
C2770  C2771   1.523   .     S
C2770  H2854   1.117   .     S
C2770  O2951   1.417   .     S
C2771  H2855   1.107   .     S
C2771  C2772   1.522   .     S
C2771  H2856   1.109   .     S
C2772  H2859   1.109   .     S
C2772  H2858   1.103   .     S
C2772  H2857   1.107   .     S
C2773  O2944   1.300   .     A
C2773  O2972   1.305   .     A
C2774  H2862   1.106   .     S
C2774  C2775   1.523   .     S
C2774  H2861   1.115   .     S
C2774  O2953   1.415   .     S
C2775  H2864   1.112   .     S
C2775  H2863   1.106   .     S
C2775  C2528   1.513   1_655 S
C2776  H2865   1.109   .     S
C2776  H2867   1.101   .     S
C2776  H2866   1.104   .     S
C2777  H2869   1.118   .     S
C2777  O2954   1.410   .     S
C2777  C2778   1.525   .     S
C2777  H2868   1.111   .     S
C2778  H2870   1.111   .     S
C2778  H2872   1.111   .     S
C2778  C2779   1.520   .     S
C2779  H2873   1.110   .     S
C2779  H2875   1.109   .     S
C2779  H2874   1.103   .     S
C2780  O2955   1.421   .     S
C2780  H2877   1.112   .     S
C2780  C2781   1.538   .     S
C2780  H2876   1.105   .     S
C2781  C2782   1.520   .     S
C2781  H2878   1.108   .     S
C2781  H2879   1.112   .     S
C2782  H2881   1.107   .     S
C2782  H2632   1.110   1_655 S
C2782  H2635   1.104   1_655 S
C2783  O2956   1.413   .     S
C2783  H2884   1.111   .     S
C2783  C2785   1.519   .     S
C2783  H2885   1.118   .     S
C2784  O2942   1.300   .     A
C2784  O2943   1.299   .     A
C2785  H2886   1.104   .     S
C2785  C2786   1.518   .     S
C2785  H2887   1.109   .     S
C2786  H2888   1.110   .     S
C2786  H2889   1.106   .     S
C2786  H2890   1.108   .     S
C2787  O2957   1.418   .     S
C2787  H2892   1.115   .     S
C2787  C2788   1.541   .     S
C2787  H2891   1.103   .     S
C2788  H2895   1.111   .     S
C2788  H2894   1.108   .     S
C2788  C2789   1.526   .     S
C2789  H2897   1.105   .     S
C2789  H2896   1.105   .     S
C2789  H2898   1.109   .     S
C2790  H2899   1.111   .     S
C2790  O2958   1.415   .     S
C2790  C2791   1.520   .     S
C2790  H2900   1.118   .     S
C2791  H2901   1.106   .     S
C2791  H2902   1.110   .     S
C2792  H2905   1.100   .     S
C2792  C807    1.519   1_556 S
C2792  H919    1.108   1_556 S
C2792  H426    1.109   1_566 S
C2793  O2959   1.414   .     S
C2793  H2907   1.109   .     S
C2793  C2794   1.522   .     S
C2793  H2908   1.118   .     S
C2794  C2796   1.521   .     S
C2794  H2910   1.110   .     S
C2794  H2909   1.109   .     S
C2795  O2948   1.302   .     A
C2795  O2945   1.308   .     A
C2796  H2911   1.108   .     S
C2796  H2913   1.107   .     S
C2796  H2912   1.104   .     S
C2797  H2916   1.116   .     S
C2797  O2960   1.417   .     S
C2797  C2798   1.536   .     S
C2797  H2914   1.108   .     S
C2798  C2799   1.528   .     S
C2798  H2918   1.107   .     S
C2798  H2917   1.104   .     S
C2799  H2921   1.108   .     S
C2799  H2920   1.109   .     S
C2799  H2919   1.108   .     S
C2800  H2923   1.118   .     S
C2800  O2961   1.418   .     S
C2800  C2801   1.525   .     S
C2800  H2922   1.110   .     S
C2801  H2924   1.109   .     S
C2801  C2802   1.522   .     S
C2801  H2925   1.111   .     S
C2802  H2927   1.109   .     S
C2802  H2929   1.106   .     S
C2802  H2928   1.105   .     S
C2803  O2962   1.415   .     S
C2803  H2930   1.110   .     S
C2803  C2804   1.527   .     S
C2803  H2931   1.116   .     S
C2804  C2805   1.520   .     S
C2804  H2933   1.107   .     S
C2804  H2932   1.110   .     S
C2805  H2934   1.110   .     S
C2805  H951    1.105   1_556 S
C2805  H2440   1.105   1_565 S
C2806  O2947   1.301   .     A
C2806  O2946   1.305   .     A
C2807  O2964   1.414   .     S
C2807  H2820   1.115   .     S
C2807  H2819   1.114   .     S
C2807  C2808   1.517   .     S
C2808  C2809   1.524   .     S
C2808  H2821   1.105   .     S
C2808  H2822   1.109   .     S
C2809  H2824   1.099   .     S
C2809  H2825   1.111   .     S
C2809  H2823   1.103   .     S
C2810  H2827   1.113   .     S
C2810  O2965   1.423   .     S
C2810  H2826   1.103   .     S
C2810  C2811   1.530   .     S
C2811  H2830   1.110   .     S
C2811  H2828   1.111   .     S
C2812  H2832   1.110   .     S
C2812  H2833   1.107   .     S
C2812  C2315   1.519   1_565 S
C2812  H2335   1.103   1_565 S
C2813  O2966   1.412   .     S
C2813  C2814   1.520   .     S
C2813  H2834   1.118   .     S
C2813  H2835   1.106   .     S
C2814  H2837   1.099   .     S
C2814  C2815   1.517   .     S
C2814  H2836   1.111   .     S
C2815  H2838   1.111   .     S
C2815  H2839   1.105   .     S
C2815  H2841   1.098   .     S
C2816  H2817   1.081   .     S
C2816  N2938   1.369   .     S
H2848  C2520   1.102   1_655 S
H2850  C2521   1.110   1_655 S
H2851  C1529   1.104   1_655 S
N2937  Zn2973  2.039   .     S
N2938  Zn2974  2.039   .     S
N2939  Zn2975  2.039   .     S
N2940  Zn2976  2.039   .     S
O2941  Zn2973  2.043   .     S
O2942  Zn2976  2.043   .     S
O2943  Zn2975  2.036   .     S
O2944  Zn2480  2.036   1_565 S
O2945  Zn2480  2.046   1_565 S
O2946  Zn2975  2.046   .     S
O2947  Zn2976  2.043   .     S
O2948  Zn2479  2.043   1_565 S
O2952  Zn2726  2.043   1_655 S
O2963  Zn2725  2.036   1_655 S
O2967  Zn2974  2.036   .     S
O2968  Zn2726  2.046   1_655 S
O2969  Zn2973  2.046   .     S
O2970  Zn2974  2.043   .     S
O2971  Zn2725  2.043   1_655 S
O2972  Zn2479  2.043   1_565 S
