data_str_m1_o10_o16_pcu_sym.91
_audit_creation_date              2020-01-03
_audit_creation_method            'Materials Studio'
_symmetry_space_group_name_H-M    'P1'
_symmetry_Int_Tables_number       1
_symmetry_cell_setting            triclinic
loop_
_symmetry_equiv_pos_as_xyz
  x,y,z
_cell_length_a                    32.5206
_cell_length_b                    32.5222
_cell_length_c                    31.2337
_cell_angle_alpha                 96.2051
_cell_angle_beta                  74.4483
_cell_angle_gamma                 98.5167
loop_
_atom_site_label
_atom_site_type_symbol
_atom_site_fract_x
_atom_site_fract_y
_atom_site_fract_z
_atom_site_U_iso_or_equiv
_atom_site_adp_type
_atom_site_occupancy
Zn1    Zn    0.19338   0.13994   0.28734   0.00000  Uiso   1.00
Zn2    Zn    0.13379   0.12458   0.21875   0.00000  Uiso   1.00
Zn3    Zn    0.21056   0.19775   0.20657   0.00000  Uiso   1.00
Zn4    Zn    0.12893   0.20439   0.28733   0.00000  Uiso   1.00
O5     O     0.16667   0.16667   0.25000   0.00000  Uiso   1.00
O6     O     0.07071   0.18878   0.28213   0.00000  Uiso   1.00
O7     O     0.25491   0.15226   0.27013   0.00000  Uiso   1.00
O8     O     0.13760   0.06944   0.23413   0.00000  Uiso   1.00
O9     O     0.20345   0.25620   0.21360   0.00000  Uiso   1.00
O10    O     0.15451   0.12637   0.15458   0.00000  Uiso   1.00
O11    O     0.12940   0.20391   0.34968   0.00000  Uiso   1.00
O12    O     0.20824   0.17759   0.14606   0.00000  Uiso   1.00
O13    O     0.17451   0.15880   0.34968   0.00000  Uiso   1.00
O14    O     0.17930   0.08019   0.28213   0.00000  Uiso   1.00
O15    O     0.14632   0.26085   0.27013   0.00000  Uiso   1.00
O16    O     0.07412   0.13291   0.23413   0.00000  Uiso   1.00
O17    O     0.26693   0.19272   0.21360   0.00000  Uiso   1.00
C18    C     0.05280   0.15982   0.25992   0.00000  Uiso   1.00
C19    C     0.28083   0.17383   0.23991   0.00000  Uiso   1.00
C20    C     0.15602   0.05598   0.26044   0.00000  Uiso   1.00
C21    C     0.17629   0.27784   0.23960   0.00000  Uiso   1.00
C22    C     0.18537   0.14845   0.12954   0.00000  Uiso   1.00
C23    C     0.14910   0.18515   0.37069   0.00000  Uiso   1.00
C24    C     0.24323   0.13302   0.01088   0.00000  Uiso   1.00
H25    H     0.25022   0.11543   0.07221   0.00000  Uiso   1.00
H26    H     0.26637   0.15358   0.42744   0.00000  Uiso   1.00
H27    H     0.27394   0.12343   0.49222   0.00000  Uiso   1.00
C28    C     0.19224   0.14389   0.08165   0.00000  Uiso   1.00
C29    C     0.09502   0.19510   0.44171   0.00000  Uiso   1.00
C30    C     0.07875   0.18791   0.48639   0.00000  Uiso   1.00
C31    C     0.10482   0.17542   0.00999   0.00000  Uiso   1.00
C32    C     0.14916   0.17347   0.49044   0.00000  Uiso   1.00
C33    C     0.16553   0.17991   0.44434   0.00000  Uiso   1.00
C34    C     0.17700   0.16217   0.01436   0.00000  Uiso   1.00
C35    C     0.21787   0.15084   0.48999   0.00000  Uiso   1.00
C36    C     0.23396   0.15914   0.44539   0.00000  Uiso   1.00
C37    C     0.20912   0.17594   0.42371   0.00000  Uiso   1.00
C38    C     0.16645   0.16248   0.06153   0.00000  Uiso   1.00
C39    C     0.22973   0.12836   0.05627   0.00000  Uiso   1.00
C40    C     0.13755   0.18897   0.41970   0.00000  Uiso   1.00
H41    H     0.07316   0.20217   0.42353   0.00000  Uiso   1.00
H42    H     0.08900   0.16567   0.04289   0.00000  Uiso   1.00
H43    H     0.04507   0.18993   0.00226   0.00000  Uiso   1.00
H44    H     0.22443   0.18478   0.39025   0.00000  Uiso   1.00
C45    C     0.32681   0.17639   0.23555   0.00000  Uiso   1.00
H46    H     0.01603   0.19354   0.20916   0.00000  Uiso   1.00
C47    C     0.00746   0.15760   0.26396   0.00000  Uiso   1.00
H48    H     0.31888   0.14070   0.29089   0.00000  Uiso   1.00
C49    C     0.17879   0.32210   0.23368   0.00000  Uiso   1.00
C50    C     0.15260   0.01186   0.26391   0.00000  Uiso   1.00
H51    H     0.12926   0.33194   0.29247   0.00000  Uiso   1.00
O52    O     0.21013   0.00715   0.19921   0.00000  Uiso   1.00
C53    C     0.19661   0.33132   0.15956   0.00000  Uiso   1.00
H54    H     0.16500   0.00902   0.16287   0.00000  Uiso   1.00
H55    H     0.19502   0.29743   0.14921   0.00000  Uiso   1.00
H56    H     0.22050   0.01465   0.13257   0.00000  Uiso   1.00
N57    N     0.13594   0.18850   0.08901   0.00000  Uiso   1.00
O58    O     0.10556   0.17360   0.12202   0.00000  Uiso   1.00
O59    O     0.13919   0.22761   0.08160   0.00000  Uiso   1.00
Zn60   Zn    0.52672   0.13994   0.28734   0.00000  Uiso   1.00
Zn61   Zn    0.46713   0.12458   0.21875   0.00000  Uiso   1.00
Zn62   Zn    0.54389   0.19775   0.20657   0.00000  Uiso   1.00
Zn63   Zn    0.46226   0.20439   0.28733   0.00000  Uiso   1.00
O64    O     0.50000   0.16667   0.25000   0.00000  Uiso   1.00
O65    O     0.40405   0.18878   0.28213   0.00000  Uiso   1.00
O66    O     0.58824   0.15226   0.27013   0.00000  Uiso   1.00
O67    O     0.47093   0.06944   0.23413   0.00000  Uiso   1.00
O68    O     0.53678   0.25620   0.21360   0.00000  Uiso   1.00
O69    O     0.48784   0.12637   0.15458   0.00000  Uiso   1.00
O70    O     0.46274   0.20391   0.34968   0.00000  Uiso   1.00
O71    O     0.54157   0.17759   0.14606   0.00000  Uiso   1.00
O72    O     0.50785   0.15880   0.34968   0.00000  Uiso   1.00
O73    O     0.51264   0.08019   0.28213   0.00000  Uiso   1.00
O74    O     0.47965   0.26085   0.27013   0.00000  Uiso   1.00
O75    O     0.40745   0.13291   0.23413   0.00000  Uiso   1.00
O76    O     0.60026   0.19272   0.21360   0.00000  Uiso   1.00
C77    C     0.38613   0.15982   0.25992   0.00000  Uiso   1.00
C78    C     0.61416   0.17383   0.23991   0.00000  Uiso   1.00
C79    C     0.48935   0.05598   0.26044   0.00000  Uiso   1.00
C80    C     0.50962   0.27784   0.23960   0.00000  Uiso   1.00
C81    C     0.51871   0.14845   0.12954   0.00000  Uiso   1.00
C82    C     0.48243   0.18515   0.37069   0.00000  Uiso   1.00
C83    C     0.57656   0.13302   0.01088   0.00000  Uiso   1.00
H84    H     0.58355   0.11543   0.07221   0.00000  Uiso   1.00
H85    H     0.59971   0.15358   0.42744   0.00000  Uiso   1.00
H86    H     0.60727   0.12343   0.49222   0.00000  Uiso   1.00
C87    C     0.52557   0.14389   0.08165   0.00000  Uiso   1.00
C88    C     0.42835   0.19510   0.44171   0.00000  Uiso   1.00
C89    C     0.41208   0.18791   0.48639   0.00000  Uiso   1.00
C90    C     0.43815   0.17542   0.00999   0.00000  Uiso   1.00
C91    C     0.48249   0.17347   0.49044   0.00000  Uiso   1.00
C92    C     0.49887   0.17991   0.44434   0.00000  Uiso   1.00
C93    C     0.51033   0.16217   0.01436   0.00000  Uiso   1.00
C94    C     0.55120   0.15084   0.48999   0.00000  Uiso   1.00
C95    C     0.56729   0.15914   0.44539   0.00000  Uiso   1.00
C96    C     0.54245   0.17594   0.42371   0.00000  Uiso   1.00
C97    C     0.49979   0.16248   0.06153   0.00000  Uiso   1.00
C98    C     0.56307   0.12836   0.05627   0.00000  Uiso   1.00
C99    C     0.47089   0.18897   0.41970   0.00000  Uiso   1.00
H100   H     0.40650   0.20217   0.42353   0.00000  Uiso   1.00
H101   H     0.42233   0.16567   0.04289   0.00000  Uiso   1.00
H102   H     0.37841   0.18993   0.00226   0.00000  Uiso   1.00
H103   H     0.55777   0.18478   0.39025   0.00000  Uiso   1.00
C104   C     0.66015   0.17639   0.23555   0.00000  Uiso   1.00
H105   H     0.34937   0.19354   0.20916   0.00000  Uiso   1.00
C106   C     0.34079   0.15760   0.26396   0.00000  Uiso   1.00
H107   H     0.65221   0.14070   0.29089   0.00000  Uiso   1.00
C108   C     0.51212   0.32210   0.23368   0.00000  Uiso   1.00
C109   C     0.48593   0.01186   0.26391   0.00000  Uiso   1.00
H110   H     0.46260   0.33194   0.29247   0.00000  Uiso   1.00
O111   O     0.54346   0.00715   0.19921   0.00000  Uiso   1.00
C112   C     0.52994   0.33132   0.15956   0.00000  Uiso   1.00
H113   H     0.49833   0.00902   0.16287   0.00000  Uiso   1.00
H114   H     0.52836   0.29743   0.14921   0.00000  Uiso   1.00
H115   H     0.55384   0.01465   0.13257   0.00000  Uiso   1.00
N116   N     0.46927   0.18850   0.08901   0.00000  Uiso   1.00
O117   O     0.43889   0.17360   0.12202   0.00000  Uiso   1.00
O118   O     0.47252   0.22761   0.08160   0.00000  Uiso   1.00
Zn119  Zn    0.86005   0.13994   0.28734   0.00000  Uiso   1.00
Zn120  Zn    0.80046   0.12458   0.21875   0.00000  Uiso   1.00
Zn121  Zn    0.87723   0.19775   0.20657   0.00000  Uiso   1.00
Zn122  Zn    0.79560   0.20439   0.28733   0.00000  Uiso   1.00
O123   O     0.83333   0.16667   0.25000   0.00000  Uiso   1.00
O124   O     0.73738   0.18878   0.28213   0.00000  Uiso   1.00
O125   O     0.92158   0.15226   0.27013   0.00000  Uiso   1.00
O126   O     0.80426   0.06944   0.23413   0.00000  Uiso   1.00
O127   O     0.87012   0.25620   0.21360   0.00000  Uiso   1.00
O128   O     0.82118   0.12637   0.15458   0.00000  Uiso   1.00
O129   O     0.79607   0.20391   0.34968   0.00000  Uiso   1.00
O130   O     0.87491   0.17759   0.14606   0.00000  Uiso   1.00
O131   O     0.84118   0.15880   0.34968   0.00000  Uiso   1.00
O132   O     0.84597   0.08019   0.28213   0.00000  Uiso   1.00
O133   O     0.81298   0.26085   0.27013   0.00000  Uiso   1.00
O134   O     0.74078   0.13291   0.23413   0.00000  Uiso   1.00
O135   O     0.93360   0.19272   0.21360   0.00000  Uiso   1.00
C136   C     0.71947   0.15982   0.25992   0.00000  Uiso   1.00
C137   C     0.94749   0.17383   0.23991   0.00000  Uiso   1.00
C138   C     0.82269   0.05598   0.26044   0.00000  Uiso   1.00
C139   C     0.84295   0.27784   0.23960   0.00000  Uiso   1.00
C140   C     0.85204   0.14845   0.12954   0.00000  Uiso   1.00
C141   C     0.81576   0.18515   0.37069   0.00000  Uiso   1.00
C142   C     0.90989   0.13302   0.01088   0.00000  Uiso   1.00
H143   H     0.91689   0.11543   0.07221   0.00000  Uiso   1.00
H144   H     0.93304   0.15358   0.42744   0.00000  Uiso   1.00
H145   H     0.94060   0.12343   0.49222   0.00000  Uiso   1.00
C146   C     0.85891   0.14389   0.08165   0.00000  Uiso   1.00
C147   C     0.76169   0.19510   0.44171   0.00000  Uiso   1.00
C148   C     0.74542   0.18791   0.48639   0.00000  Uiso   1.00
C149   C     0.77148   0.17542   0.00999   0.00000  Uiso   1.00
C150   C     0.81582   0.17347   0.49044   0.00000  Uiso   1.00
C151   C     0.83220   0.17991   0.44434   0.00000  Uiso   1.00
C152   C     0.84366   0.16217   0.01436   0.00000  Uiso   1.00
C153   C     0.88453   0.15084   0.48999   0.00000  Uiso   1.00
C154   C     0.90063   0.15914   0.44539   0.00000  Uiso   1.00
C155   C     0.87579   0.17594   0.42371   0.00000  Uiso   1.00
C156   C     0.83312   0.16248   0.06153   0.00000  Uiso   1.00
C157   C     0.89640   0.12836   0.05627   0.00000  Uiso   1.00
C158   C     0.80422   0.18897   0.41970   0.00000  Uiso   1.00
H159   H     0.73983   0.20217   0.42353   0.00000  Uiso   1.00
H160   H     0.75566   0.16567   0.04289   0.00000  Uiso   1.00
H161   H     0.71174   0.18993   0.00226   0.00000  Uiso   1.00
H162   H     0.89110   0.18478   0.39025   0.00000  Uiso   1.00
C163   C     0.99348   0.17639   0.23555   0.00000  Uiso   1.00
H164   H     0.68270   0.19354   0.20916   0.00000  Uiso   1.00
C165   C     0.67412   0.15760   0.26396   0.00000  Uiso   1.00
H166   H     0.98555   0.14070   0.29089   0.00000  Uiso   1.00
C167   C     0.84545   0.32210   0.23368   0.00000  Uiso   1.00
C168   C     0.81926   0.01186   0.26391   0.00000  Uiso   1.00
H169   H     0.79593   0.33194   0.29247   0.00000  Uiso   1.00
O170   O     0.87679   0.00715   0.19921   0.00000  Uiso   1.00
C171   C     0.86328   0.33132   0.15956   0.00000  Uiso   1.00
H172   H     0.83167   0.00902   0.16287   0.00000  Uiso   1.00
H173   H     0.86169   0.29743   0.14921   0.00000  Uiso   1.00
H174   H     0.88717   0.01465   0.13257   0.00000  Uiso   1.00
N175   N     0.80260   0.18850   0.08901   0.00000  Uiso   1.00
O176   O     0.77223   0.17360   0.12202   0.00000  Uiso   1.00
O177   O     0.80586   0.22761   0.08160   0.00000  Uiso   1.00
Zn178  Zn    0.19338   0.47327   0.28734   0.00000  Uiso   1.00
Zn179  Zn    0.13379   0.45791   0.21875   0.00000  Uiso   1.00
Zn180  Zn    0.21056   0.53109   0.20657   0.00000  Uiso   1.00
Zn181  Zn    0.12893   0.53773   0.28733   0.00000  Uiso   1.00
O182   O     0.16667   0.50000   0.25000   0.00000  Uiso   1.00
O183   O     0.07071   0.52211   0.28213   0.00000  Uiso   1.00
O184   O     0.25491   0.48559   0.27013   0.00000  Uiso   1.00
O185   O     0.13760   0.40277   0.23413   0.00000  Uiso   1.00
O186   O     0.20345   0.58953   0.21360   0.00000  Uiso   1.00
O187   O     0.15451   0.45970   0.15458   0.00000  Uiso   1.00
O188   O     0.12940   0.53724   0.34968   0.00000  Uiso   1.00
O189   O     0.20824   0.51092   0.14606   0.00000  Uiso   1.00
O190   O     0.17451   0.49213   0.34968   0.00000  Uiso   1.00
O191   O     0.17930   0.41352   0.28213   0.00000  Uiso   1.00
O192   O     0.14632   0.59418   0.27013   0.00000  Uiso   1.00
O193   O     0.07412   0.46625   0.23413   0.00000  Uiso   1.00
O194   O     0.26693   0.52605   0.21360   0.00000  Uiso   1.00
C195   C     0.05280   0.49315   0.25992   0.00000  Uiso   1.00
C196   C     0.28083   0.50717   0.23991   0.00000  Uiso   1.00
C197   C     0.15602   0.38932   0.26044   0.00000  Uiso   1.00
C198   C     0.17629   0.61117   0.23960   0.00000  Uiso   1.00
C199   C     0.18537   0.48178   0.12954   0.00000  Uiso   1.00
C200   C     0.14910   0.51848   0.37069   0.00000  Uiso   1.00
C201   C     0.24323   0.46635   0.01088   0.00000  Uiso   1.00
H202   H     0.25022   0.44876   0.07221   0.00000  Uiso   1.00
H203   H     0.26637   0.48691   0.42744   0.00000  Uiso   1.00
H204   H     0.27394   0.45676   0.49222   0.00000  Uiso   1.00
C205   C     0.19224   0.47722   0.08165   0.00000  Uiso   1.00
C206   C     0.09502   0.52844   0.44171   0.00000  Uiso   1.00
C207   C     0.07875   0.52125   0.48639   0.00000  Uiso   1.00
C208   C     0.10482   0.50875   0.00999   0.00000  Uiso   1.00
C209   C     0.14916   0.50681   0.49044   0.00000  Uiso   1.00
C210   C     0.16553   0.51324   0.44434   0.00000  Uiso   1.00
C211   C     0.17700   0.49551   0.01436   0.00000  Uiso   1.00
C212   C     0.21787   0.48418   0.48999   0.00000  Uiso   1.00
C213   C     0.23396   0.49247   0.44539   0.00000  Uiso   1.00
C214   C     0.20912   0.50927   0.42371   0.00000  Uiso   1.00
C215   C     0.16645   0.49582   0.06153   0.00000  Uiso   1.00
C216   C     0.22973   0.46169   0.05627   0.00000  Uiso   1.00
C217   C     0.13755   0.52230   0.41970   0.00000  Uiso   1.00
H218   H     0.07316   0.53550   0.42353   0.00000  Uiso   1.00
H219   H     0.08900   0.49900   0.04289   0.00000  Uiso   1.00
H220   H     0.04507   0.52326   0.00226   0.00000  Uiso   1.00
H221   H     0.22443   0.51811   0.39025   0.00000  Uiso   1.00
C222   C     0.32681   0.50972   0.23555   0.00000  Uiso   1.00
H223   H     0.01603   0.52687   0.20916   0.00000  Uiso   1.00
C224   C     0.00746   0.49094   0.26396   0.00000  Uiso   1.00
H225   H     0.31888   0.47403   0.29089   0.00000  Uiso   1.00
C226   C     0.17879   0.65544   0.23368   0.00000  Uiso   1.00
C227   C     0.15260   0.34519   0.26391   0.00000  Uiso   1.00
H228   H     0.12926   0.66528   0.29247   0.00000  Uiso   1.00
O229   O     0.21013   0.34048   0.19921   0.00000  Uiso   1.00
C230   C     0.19661   0.66465   0.15956   0.00000  Uiso   1.00
H231   H     0.16500   0.34235   0.16287   0.00000  Uiso   1.00
H232   H     0.19502   0.63076   0.14921   0.00000  Uiso   1.00
H233   H     0.22050   0.34798   0.13257   0.00000  Uiso   1.00
N234   N     0.13594   0.52183   0.08901   0.00000  Uiso   1.00
O235   O     0.10556   0.50694   0.12202   0.00000  Uiso   1.00
O236   O     0.13919   0.56095   0.08160   0.00000  Uiso   1.00
Zn237  Zn    0.52672   0.47327   0.28734   0.00000  Uiso   1.00
Zn238  Zn    0.46713   0.45791   0.21875   0.00000  Uiso   1.00
Zn239  Zn    0.54389   0.53109   0.20657   0.00000  Uiso   1.00
Zn240  Zn    0.46226   0.53773   0.28733   0.00000  Uiso   1.00
O241   O     0.50000   0.50000   0.25000   0.00000  Uiso   1.00
O242   O     0.40405   0.52211   0.28213   0.00000  Uiso   1.00
O243   O     0.58824   0.48559   0.27013   0.00000  Uiso   1.00
O244   O     0.47093   0.40277   0.23413   0.00000  Uiso   1.00
O245   O     0.53678   0.58953   0.21360   0.00000  Uiso   1.00
O246   O     0.48784   0.45970   0.15458   0.00000  Uiso   1.00
O247   O     0.46274   0.53724   0.34968   0.00000  Uiso   1.00
O248   O     0.54157   0.51092   0.14606   0.00000  Uiso   1.00
O249   O     0.50785   0.49213   0.34968   0.00000  Uiso   1.00
O250   O     0.51264   0.41352   0.28213   0.00000  Uiso   1.00
O251   O     0.47965   0.59418   0.27013   0.00000  Uiso   1.00
O252   O     0.40745   0.46625   0.23413   0.00000  Uiso   1.00
O253   O     0.60026   0.52605   0.21360   0.00000  Uiso   1.00
C254   C     0.38613   0.49315   0.25992   0.00000  Uiso   1.00
C255   C     0.61416   0.50717   0.23991   0.00000  Uiso   1.00
C256   C     0.48935   0.38932   0.26044   0.00000  Uiso   1.00
C257   C     0.50962   0.61117   0.23960   0.00000  Uiso   1.00
C258   C     0.51871   0.48178   0.12954   0.00000  Uiso   1.00
C259   C     0.48243   0.51848   0.37069   0.00000  Uiso   1.00
C260   C     0.57656   0.46635   0.01088   0.00000  Uiso   1.00
H261   H     0.58355   0.44876   0.07221   0.00000  Uiso   1.00
H262   H     0.59971   0.48691   0.42744   0.00000  Uiso   1.00
H263   H     0.60727   0.45676   0.49222   0.00000  Uiso   1.00
C264   C     0.52557   0.47722   0.08165   0.00000  Uiso   1.00
C265   C     0.42835   0.52844   0.44171   0.00000  Uiso   1.00
C266   C     0.41208   0.52125   0.48639   0.00000  Uiso   1.00
C267   C     0.43815   0.50875   0.00999   0.00000  Uiso   1.00
C268   C     0.48249   0.50681   0.49044   0.00000  Uiso   1.00
C269   C     0.49887   0.51324   0.44434   0.00000  Uiso   1.00
C270   C     0.51033   0.49551   0.01436   0.00000  Uiso   1.00
C271   C     0.55120   0.48418   0.48999   0.00000  Uiso   1.00
C272   C     0.56729   0.49247   0.44539   0.00000  Uiso   1.00
C273   C     0.54245   0.50927   0.42371   0.00000  Uiso   1.00
C274   C     0.49979   0.49582   0.06153   0.00000  Uiso   1.00
C275   C     0.56307   0.46169   0.05627   0.00000  Uiso   1.00
C276   C     0.47089   0.52230   0.41970   0.00000  Uiso   1.00
H277   H     0.40650   0.53550   0.42353   0.00000  Uiso   1.00
H278   H     0.42233   0.49900   0.04289   0.00000  Uiso   1.00
H279   H     0.37841   0.52326   0.00226   0.00000  Uiso   1.00
H280   H     0.55777   0.51811   0.39025   0.00000  Uiso   1.00
C281   C     0.66015   0.50972   0.23555   0.00000  Uiso   1.00
H282   H     0.34937   0.52687   0.20916   0.00000  Uiso   1.00
C283   C     0.34079   0.49094   0.26396   0.00000  Uiso   1.00
H284   H     0.65221   0.47403   0.29089   0.00000  Uiso   1.00
C285   C     0.51212   0.65544   0.23368   0.00000  Uiso   1.00
C286   C     0.48593   0.34519   0.26391   0.00000  Uiso   1.00
H287   H     0.46260   0.66528   0.29247   0.00000  Uiso   1.00
O288   O     0.54346   0.34048   0.19921   0.00000  Uiso   1.00
C289   C     0.52994   0.66465   0.15956   0.00000  Uiso   1.00
H290   H     0.49833   0.34235   0.16287   0.00000  Uiso   1.00
H291   H     0.52836   0.63076   0.14921   0.00000  Uiso   1.00
H292   H     0.55384   0.34798   0.13257   0.00000  Uiso   1.00
N293   N     0.46927   0.52183   0.08901   0.00000  Uiso   1.00
O294   O     0.43889   0.50694   0.12202   0.00000  Uiso   1.00
O295   O     0.47252   0.56095   0.08160   0.00000  Uiso   1.00
Zn296  Zn    0.86005   0.47327   0.28734   0.00000  Uiso   1.00
Zn297  Zn    0.80046   0.45791   0.21875   0.00000  Uiso   1.00
Zn298  Zn    0.87723   0.53109   0.20657   0.00000  Uiso   1.00
Zn299  Zn    0.79560   0.53773   0.28733   0.00000  Uiso   1.00
O300   O     0.83333   0.50000   0.25000   0.00000  Uiso   1.00
O301   O     0.73738   0.52211   0.28213   0.00000  Uiso   1.00
O302   O     0.92158   0.48559   0.27013   0.00000  Uiso   1.00
O303   O     0.80426   0.40277   0.23413   0.00000  Uiso   1.00
O304   O     0.87012   0.58953   0.21360   0.00000  Uiso   1.00
O305   O     0.82118   0.45970   0.15458   0.00000  Uiso   1.00
O306   O     0.79607   0.53724   0.34968   0.00000  Uiso   1.00
O307   O     0.87491   0.51092   0.14606   0.00000  Uiso   1.00
O308   O     0.84118   0.49213   0.34968   0.00000  Uiso   1.00
O309   O     0.84597   0.41352   0.28213   0.00000  Uiso   1.00
O310   O     0.81298   0.59418   0.27013   0.00000  Uiso   1.00
O311   O     0.74078   0.46625   0.23413   0.00000  Uiso   1.00
O312   O     0.93360   0.52605   0.21360   0.00000  Uiso   1.00
C313   C     0.71947   0.49315   0.25992   0.00000  Uiso   1.00
C314   C     0.94749   0.50717   0.23991   0.00000  Uiso   1.00
C315   C     0.82269   0.38932   0.26044   0.00000  Uiso   1.00
C316   C     0.84295   0.61117   0.23960   0.00000  Uiso   1.00
C317   C     0.85204   0.48178   0.12954   0.00000  Uiso   1.00
C318   C     0.81576   0.51848   0.37069   0.00000  Uiso   1.00
C319   C     0.90989   0.46635   0.01088   0.00000  Uiso   1.00
H320   H     0.91689   0.44876   0.07221   0.00000  Uiso   1.00
H321   H     0.93304   0.48691   0.42744   0.00000  Uiso   1.00
H322   H     0.94060   0.45676   0.49222   0.00000  Uiso   1.00
C323   C     0.85891   0.47722   0.08165   0.00000  Uiso   1.00
C324   C     0.76169   0.52844   0.44171   0.00000  Uiso   1.00
C325   C     0.74542   0.52125   0.48639   0.00000  Uiso   1.00
C326   C     0.77148   0.50875   0.00999   0.00000  Uiso   1.00
C327   C     0.81582   0.50681   0.49044   0.00000  Uiso   1.00
C328   C     0.83220   0.51324   0.44434   0.00000  Uiso   1.00
C329   C     0.84366   0.49551   0.01436   0.00000  Uiso   1.00
C330   C     0.88453   0.48418   0.48999   0.00000  Uiso   1.00
C331   C     0.90063   0.49247   0.44539   0.00000  Uiso   1.00
C332   C     0.87579   0.50927   0.42371   0.00000  Uiso   1.00
C333   C     0.83312   0.49582   0.06153   0.00000  Uiso   1.00
C334   C     0.89640   0.46169   0.05627   0.00000  Uiso   1.00
C335   C     0.80422   0.52230   0.41970   0.00000  Uiso   1.00
H336   H     0.73983   0.53550   0.42353   0.00000  Uiso   1.00
H337   H     0.75566   0.49900   0.04289   0.00000  Uiso   1.00
H338   H     0.71174   0.52326   0.00226   0.00000  Uiso   1.00
H339   H     0.89110   0.51811   0.39025   0.00000  Uiso   1.00
C340   C     0.99348   0.50972   0.23555   0.00000  Uiso   1.00
H341   H     0.68270   0.52687   0.20916   0.00000  Uiso   1.00
C342   C     0.67412   0.49094   0.26396   0.00000  Uiso   1.00
H343   H     0.98555   0.47403   0.29089   0.00000  Uiso   1.00
C344   C     0.84545   0.65544   0.23368   0.00000  Uiso   1.00
C345   C     0.81926   0.34519   0.26391   0.00000  Uiso   1.00
H346   H     0.79593   0.66528   0.29247   0.00000  Uiso   1.00
O347   O     0.87679   0.34048   0.19921   0.00000  Uiso   1.00
C348   C     0.86328   0.66465   0.15956   0.00000  Uiso   1.00
H349   H     0.83167   0.34235   0.16287   0.00000  Uiso   1.00
H350   H     0.86169   0.63076   0.14921   0.00000  Uiso   1.00
H351   H     0.88717   0.34798   0.13257   0.00000  Uiso   1.00
N352   N     0.80260   0.52183   0.08901   0.00000  Uiso   1.00
O353   O     0.77223   0.50694   0.12202   0.00000  Uiso   1.00
O354   O     0.80586   0.56095   0.08160   0.00000  Uiso   1.00
Zn355  Zn    0.19338   0.80661   0.28734   0.00000  Uiso   1.00
Zn356  Zn    0.13379   0.79124   0.21875   0.00000  Uiso   1.00
Zn357  Zn    0.21056   0.86442   0.20657   0.00000  Uiso   1.00
Zn358  Zn    0.12893   0.87106   0.28733   0.00000  Uiso   1.00
O359   O     0.16667   0.83333   0.25000   0.00000  Uiso   1.00
O360   O     0.07071   0.85544   0.28213   0.00000  Uiso   1.00
O361   O     0.25491   0.81892   0.27013   0.00000  Uiso   1.00
O362   O     0.13760   0.73610   0.23413   0.00000  Uiso   1.00
O363   O     0.20345   0.92286   0.21360   0.00000  Uiso   1.00
O364   O     0.15451   0.79304   0.15458   0.00000  Uiso   1.00
O365   O     0.12940   0.87058   0.34968   0.00000  Uiso   1.00
O366   O     0.20824   0.84425   0.14606   0.00000  Uiso   1.00
O367   O     0.17451   0.82546   0.34968   0.00000  Uiso   1.00
O368   O     0.17930   0.74686   0.28213   0.00000  Uiso   1.00
O369   O     0.14632   0.92751   0.27013   0.00000  Uiso   1.00
O370   O     0.07412   0.79958   0.23413   0.00000  Uiso   1.00
O371   O     0.26693   0.85939   0.21360   0.00000  Uiso   1.00
C372   C     0.05280   0.82648   0.25992   0.00000  Uiso   1.00
C373   C     0.28083   0.84050   0.23991   0.00000  Uiso   1.00
C374   C     0.15602   0.72265   0.26044   0.00000  Uiso   1.00
C375   C     0.17629   0.94451   0.23960   0.00000  Uiso   1.00
C376   C     0.18537   0.81512   0.12954   0.00000  Uiso   1.00
C377   C     0.14910   0.85182   0.37069   0.00000  Uiso   1.00
C378   C     0.24323   0.79969   0.01088   0.00000  Uiso   1.00
H379   H     0.25022   0.78210   0.07221   0.00000  Uiso   1.00
H380   H     0.26637   0.82025   0.42744   0.00000  Uiso   1.00
H381   H     0.27394   0.79010   0.49222   0.00000  Uiso   1.00
C382   C     0.19224   0.81055   0.08165   0.00000  Uiso   1.00
C383   C     0.09502   0.86177   0.44171   0.00000  Uiso   1.00
C384   C     0.07875   0.85458   0.48639   0.00000  Uiso   1.00
C385   C     0.10482   0.84208   0.00999   0.00000  Uiso   1.00
C386   C     0.14916   0.84014   0.49044   0.00000  Uiso   1.00
C387   C     0.16553   0.84658   0.44434   0.00000  Uiso   1.00
C388   C     0.17700   0.82884   0.01436   0.00000  Uiso   1.00
C389   C     0.21787   0.81751   0.48999   0.00000  Uiso   1.00
C390   C     0.23396   0.82581   0.44539   0.00000  Uiso   1.00
C391   C     0.20912   0.84260   0.42371   0.00000  Uiso   1.00
C392   C     0.16645   0.82915   0.06153   0.00000  Uiso   1.00
C393   C     0.22973   0.79502   0.05627   0.00000  Uiso   1.00
C394   C     0.13755   0.85563   0.41970   0.00000  Uiso   1.00
H395   H     0.07316   0.86884   0.42353   0.00000  Uiso   1.00
H396   H     0.08900   0.83233   0.04289   0.00000  Uiso   1.00
H397   H     0.04507   0.85660   0.00226   0.00000  Uiso   1.00
H398   H     0.22443   0.85145   0.39025   0.00000  Uiso   1.00
C399   C     0.32681   0.84305   0.23555   0.00000  Uiso   1.00
H400   H     0.01603   0.86021   0.20916   0.00000  Uiso   1.00
C401   C     0.00746   0.82427   0.26396   0.00000  Uiso   1.00
H402   H     0.31888   0.80737   0.29089   0.00000  Uiso   1.00
C403   C     0.17879   0.98877   0.23368   0.00000  Uiso   1.00
C404   C     0.15260   0.67852   0.26391   0.00000  Uiso   1.00
H405   H     0.12926   0.99861   0.29247   0.00000  Uiso   1.00
O406   O     0.21013   0.67382   0.19921   0.00000  Uiso   1.00
C407   C     0.19661   0.99799   0.15956   0.00000  Uiso   1.00
H408   H     0.16500   0.67569   0.16287   0.00000  Uiso   1.00
H409   H     0.19502   0.96410   0.14921   0.00000  Uiso   1.00
H410   H     0.22050   0.68132   0.13257   0.00000  Uiso   1.00
N411   N     0.13594   0.85517   0.08901   0.00000  Uiso   1.00
O412   O     0.10556   0.84027   0.12202   0.00000  Uiso   1.00
O413   O     0.13919   0.89428   0.08160   0.00000  Uiso   1.00
Zn414  Zn    0.52672   0.80661   0.28734   0.00000  Uiso   1.00
Zn415  Zn    0.46713   0.79124   0.21875   0.00000  Uiso   1.00
Zn416  Zn    0.54389   0.86442   0.20657   0.00000  Uiso   1.00
Zn417  Zn    0.46226   0.87106   0.28733   0.00000  Uiso   1.00
O418   O     0.50000   0.83333   0.25000   0.00000  Uiso   1.00
O419   O     0.40405   0.85544   0.28213   0.00000  Uiso   1.00
O420   O     0.58824   0.81892   0.27013   0.00000  Uiso   1.00
O421   O     0.47093   0.73610   0.23413   0.00000  Uiso   1.00
O422   O     0.53678   0.92286   0.21360   0.00000  Uiso   1.00
O423   O     0.48784   0.79304   0.15458   0.00000  Uiso   1.00
O424   O     0.46274   0.87058   0.34968   0.00000  Uiso   1.00
O425   O     0.54157   0.84425   0.14606   0.00000  Uiso   1.00
O426   O     0.50785   0.82546   0.34968   0.00000  Uiso   1.00
O427   O     0.51264   0.74686   0.28213   0.00000  Uiso   1.00
O428   O     0.47965   0.92751   0.27013   0.00000  Uiso   1.00
O429   O     0.40745   0.79958   0.23413   0.00000  Uiso   1.00
O430   O     0.60026   0.85939   0.21360   0.00000  Uiso   1.00
C431   C     0.38613   0.82648   0.25992   0.00000  Uiso   1.00
C432   C     0.61416   0.84050   0.23991   0.00000  Uiso   1.00
C433   C     0.48935   0.72265   0.26044   0.00000  Uiso   1.00
C434   C     0.50962   0.94451   0.23960   0.00000  Uiso   1.00
C435   C     0.51871   0.81512   0.12954   0.00000  Uiso   1.00
C436   C     0.48243   0.85182   0.37069   0.00000  Uiso   1.00
C437   C     0.57656   0.79969   0.01088   0.00000  Uiso   1.00
H438   H     0.58355   0.78210   0.07221   0.00000  Uiso   1.00
H439   H     0.59971   0.82025   0.42744   0.00000  Uiso   1.00
H440   H     0.60727   0.79010   0.49222   0.00000  Uiso   1.00
C441   C     0.52557   0.81055   0.08165   0.00000  Uiso   1.00
C442   C     0.42835   0.86177   0.44171   0.00000  Uiso   1.00
C443   C     0.41208   0.85458   0.48639   0.00000  Uiso   1.00
C444   C     0.43815   0.84208   0.00999   0.00000  Uiso   1.00
C445   C     0.48249   0.84014   0.49044   0.00000  Uiso   1.00
C446   C     0.49887   0.84658   0.44434   0.00000  Uiso   1.00
C447   C     0.51033   0.82884   0.01436   0.00000  Uiso   1.00
C448   C     0.55120   0.81751   0.48999   0.00000  Uiso   1.00
C449   C     0.56729   0.82581   0.44539   0.00000  Uiso   1.00
C450   C     0.54245   0.84260   0.42371   0.00000  Uiso   1.00
C451   C     0.49979   0.82915   0.06153   0.00000  Uiso   1.00
C452   C     0.56307   0.79502   0.05627   0.00000  Uiso   1.00
C453   C     0.47089   0.85563   0.41970   0.00000  Uiso   1.00
H454   H     0.40650   0.86884   0.42353   0.00000  Uiso   1.00
H455   H     0.42233   0.83233   0.04289   0.00000  Uiso   1.00
H456   H     0.37841   0.85660   0.00226   0.00000  Uiso   1.00
H457   H     0.55777   0.85145   0.39025   0.00000  Uiso   1.00
C458   C     0.66015   0.84305   0.23555   0.00000  Uiso   1.00
H459   H     0.34937   0.86021   0.20916   0.00000  Uiso   1.00
C460   C     0.34079   0.82427   0.26396   0.00000  Uiso   1.00
H461   H     0.65221   0.80737   0.29089   0.00000  Uiso   1.00
C462   C     0.51212   0.98877   0.23368   0.00000  Uiso   1.00
C463   C     0.48593   0.67852   0.26391   0.00000  Uiso   1.00
H464   H     0.46260   0.99861   0.29247   0.00000  Uiso   1.00
O465   O     0.54346   0.67382   0.19921   0.00000  Uiso   1.00
C466   C     0.52994   0.99799   0.15956   0.00000  Uiso   1.00
H467   H     0.49833   0.67569   0.16287   0.00000  Uiso   1.00
H468   H     0.52836   0.96410   0.14921   0.00000  Uiso   1.00
H469   H     0.55384   0.68132   0.13257   0.00000  Uiso   1.00
N470   N     0.46927   0.85517   0.08901   0.00000  Uiso   1.00
O471   O     0.43889   0.84027   0.12202   0.00000  Uiso   1.00
O472   O     0.47252   0.89428   0.08160   0.00000  Uiso   1.00
Zn473  Zn    0.86005   0.80661   0.28734   0.00000  Uiso   1.00
Zn474  Zn    0.80046   0.79124   0.21875   0.00000  Uiso   1.00
Zn475  Zn    0.87723   0.86442   0.20657   0.00000  Uiso   1.00
Zn476  Zn    0.79560   0.87106   0.28733   0.00000  Uiso   1.00
O477   O     0.83333   0.83333   0.25000   0.00000  Uiso   1.00
O478   O     0.73738   0.85544   0.28213   0.00000  Uiso   1.00
O479   O     0.92158   0.81892   0.27013   0.00000  Uiso   1.00
O480   O     0.80426   0.73610   0.23413   0.00000  Uiso   1.00
O481   O     0.87012   0.92286   0.21360   0.00000  Uiso   1.00
O482   O     0.82118   0.79304   0.15458   0.00000  Uiso   1.00
O483   O     0.79607   0.87058   0.34968   0.00000  Uiso   1.00
O484   O     0.87491   0.84425   0.14606   0.00000  Uiso   1.00
O485   O     0.84118   0.82546   0.34968   0.00000  Uiso   1.00
O486   O     0.84597   0.74686   0.28213   0.00000  Uiso   1.00
O487   O     0.81298   0.92751   0.27013   0.00000  Uiso   1.00
O488   O     0.74078   0.79958   0.23413   0.00000  Uiso   1.00
O489   O     0.93360   0.85939   0.21360   0.00000  Uiso   1.00
C490   C     0.71947   0.82648   0.25992   0.00000  Uiso   1.00
C491   C     0.94749   0.84050   0.23991   0.00000  Uiso   1.00
C492   C     0.82269   0.72265   0.26044   0.00000  Uiso   1.00
C493   C     0.84295   0.94451   0.23960   0.00000  Uiso   1.00
C494   C     0.85204   0.81512   0.12954   0.00000  Uiso   1.00
C495   C     0.81576   0.85182   0.37069   0.00000  Uiso   1.00
C496   C     0.90989   0.79969   0.01088   0.00000  Uiso   1.00
H497   H     0.91689   0.78210   0.07221   0.00000  Uiso   1.00
H498   H     0.93304   0.82025   0.42744   0.00000  Uiso   1.00
H499   H     0.94060   0.79010   0.49222   0.00000  Uiso   1.00
C500   C     0.85891   0.81055   0.08165   0.00000  Uiso   1.00
C501   C     0.76169   0.86177   0.44171   0.00000  Uiso   1.00
C502   C     0.74542   0.85458   0.48639   0.00000  Uiso   1.00
C503   C     0.77148   0.84208   0.00999   0.00000  Uiso   1.00
C504   C     0.81582   0.84014   0.49044   0.00000  Uiso   1.00
C505   C     0.83220   0.84658   0.44434   0.00000  Uiso   1.00
C506   C     0.84366   0.82884   0.01436   0.00000  Uiso   1.00
C507   C     0.88453   0.81751   0.48999   0.00000  Uiso   1.00
C508   C     0.90063   0.82581   0.44539   0.00000  Uiso   1.00
C509   C     0.87579   0.84260   0.42371   0.00000  Uiso   1.00
C510   C     0.83312   0.82915   0.06153   0.00000  Uiso   1.00
C511   C     0.89640   0.79502   0.05627   0.00000  Uiso   1.00
C512   C     0.80422   0.85563   0.41970   0.00000  Uiso   1.00
H513   H     0.73983   0.86884   0.42353   0.00000  Uiso   1.00
H514   H     0.75566   0.83233   0.04289   0.00000  Uiso   1.00
H515   H     0.71174   0.85660   0.00226   0.00000  Uiso   1.00
H516   H     0.89110   0.85145   0.39025   0.00000  Uiso   1.00
C517   C     0.99348   0.84305   0.23555   0.00000  Uiso   1.00
H518   H     0.68270   0.86021   0.20916   0.00000  Uiso   1.00
C519   C     0.67412   0.82427   0.26396   0.00000  Uiso   1.00
H520   H     0.98555   0.80737   0.29089   0.00000  Uiso   1.00
C521   C     0.84545   0.98877   0.23368   0.00000  Uiso   1.00
C522   C     0.81926   0.67852   0.26391   0.00000  Uiso   1.00
H523   H     0.79593   0.99861   0.29247   0.00000  Uiso   1.00
O524   O     0.87679   0.67382   0.19921   0.00000  Uiso   1.00
C525   C     0.86328   0.99799   0.15956   0.00000  Uiso   1.00
H526   H     0.83167   0.67569   0.16287   0.00000  Uiso   1.00
H527   H     0.86169   0.96410   0.14921   0.00000  Uiso   1.00
H528   H     0.88717   0.68132   0.13257   0.00000  Uiso   1.00
N529   N     0.80260   0.85517   0.08901   0.00000  Uiso   1.00
O530   O     0.77223   0.84027   0.12202   0.00000  Uiso   1.00
O531   O     0.80586   0.89428   0.08160   0.00000  Uiso   1.00
Zn532  Zn    0.19338   0.13994   0.78734   0.00000  Uiso   1.00
Zn533  Zn    0.13379   0.12458   0.71875   0.00000  Uiso   1.00
Zn534  Zn    0.21056   0.19775   0.70657   0.00000  Uiso   1.00
Zn535  Zn    0.12893   0.20439   0.78733   0.00000  Uiso   1.00
O536   O     0.16667   0.16667   0.75000   0.00000  Uiso   1.00
O537   O     0.07071   0.18878   0.78213   0.00000  Uiso   1.00
O538   O     0.25491   0.15226   0.77013   0.00000  Uiso   1.00
O539   O     0.13760   0.06944   0.73413   0.00000  Uiso   1.00
O540   O     0.20345   0.25620   0.71360   0.00000  Uiso   1.00
O541   O     0.15451   0.12637   0.65458   0.00000  Uiso   1.00
O542   O     0.12940   0.20391   0.84968   0.00000  Uiso   1.00
O543   O     0.20824   0.17759   0.64606   0.00000  Uiso   1.00
O544   O     0.17451   0.15880   0.84968   0.00000  Uiso   1.00
O545   O     0.17930   0.08019   0.78213   0.00000  Uiso   1.00
O546   O     0.14632   0.26085   0.77013   0.00000  Uiso   1.00
O547   O     0.07412   0.13291   0.73413   0.00000  Uiso   1.00
O548   O     0.26693   0.19272   0.71360   0.00000  Uiso   1.00
C549   C     0.05280   0.15982   0.75992   0.00000  Uiso   1.00
C550   C     0.28083   0.17383   0.73991   0.00000  Uiso   1.00
C551   C     0.15602   0.05598   0.76044   0.00000  Uiso   1.00
C552   C     0.17629   0.27784   0.73960   0.00000  Uiso   1.00
C553   C     0.18537   0.14845   0.62954   0.00000  Uiso   1.00
C554   C     0.14910   0.18515   0.87069   0.00000  Uiso   1.00
C555   C     0.24323   0.13302   0.51088   0.00000  Uiso   1.00
H556   H     0.25022   0.11543   0.57221   0.00000  Uiso   1.00
H557   H     0.26637   0.15358   0.92744   0.00000  Uiso   1.00
H558   H     0.27394   0.12343   0.99222   0.00000  Uiso   1.00
C559   C     0.19224   0.14389   0.58165   0.00000  Uiso   1.00
C560   C     0.09502   0.19510   0.94171   0.00000  Uiso   1.00
C561   C     0.07875   0.18791   0.98639   0.00000  Uiso   1.00
C562   C     0.10482   0.17542   0.50999   0.00000  Uiso   1.00
C563   C     0.14916   0.17347   0.99044   0.00000  Uiso   1.00
C564   C     0.16553   0.17991   0.94434   0.00000  Uiso   1.00
C565   C     0.17700   0.16217   0.51436   0.00000  Uiso   1.00
C566   C     0.21787   0.15084   0.98999   0.00000  Uiso   1.00
C567   C     0.23396   0.15914   0.94539   0.00000  Uiso   1.00
C568   C     0.20912   0.17594   0.92371   0.00000  Uiso   1.00
C569   C     0.16645   0.16248   0.56153   0.00000  Uiso   1.00
C570   C     0.22973   0.12836   0.55627   0.00000  Uiso   1.00
C571   C     0.13755   0.18897   0.91970   0.00000  Uiso   1.00
H572   H     0.07316   0.20217   0.92353   0.00000  Uiso   1.00
H573   H     0.08900   0.16567   0.54289   0.00000  Uiso   1.00
H574   H     0.04507   0.18993   0.50226   0.00000  Uiso   1.00
H575   H     0.22443   0.18478   0.89025   0.00000  Uiso   1.00
C576   C     0.32681   0.17639   0.73555   0.00000  Uiso   1.00
H577   H     0.01603   0.19354   0.70916   0.00000  Uiso   1.00
C578   C     0.00746   0.15760   0.76396   0.00000  Uiso   1.00
H579   H     0.31888   0.14070   0.79089   0.00000  Uiso   1.00
C580   C     0.17879   0.32210   0.73368   0.00000  Uiso   1.00
C581   C     0.15260   0.01186   0.76391   0.00000  Uiso   1.00
H582   H     0.12926   0.33194   0.79247   0.00000  Uiso   1.00
O583   O     0.21013   0.00715   0.69921   0.00000  Uiso   1.00
C584   C     0.19661   0.33132   0.65956   0.00000  Uiso   1.00
H585   H     0.16500   0.00902   0.66287   0.00000  Uiso   1.00
H586   H     0.19502   0.29743   0.64921   0.00000  Uiso   1.00
H587   H     0.22050   0.01465   0.63257   0.00000  Uiso   1.00
N588   N     0.13594   0.18850   0.58901   0.00000  Uiso   1.00
O589   O     0.10556   0.17360   0.62202   0.00000  Uiso   1.00
O590   O     0.13919   0.22761   0.58160   0.00000  Uiso   1.00
Zn591  Zn    0.52672   0.13994   0.78734   0.00000  Uiso   1.00
Zn592  Zn    0.46713   0.12458   0.71875   0.00000  Uiso   1.00
Zn593  Zn    0.54389   0.19775   0.70657   0.00000  Uiso   1.00
Zn594  Zn    0.46226   0.20439   0.78733   0.00000  Uiso   1.00
O595   O     0.50000   0.16667   0.75000   0.00000  Uiso   1.00
O596   O     0.40405   0.18878   0.78213   0.00000  Uiso   1.00
O597   O     0.58824   0.15226   0.77013   0.00000  Uiso   1.00
O598   O     0.47093   0.06944   0.73413   0.00000  Uiso   1.00
O599   O     0.53678   0.25620   0.71360   0.00000  Uiso   1.00
O600   O     0.48784   0.12637   0.65458   0.00000  Uiso   1.00
O601   O     0.46274   0.20391   0.84968   0.00000  Uiso   1.00
O602   O     0.54157   0.17759   0.64606   0.00000  Uiso   1.00
O603   O     0.50785   0.15880   0.84968   0.00000  Uiso   1.00
O604   O     0.51264   0.08019   0.78213   0.00000  Uiso   1.00
O605   O     0.47965   0.26085   0.77013   0.00000  Uiso   1.00
O606   O     0.40745   0.13291   0.73413   0.00000  Uiso   1.00
O607   O     0.60026   0.19272   0.71360   0.00000  Uiso   1.00
C608   C     0.38613   0.15982   0.75992   0.00000  Uiso   1.00
C609   C     0.61416   0.17383   0.73991   0.00000  Uiso   1.00
C610   C     0.48935   0.05598   0.76044   0.00000  Uiso   1.00
C611   C     0.50962   0.27784   0.73960   0.00000  Uiso   1.00
C612   C     0.51871   0.14845   0.62954   0.00000  Uiso   1.00
C613   C     0.48243   0.18515   0.87069   0.00000  Uiso   1.00
C614   C     0.57656   0.13302   0.51088   0.00000  Uiso   1.00
H615   H     0.58355   0.11543   0.57221   0.00000  Uiso   1.00
H616   H     0.59971   0.15358   0.92744   0.00000  Uiso   1.00
H617   H     0.60727   0.12343   0.99222   0.00000  Uiso   1.00
C618   C     0.52557   0.14389   0.58165   0.00000  Uiso   1.00
C619   C     0.42835   0.19510   0.94171   0.00000  Uiso   1.00
C620   C     0.41208   0.18791   0.98639   0.00000  Uiso   1.00
C621   C     0.43815   0.17542   0.50999   0.00000  Uiso   1.00
C622   C     0.48249   0.17347   0.99044   0.00000  Uiso   1.00
C623   C     0.49887   0.17991   0.94434   0.00000  Uiso   1.00
C624   C     0.51033   0.16217   0.51436   0.00000  Uiso   1.00
C625   C     0.55120   0.15084   0.98999   0.00000  Uiso   1.00
C626   C     0.56729   0.15914   0.94539   0.00000  Uiso   1.00
C627   C     0.54245   0.17594   0.92371   0.00000  Uiso   1.00
C628   C     0.49979   0.16248   0.56153   0.00000  Uiso   1.00
C629   C     0.56307   0.12836   0.55627   0.00000  Uiso   1.00
C630   C     0.47089   0.18897   0.91970   0.00000  Uiso   1.00
H631   H     0.40650   0.20217   0.92353   0.00000  Uiso   1.00
H632   H     0.42233   0.16567   0.54289   0.00000  Uiso   1.00
H633   H     0.37841   0.18993   0.50226   0.00000  Uiso   1.00
H634   H     0.55777   0.18478   0.89025   0.00000  Uiso   1.00
C635   C     0.66015   0.17639   0.73555   0.00000  Uiso   1.00
H636   H     0.34937   0.19354   0.70916   0.00000  Uiso   1.00
C637   C     0.34079   0.15760   0.76396   0.00000  Uiso   1.00
H638   H     0.65221   0.14070   0.79089   0.00000  Uiso   1.00
C639   C     0.51212   0.32210   0.73368   0.00000  Uiso   1.00
C640   C     0.48593   0.01186   0.76391   0.00000  Uiso   1.00
H641   H     0.46260   0.33194   0.79247   0.00000  Uiso   1.00
O642   O     0.54346   0.00715   0.69921   0.00000  Uiso   1.00
C643   C     0.52994   0.33132   0.65956   0.00000  Uiso   1.00
H644   H     0.49833   0.00902   0.66287   0.00000  Uiso   1.00
H645   H     0.52836   0.29743   0.64921   0.00000  Uiso   1.00
H646   H     0.55384   0.01465   0.63257   0.00000  Uiso   1.00
N647   N     0.46927   0.18850   0.58901   0.00000  Uiso   1.00
O648   O     0.43889   0.17360   0.62202   0.00000  Uiso   1.00
O649   O     0.47252   0.22761   0.58160   0.00000  Uiso   1.00
Zn650  Zn    0.86005   0.13994   0.78734   0.00000  Uiso   1.00
Zn651  Zn    0.80046   0.12458   0.71875   0.00000  Uiso   1.00
Zn652  Zn    0.87723   0.19775   0.70657   0.00000  Uiso   1.00
Zn653  Zn    0.79560   0.20439   0.78733   0.00000  Uiso   1.00
O654   O     0.83333   0.16667   0.75000   0.00000  Uiso   1.00
O655   O     0.73738   0.18878   0.78213   0.00000  Uiso   1.00
O656   O     0.92158   0.15226   0.77013   0.00000  Uiso   1.00
O657   O     0.80426   0.06944   0.73413   0.00000  Uiso   1.00
O658   O     0.87012   0.25620   0.71360   0.00000  Uiso   1.00
O659   O     0.82118   0.12637   0.65458   0.00000  Uiso   1.00
O660   O     0.79607   0.20391   0.84968   0.00000  Uiso   1.00
O661   O     0.87491   0.17759   0.64606   0.00000  Uiso   1.00
O662   O     0.84118   0.15880   0.84968   0.00000  Uiso   1.00
O663   O     0.84597   0.08019   0.78213   0.00000  Uiso   1.00
O664   O     0.81298   0.26085   0.77013   0.00000  Uiso   1.00
O665   O     0.74078   0.13291   0.73413   0.00000  Uiso   1.00
O666   O     0.93360   0.19272   0.71360   0.00000  Uiso   1.00
C667   C     0.71947   0.15982   0.75992   0.00000  Uiso   1.00
C668   C     0.94749   0.17383   0.73991   0.00000  Uiso   1.00
C669   C     0.82269   0.05598   0.76044   0.00000  Uiso   1.00
C670   C     0.84295   0.27784   0.73960   0.00000  Uiso   1.00
C671   C     0.85204   0.14845   0.62954   0.00000  Uiso   1.00
C672   C     0.81576   0.18515   0.87069   0.00000  Uiso   1.00
C673   C     0.90989   0.13302   0.51088   0.00000  Uiso   1.00
H674   H     0.91689   0.11543   0.57221   0.00000  Uiso   1.00
H675   H     0.93304   0.15358   0.92744   0.00000  Uiso   1.00
H676   H     0.94060   0.12343   0.99222   0.00000  Uiso   1.00
C677   C     0.85891   0.14389   0.58165   0.00000  Uiso   1.00
C678   C     0.76169   0.19510   0.94171   0.00000  Uiso   1.00
C679   C     0.74542   0.18791   0.98639   0.00000  Uiso   1.00
C680   C     0.77148   0.17542   0.50999   0.00000  Uiso   1.00
C681   C     0.81582   0.17347   0.99044   0.00000  Uiso   1.00
C682   C     0.83220   0.17991   0.94434   0.00000  Uiso   1.00
C683   C     0.84366   0.16217   0.51436   0.00000  Uiso   1.00
C684   C     0.88453   0.15084   0.98999   0.00000  Uiso   1.00
C685   C     0.90063   0.15914   0.94539   0.00000  Uiso   1.00
C686   C     0.87579   0.17594   0.92371   0.00000  Uiso   1.00
C687   C     0.83312   0.16248   0.56153   0.00000  Uiso   1.00
C688   C     0.89640   0.12836   0.55627   0.00000  Uiso   1.00
C689   C     0.80422   0.18897   0.91970   0.00000  Uiso   1.00
H690   H     0.73983   0.20217   0.92353   0.00000  Uiso   1.00
H691   H     0.75566   0.16567   0.54289   0.00000  Uiso   1.00
H692   H     0.71174   0.18993   0.50226   0.00000  Uiso   1.00
H693   H     0.89110   0.18478   0.89025   0.00000  Uiso   1.00
C694   C     0.99348   0.17639   0.73555   0.00000  Uiso   1.00
H695   H     0.68270   0.19354   0.70916   0.00000  Uiso   1.00
C696   C     0.67412   0.15760   0.76396   0.00000  Uiso   1.00
H697   H     0.98555   0.14070   0.79089   0.00000  Uiso   1.00
C698   C     0.84545   0.32210   0.73368   0.00000  Uiso   1.00
C699   C     0.81926   0.01186   0.76391   0.00000  Uiso   1.00
H700   H     0.79593   0.33194   0.79247   0.00000  Uiso   1.00
O701   O     0.87679   0.00715   0.69921   0.00000  Uiso   1.00
C702   C     0.86328   0.33132   0.65956   0.00000  Uiso   1.00
H703   H     0.83167   0.00902   0.66287   0.00000  Uiso   1.00
H704   H     0.86169   0.29743   0.64921   0.00000  Uiso   1.00
H705   H     0.88717   0.01465   0.63257   0.00000  Uiso   1.00
N706   N     0.80260   0.18850   0.58901   0.00000  Uiso   1.00
O707   O     0.77223   0.17360   0.62202   0.00000  Uiso   1.00
O708   O     0.80586   0.22761   0.58160   0.00000  Uiso   1.00
Zn709  Zn    0.19338   0.47327   0.78734   0.00000  Uiso   1.00
Zn710  Zn    0.13379   0.45791   0.71875   0.00000  Uiso   1.00
Zn711  Zn    0.21056   0.53109   0.70657   0.00000  Uiso   1.00
Zn712  Zn    0.12893   0.53773   0.78733   0.00000  Uiso   1.00
O713   O     0.16667   0.50000   0.75000   0.00000  Uiso   1.00
O714   O     0.07071   0.52211   0.78213   0.00000  Uiso   1.00
O715   O     0.25491   0.48559   0.77013   0.00000  Uiso   1.00
O716   O     0.13760   0.40277   0.73413   0.00000  Uiso   1.00
O717   O     0.20345   0.58953   0.71360   0.00000  Uiso   1.00
O718   O     0.15451   0.45970   0.65458   0.00000  Uiso   1.00
O719   O     0.12940   0.53724   0.84968   0.00000  Uiso   1.00
O720   O     0.20824   0.51092   0.64606   0.00000  Uiso   1.00
O721   O     0.17451   0.49213   0.84968   0.00000  Uiso   1.00
O722   O     0.17930   0.41352   0.78213   0.00000  Uiso   1.00
O723   O     0.14632   0.59418   0.77013   0.00000  Uiso   1.00
O724   O     0.07412   0.46625   0.73413   0.00000  Uiso   1.00
O725   O     0.26693   0.52605   0.71360   0.00000  Uiso   1.00
C726   C     0.05280   0.49315   0.75992   0.00000  Uiso   1.00
C727   C     0.28083   0.50717   0.73991   0.00000  Uiso   1.00
C728   C     0.15602   0.38932   0.76044   0.00000  Uiso   1.00
C729   C     0.17629   0.61117   0.73960   0.00000  Uiso   1.00
C730   C     0.18537   0.48178   0.62954   0.00000  Uiso   1.00
C731   C     0.14910   0.51848   0.87069   0.00000  Uiso   1.00
C732   C     0.24323   0.46635   0.51088   0.00000  Uiso   1.00
H733   H     0.25022   0.44876   0.57221   0.00000  Uiso   1.00
H734   H     0.26637   0.48691   0.92744   0.00000  Uiso   1.00
H735   H     0.27394   0.45676   0.99222   0.00000  Uiso   1.00
C736   C     0.19224   0.47722   0.58165   0.00000  Uiso   1.00
C737   C     0.09502   0.52844   0.94171   0.00000  Uiso   1.00
C738   C     0.07875   0.52125   0.98639   0.00000  Uiso   1.00
C739   C     0.10482   0.50875   0.50999   0.00000  Uiso   1.00
C740   C     0.14916   0.50681   0.99044   0.00000  Uiso   1.00
C741   C     0.16553   0.51324   0.94434   0.00000  Uiso   1.00
C742   C     0.17700   0.49551   0.51436   0.00000  Uiso   1.00
C743   C     0.21787   0.48418   0.98999   0.00000  Uiso   1.00
C744   C     0.23396   0.49247   0.94539   0.00000  Uiso   1.00
C745   C     0.20912   0.50927   0.92371   0.00000  Uiso   1.00
C746   C     0.16645   0.49582   0.56153   0.00000  Uiso   1.00
C747   C     0.22973   0.46169   0.55627   0.00000  Uiso   1.00
C748   C     0.13755   0.52230   0.91970   0.00000  Uiso   1.00
H749   H     0.07316   0.53550   0.92353   0.00000  Uiso   1.00
H750   H     0.08900   0.49900   0.54289   0.00000  Uiso   1.00
H751   H     0.04507   0.52326   0.50226   0.00000  Uiso   1.00
H752   H     0.22443   0.51811   0.89025   0.00000  Uiso   1.00
C753   C     0.32681   0.50972   0.73555   0.00000  Uiso   1.00
H754   H     0.01603   0.52687   0.70916   0.00000  Uiso   1.00
C755   C     0.00746   0.49094   0.76396   0.00000  Uiso   1.00
H756   H     0.31888   0.47403   0.79089   0.00000  Uiso   1.00
C757   C     0.17879   0.65544   0.73368   0.00000  Uiso   1.00
C758   C     0.15260   0.34519   0.76391   0.00000  Uiso   1.00
H759   H     0.12926   0.66528   0.79247   0.00000  Uiso   1.00
O760   O     0.21013   0.34048   0.69921   0.00000  Uiso   1.00
C761   C     0.19661   0.66465   0.65956   0.00000  Uiso   1.00
H762   H     0.16500   0.34235   0.66287   0.00000  Uiso   1.00
H763   H     0.19502   0.63076   0.64921   0.00000  Uiso   1.00
H764   H     0.22050   0.34798   0.63257   0.00000  Uiso   1.00
N765   N     0.13594   0.52183   0.58901   0.00000  Uiso   1.00
O766   O     0.10556   0.50694   0.62202   0.00000  Uiso   1.00
O767   O     0.13919   0.56095   0.58160   0.00000  Uiso   1.00
Zn768  Zn    0.52672   0.47327   0.78734   0.00000  Uiso   1.00
Zn769  Zn    0.46713   0.45791   0.71875   0.00000  Uiso   1.00
Zn770  Zn    0.54389   0.53109   0.70657   0.00000  Uiso   1.00
Zn771  Zn    0.46226   0.53773   0.78733   0.00000  Uiso   1.00
O772   O     0.50000   0.50000   0.75000   0.00000  Uiso   1.00
O773   O     0.40405   0.52211   0.78213   0.00000  Uiso   1.00
O774   O     0.58824   0.48559   0.77013   0.00000  Uiso   1.00
O775   O     0.47093   0.40277   0.73413   0.00000  Uiso   1.00
O776   O     0.53678   0.58953   0.71360   0.00000  Uiso   1.00
O777   O     0.48784   0.45970   0.65458   0.00000  Uiso   1.00
O778   O     0.46274   0.53724   0.84968   0.00000  Uiso   1.00
O779   O     0.54157   0.51092   0.64606   0.00000  Uiso   1.00
O780   O     0.50785   0.49213   0.84968   0.00000  Uiso   1.00
O781   O     0.51264   0.41352   0.78213   0.00000  Uiso   1.00
O782   O     0.47965   0.59418   0.77013   0.00000  Uiso   1.00
O783   O     0.40745   0.46625   0.73413   0.00000  Uiso   1.00
O784   O     0.60026   0.52605   0.71360   0.00000  Uiso   1.00
C785   C     0.38613   0.49315   0.75992   0.00000  Uiso   1.00
C786   C     0.61416   0.50717   0.73991   0.00000  Uiso   1.00
C787   C     0.48935   0.38932   0.76044   0.00000  Uiso   1.00
C788   C     0.50962   0.61117   0.73960   0.00000  Uiso   1.00
C789   C     0.51871   0.48178   0.62954   0.00000  Uiso   1.00
C790   C     0.48243   0.51848   0.87069   0.00000  Uiso   1.00
C791   C     0.57656   0.46635   0.51088   0.00000  Uiso   1.00
H792   H     0.58355   0.44876   0.57221   0.00000  Uiso   1.00
H793   H     0.59971   0.48691   0.92744   0.00000  Uiso   1.00
H794   H     0.60727   0.45676   0.99222   0.00000  Uiso   1.00
C795   C     0.52557   0.47722   0.58165   0.00000  Uiso   1.00
C796   C     0.42835   0.52844   0.94171   0.00000  Uiso   1.00
C797   C     0.41208   0.52125   0.98639   0.00000  Uiso   1.00
C798   C     0.43815   0.50875   0.50999   0.00000  Uiso   1.00
C799   C     0.48249   0.50681   0.99044   0.00000  Uiso   1.00
C800   C     0.49887   0.51324   0.94434   0.00000  Uiso   1.00
C801   C     0.51033   0.49551   0.51436   0.00000  Uiso   1.00
C802   C     0.55120   0.48418   0.98999   0.00000  Uiso   1.00
C803   C     0.56729   0.49247   0.94539   0.00000  Uiso   1.00
C804   C     0.54245   0.50927   0.92371   0.00000  Uiso   1.00
C805   C     0.49979   0.49582   0.56153   0.00000  Uiso   1.00
C806   C     0.56307   0.46169   0.55627   0.00000  Uiso   1.00
C807   C     0.47089   0.52230   0.91970   0.00000  Uiso   1.00
H808   H     0.40650   0.53550   0.92353   0.00000  Uiso   1.00
H809   H     0.42233   0.49900   0.54289   0.00000  Uiso   1.00
H810   H     0.37841   0.52326   0.50226   0.00000  Uiso   1.00
H811   H     0.55777   0.51811   0.89025   0.00000  Uiso   1.00
C812   C     0.66015   0.50972   0.73555   0.00000  Uiso   1.00
H813   H     0.34937   0.52687   0.70916   0.00000  Uiso   1.00
C814   C     0.34079   0.49094   0.76396   0.00000  Uiso   1.00
H815   H     0.65221   0.47403   0.79089   0.00000  Uiso   1.00
C816   C     0.51212   0.65544   0.73368   0.00000  Uiso   1.00
C817   C     0.48593   0.34519   0.76391   0.00000  Uiso   1.00
H818   H     0.46260   0.66528   0.79247   0.00000  Uiso   1.00
O819   O     0.54346   0.34048   0.69921   0.00000  Uiso   1.00
C820   C     0.52994   0.66465   0.65956   0.00000  Uiso   1.00
H821   H     0.49833   0.34235   0.66287   0.00000  Uiso   1.00
H822   H     0.52836   0.63076   0.64921   0.00000  Uiso   1.00
H823   H     0.55384   0.34798   0.63257   0.00000  Uiso   1.00
N824   N     0.46927   0.52183   0.58901   0.00000  Uiso   1.00
O825   O     0.43889   0.50694   0.62202   0.00000  Uiso   1.00
O826   O     0.47252   0.56095   0.58160   0.00000  Uiso   1.00
Zn827  Zn    0.86005   0.47327   0.78734   0.00000  Uiso   1.00
Zn828  Zn    0.80046   0.45791   0.71875   0.00000  Uiso   1.00
Zn829  Zn    0.87723   0.53109   0.70657   0.00000  Uiso   1.00
Zn830  Zn    0.79560   0.53773   0.78733   0.00000  Uiso   1.00
O831   O     0.83333   0.50000   0.75000   0.00000  Uiso   1.00
O832   O     0.73738   0.52211   0.78213   0.00000  Uiso   1.00
O833   O     0.92158   0.48559   0.77013   0.00000  Uiso   1.00
O834   O     0.80426   0.40277   0.73413   0.00000  Uiso   1.00
O835   O     0.87012   0.58953   0.71360   0.00000  Uiso   1.00
O836   O     0.82118   0.45970   0.65458   0.00000  Uiso   1.00
O837   O     0.79607   0.53724   0.84968   0.00000  Uiso   1.00
O838   O     0.87491   0.51092   0.64606   0.00000  Uiso   1.00
O839   O     0.84118   0.49213   0.84968   0.00000  Uiso   1.00
O840   O     0.84597   0.41352   0.78213   0.00000  Uiso   1.00
O841   O     0.81298   0.59418   0.77013   0.00000  Uiso   1.00
O842   O     0.74078   0.46625   0.73413   0.00000  Uiso   1.00
O843   O     0.93360   0.52605   0.71360   0.00000  Uiso   1.00
C844   C     0.71947   0.49315   0.75992   0.00000  Uiso   1.00
C845   C     0.94749   0.50717   0.73991   0.00000  Uiso   1.00
C846   C     0.82269   0.38932   0.76044   0.00000  Uiso   1.00
C847   C     0.84295   0.61117   0.73960   0.00000  Uiso   1.00
C848   C     0.85204   0.48178   0.62954   0.00000  Uiso   1.00
C849   C     0.81576   0.51848   0.87069   0.00000  Uiso   1.00
C850   C     0.90989   0.46635   0.51088   0.00000  Uiso   1.00
H851   H     0.91689   0.44876   0.57221   0.00000  Uiso   1.00
H852   H     0.93304   0.48691   0.92744   0.00000  Uiso   1.00
H853   H     0.94060   0.45676   0.99222   0.00000  Uiso   1.00
C854   C     0.85891   0.47722   0.58165   0.00000  Uiso   1.00
C855   C     0.76169   0.52844   0.94171   0.00000  Uiso   1.00
C856   C     0.74542   0.52125   0.98639   0.00000  Uiso   1.00
C857   C     0.77148   0.50875   0.50999   0.00000  Uiso   1.00
C858   C     0.81582   0.50681   0.99044   0.00000  Uiso   1.00
C859   C     0.83220   0.51324   0.94434   0.00000  Uiso   1.00
C860   C     0.84366   0.49551   0.51436   0.00000  Uiso   1.00
C861   C     0.88453   0.48418   0.98999   0.00000  Uiso   1.00
C862   C     0.90063   0.49247   0.94539   0.00000  Uiso   1.00
C863   C     0.87579   0.50927   0.92371   0.00000  Uiso   1.00
C864   C     0.83312   0.49582   0.56153   0.00000  Uiso   1.00
C865   C     0.89640   0.46169   0.55627   0.00000  Uiso   1.00
C866   C     0.80422   0.52230   0.91970   0.00000  Uiso   1.00
H867   H     0.73983   0.53550   0.92353   0.00000  Uiso   1.00
H868   H     0.75566   0.49900   0.54289   0.00000  Uiso   1.00
H869   H     0.71174   0.52326   0.50226   0.00000  Uiso   1.00
H870   H     0.89110   0.51811   0.89025   0.00000  Uiso   1.00
C871   C     0.99348   0.50972   0.73555   0.00000  Uiso   1.00
H872   H     0.68270   0.52687   0.70916   0.00000  Uiso   1.00
C873   C     0.67412   0.49094   0.76396   0.00000  Uiso   1.00
H874   H     0.98555   0.47403   0.79089   0.00000  Uiso   1.00
C875   C     0.84545   0.65544   0.73368   0.00000  Uiso   1.00
C876   C     0.81926   0.34519   0.76391   0.00000  Uiso   1.00
H877   H     0.79593   0.66528   0.79247   0.00000  Uiso   1.00
O878   O     0.87679   0.34048   0.69921   0.00000  Uiso   1.00
C879   C     0.86328   0.66465   0.65956   0.00000  Uiso   1.00
H880   H     0.83167   0.34235   0.66287   0.00000  Uiso   1.00
H881   H     0.86169   0.63076   0.64921   0.00000  Uiso   1.00
H882   H     0.88717   0.34798   0.63257   0.00000  Uiso   1.00
N883   N     0.80260   0.52183   0.58901   0.00000  Uiso   1.00
O884   O     0.77223   0.50694   0.62202   0.00000  Uiso   1.00
O885   O     0.80586   0.56095   0.58160   0.00000  Uiso   1.00
Zn886  Zn    0.19338   0.80661   0.78734   0.00000  Uiso   1.00
Zn887  Zn    0.13379   0.79124   0.71875   0.00000  Uiso   1.00
Zn888  Zn    0.21056   0.86442   0.70657   0.00000  Uiso   1.00
Zn889  Zn    0.12893   0.87106   0.78733   0.00000  Uiso   1.00
O890   O     0.16667   0.83333   0.75000   0.00000  Uiso   1.00
O891   O     0.07071   0.85544   0.78213   0.00000  Uiso   1.00
O892   O     0.25491   0.81892   0.77013   0.00000  Uiso   1.00
O893   O     0.13760   0.73610   0.73413   0.00000  Uiso   1.00
O894   O     0.20345   0.92286   0.71360   0.00000  Uiso   1.00
O895   O     0.15451   0.79304   0.65458   0.00000  Uiso   1.00
O896   O     0.12940   0.87058   0.84968   0.00000  Uiso   1.00
O897   O     0.20824   0.84425   0.64606   0.00000  Uiso   1.00
O898   O     0.17451   0.82546   0.84968   0.00000  Uiso   1.00
O899   O     0.17930   0.74686   0.78213   0.00000  Uiso   1.00
O900   O     0.14632   0.92751   0.77013   0.00000  Uiso   1.00
O901   O     0.07412   0.79958   0.73413   0.00000  Uiso   1.00
O902   O     0.26693   0.85939   0.71360   0.00000  Uiso   1.00
C903   C     0.05280   0.82648   0.75992   0.00000  Uiso   1.00
C904   C     0.28083   0.84050   0.73991   0.00000  Uiso   1.00
C905   C     0.15602   0.72265   0.76044   0.00000  Uiso   1.00
C906   C     0.17629   0.94451   0.73960   0.00000  Uiso   1.00
C907   C     0.18537   0.81512   0.62954   0.00000  Uiso   1.00
C908   C     0.14910   0.85182   0.87069   0.00000  Uiso   1.00
C909   C     0.24323   0.79969   0.51088   0.00000  Uiso   1.00
H910   H     0.25022   0.78210   0.57221   0.00000  Uiso   1.00
H911   H     0.26637   0.82025   0.92744   0.00000  Uiso   1.00
H912   H     0.27394   0.79010   0.99222   0.00000  Uiso   1.00
C913   C     0.19224   0.81055   0.58165   0.00000  Uiso   1.00
C914   C     0.09502   0.86177   0.94171   0.00000  Uiso   1.00
C915   C     0.07875   0.85458   0.98639   0.00000  Uiso   1.00
C916   C     0.10482   0.84208   0.50999   0.00000  Uiso   1.00
C917   C     0.14916   0.84014   0.99044   0.00000  Uiso   1.00
C918   C     0.16553   0.84658   0.94434   0.00000  Uiso   1.00
C919   C     0.17700   0.82884   0.51436   0.00000  Uiso   1.00
C920   C     0.21787   0.81751   0.98999   0.00000  Uiso   1.00
C921   C     0.23396   0.82581   0.94539   0.00000  Uiso   1.00
C922   C     0.20912   0.84260   0.92371   0.00000  Uiso   1.00
C923   C     0.16645   0.82915   0.56153   0.00000  Uiso   1.00
C924   C     0.22973   0.79502   0.55627   0.00000  Uiso   1.00
C925   C     0.13755   0.85563   0.91970   0.00000  Uiso   1.00
H926   H     0.07316   0.86884   0.92353   0.00000  Uiso   1.00
H927   H     0.08900   0.83233   0.54289   0.00000  Uiso   1.00
H928   H     0.04507   0.85660   0.50226   0.00000  Uiso   1.00
H929   H     0.22443   0.85145   0.89025   0.00000  Uiso   1.00
C930   C     0.32681   0.84305   0.73555   0.00000  Uiso   1.00
H931   H     0.01603   0.86021   0.70916   0.00000  Uiso   1.00
C932   C     0.00746   0.82427   0.76396   0.00000  Uiso   1.00
H933   H     0.31888   0.80737   0.79089   0.00000  Uiso   1.00
C934   C     0.17879   0.98877   0.73368   0.00000  Uiso   1.00
C935   C     0.15260   0.67852   0.76391   0.00000  Uiso   1.00
H936   H     0.12926   0.99861   0.79247   0.00000  Uiso   1.00
O937   O     0.21013   0.67382   0.69921   0.00000  Uiso   1.00
C938   C     0.19661   0.99799   0.65956   0.00000  Uiso   1.00
H939   H     0.16500   0.67569   0.66287   0.00000  Uiso   1.00
H940   H     0.19502   0.96410   0.64921   0.00000  Uiso   1.00
H941   H     0.22050   0.68132   0.63257   0.00000  Uiso   1.00
N942   N     0.13594   0.85517   0.58901   0.00000  Uiso   1.00
O943   O     0.10556   0.84027   0.62202   0.00000  Uiso   1.00
O944   O     0.13919   0.89428   0.58160   0.00000  Uiso   1.00
Zn945  Zn    0.52672   0.80661   0.78734   0.00000  Uiso   1.00
Zn946  Zn    0.46713   0.79124   0.71875   0.00000  Uiso   1.00
Zn947  Zn    0.54389   0.86442   0.70657   0.00000  Uiso   1.00
Zn948  Zn    0.46226   0.87106   0.78733   0.00000  Uiso   1.00
O949   O     0.50000   0.83333   0.75000   0.00000  Uiso   1.00
O950   O     0.40405   0.85544   0.78213   0.00000  Uiso   1.00
O951   O     0.58824   0.81892   0.77013   0.00000  Uiso   1.00
O952   O     0.47093   0.73610   0.73413   0.00000  Uiso   1.00
O953   O     0.53678   0.92286   0.71360   0.00000  Uiso   1.00
O954   O     0.48784   0.79304   0.65458   0.00000  Uiso   1.00
O955   O     0.46274   0.87058   0.84968   0.00000  Uiso   1.00
O956   O     0.54157   0.84425   0.64606   0.00000  Uiso   1.00
O957   O     0.50785   0.82546   0.84968   0.00000  Uiso   1.00
O958   O     0.51264   0.74686   0.78213   0.00000  Uiso   1.00
O959   O     0.47965   0.92751   0.77013   0.00000  Uiso   1.00
O960   O     0.40745   0.79958   0.73413   0.00000  Uiso   1.00
O961   O     0.60026   0.85939   0.71360   0.00000  Uiso   1.00
C962   C     0.38613   0.82648   0.75992   0.00000  Uiso   1.00
C963   C     0.61416   0.84050   0.73991   0.00000  Uiso   1.00
C964   C     0.48935   0.72265   0.76044   0.00000  Uiso   1.00
C965   C     0.50962   0.94451   0.73960   0.00000  Uiso   1.00
C966   C     0.51871   0.81512   0.62954   0.00000  Uiso   1.00
C967   C     0.48243   0.85182   0.87069   0.00000  Uiso   1.00
C968   C     0.57656   0.79969   0.51088   0.00000  Uiso   1.00
H969   H     0.58355   0.78210   0.57221   0.00000  Uiso   1.00
H970   H     0.59971   0.82025   0.92744   0.00000  Uiso   1.00
H971   H     0.60727   0.79010   0.99222   0.00000  Uiso   1.00
C972   C     0.52557   0.81055   0.58165   0.00000  Uiso   1.00
C973   C     0.42835   0.86177   0.94171   0.00000  Uiso   1.00
C974   C     0.41208   0.85458   0.98639   0.00000  Uiso   1.00
C975   C     0.43815   0.84208   0.50999   0.00000  Uiso   1.00
C976   C     0.48249   0.84014   0.99044   0.00000  Uiso   1.00
C977   C     0.49887   0.84658   0.94434   0.00000  Uiso   1.00
C978   C     0.51033   0.82884   0.51436   0.00000  Uiso   1.00
C979   C     0.55120   0.81751   0.98999   0.00000  Uiso   1.00
C980   C     0.56729   0.82581   0.94539   0.00000  Uiso   1.00
C981   C     0.54245   0.84260   0.92371   0.00000  Uiso   1.00
C982   C     0.49979   0.82915   0.56153   0.00000  Uiso   1.00
C983   C     0.56307   0.79502   0.55627   0.00000  Uiso   1.00
C984   C     0.47089   0.85563   0.91970   0.00000  Uiso   1.00
H985   H     0.40650   0.86884   0.92353   0.00000  Uiso   1.00
H986   H     0.42233   0.83233   0.54289   0.00000  Uiso   1.00
H987   H     0.37841   0.85660   0.50226   0.00000  Uiso   1.00
H988   H     0.55777   0.85145   0.89025   0.00000  Uiso   1.00
C989   C     0.66015   0.84305   0.73555   0.00000  Uiso   1.00
H990   H     0.34937   0.86021   0.70916   0.00000  Uiso   1.00
C991   C     0.34079   0.82427   0.76396   0.00000  Uiso   1.00
H992   H     0.65221   0.80737   0.79089   0.00000  Uiso   1.00
C993   C     0.51212   0.98877   0.73368   0.00000  Uiso   1.00
C994   C     0.48593   0.67852   0.76391   0.00000  Uiso   1.00
H995   H     0.46260   0.99861   0.79247   0.00000  Uiso   1.00
O996   O     0.54346   0.67382   0.69921   0.00000  Uiso   1.00
C997   C     0.52994   0.99799   0.65956   0.00000  Uiso   1.00
H998   H     0.49833   0.67569   0.66287   0.00000  Uiso   1.00
H999   H     0.52836   0.96410   0.64921   0.00000  Uiso   1.00
H1000  H     0.55384   0.68132   0.63257   0.00000  Uiso   1.00
N1001  N     0.46927   0.85517   0.58901   0.00000  Uiso   1.00
O1002  O     0.43889   0.84027   0.62202   0.00000  Uiso   1.00
O1003  O     0.47252   0.89428   0.58160   0.00000  Uiso   1.00
Zn1004 Zn    0.86005   0.80661   0.78734   0.00000  Uiso   1.00
Zn1005 Zn    0.80046   0.79124   0.71875   0.00000  Uiso   1.00
Zn1006 Zn    0.87723   0.86442   0.70657   0.00000  Uiso   1.00
Zn1007 Zn    0.79560   0.87106   0.78733   0.00000  Uiso   1.00
O1008  O     0.83333   0.83333   0.75000   0.00000  Uiso   1.00
O1009  O     0.73738   0.85544   0.78213   0.00000  Uiso   1.00
O1010  O     0.92158   0.81892   0.77013   0.00000  Uiso   1.00
O1011  O     0.80426   0.73610   0.73413   0.00000  Uiso   1.00
O1012  O     0.87012   0.92286   0.71360   0.00000  Uiso   1.00
O1013  O     0.82118   0.79304   0.65458   0.00000  Uiso   1.00
O1014  O     0.79607   0.87058   0.84968   0.00000  Uiso   1.00
O1015  O     0.87491   0.84425   0.64606   0.00000  Uiso   1.00
O1016  O     0.84118   0.82546   0.84968   0.00000  Uiso   1.00
O1017  O     0.84597   0.74686   0.78213   0.00000  Uiso   1.00
O1018  O     0.81298   0.92751   0.77013   0.00000  Uiso   1.00
O1019  O     0.74078   0.79958   0.73413   0.00000  Uiso   1.00
O1020  O     0.93360   0.85939   0.71360   0.00000  Uiso   1.00
C1021  C     0.71947   0.82648   0.75992   0.00000  Uiso   1.00
C1022  C     0.94749   0.84050   0.73991   0.00000  Uiso   1.00
C1023  C     0.82269   0.72265   0.76044   0.00000  Uiso   1.00
C1024  C     0.84295   0.94451   0.73960   0.00000  Uiso   1.00
C1025  C     0.85204   0.81512   0.62954   0.00000  Uiso   1.00
C1026  C     0.81576   0.85182   0.87069   0.00000  Uiso   1.00
C1027  C     0.90989   0.79969   0.51088   0.00000  Uiso   1.00
H1028  H     0.91689   0.78210   0.57221   0.00000  Uiso   1.00
H1029  H     0.93304   0.82025   0.92744   0.00000  Uiso   1.00
H1030  H     0.94060   0.79010   0.99222   0.00000  Uiso   1.00
C1031  C     0.85891   0.81055   0.58165   0.00000  Uiso   1.00
C1032  C     0.76169   0.86177   0.94171   0.00000  Uiso   1.00
C1033  C     0.74542   0.85458   0.98639   0.00000  Uiso   1.00
C1034  C     0.77148   0.84208   0.50999   0.00000  Uiso   1.00
C1035  C     0.81582   0.84014   0.99044   0.00000  Uiso   1.00
C1036  C     0.83220   0.84658   0.94434   0.00000  Uiso   1.00
C1037  C     0.84366   0.82884   0.51436   0.00000  Uiso   1.00
C1038  C     0.88453   0.81751   0.98999   0.00000  Uiso   1.00
C1039  C     0.90063   0.82581   0.94539   0.00000  Uiso   1.00
C1040  C     0.87579   0.84260   0.92371   0.00000  Uiso   1.00
C1041  C     0.83312   0.82915   0.56153   0.00000  Uiso   1.00
C1042  C     0.89640   0.79502   0.55627   0.00000  Uiso   1.00
C1043  C     0.80422   0.85563   0.91970   0.00000  Uiso   1.00
H1044  H     0.73983   0.86884   0.92353   0.00000  Uiso   1.00
H1045  H     0.75566   0.83233   0.54289   0.00000  Uiso   1.00
H1046  H     0.71174   0.85660   0.50226   0.00000  Uiso   1.00
H1047  H     0.89110   0.85145   0.89025   0.00000  Uiso   1.00
C1048  C     0.99348   0.84305   0.73555   0.00000  Uiso   1.00
H1049  H     0.68270   0.86021   0.70916   0.00000  Uiso   1.00
C1050  C     0.67412   0.82427   0.76396   0.00000  Uiso   1.00
H1051  H     0.98555   0.80737   0.79089   0.00000  Uiso   1.00
C1052  C     0.84545   0.98877   0.73368   0.00000  Uiso   1.00
C1053  C     0.81926   0.67852   0.76391   0.00000  Uiso   1.00
H1054  H     0.79593   0.99861   0.79247   0.00000  Uiso   1.00
O1055  O     0.87679   0.67382   0.69921   0.00000  Uiso   1.00
C1056  C     0.86328   0.99799   0.65956   0.00000  Uiso   1.00
H1057  H     0.83167   0.67569   0.66287   0.00000  Uiso   1.00
H1058  H     0.86169   0.96410   0.64921   0.00000  Uiso   1.00
H1059  H     0.88717   0.68132   0.63257   0.00000  Uiso   1.00
N1060  N     0.80260   0.85517   0.58901   0.00000  Uiso   1.00
O1061  O     0.77223   0.84027   0.62202   0.00000  Uiso   1.00
O1062  O     0.80586   0.89428   0.58160   0.00000  Uiso   1.00
loop_
_geom_bond_atom_site_label_1
_geom_bond_atom_site_label_2
_geom_bond_distance
_geom_bond_site_symmetry_2
_ccdc_geom_bond_type
Zn1    O5      1.964   .     S
Zn1    O13     1.938   .     S
Zn1    O14     1.929   .     S
Zn1    O7      1.920   .     S
Zn2    O16     1.923   .     S
Zn2    O5      1.951   .     S
Zn2    O8      1.935   .     S
Zn2    O10     1.940   .     S
Zn3    O9      1.931   .     S
Zn3    O12     1.950   .     S
Zn3    O17     1.936   .     S
Zn3    O5      1.931   .     S
Zn4    O15     1.929   .     S
Zn4    O11     1.953   .     S
Zn4    O6      1.932   .     S
Zn4    O5      1.934   .     S
O6     C18     1.273   .     A
O7     C19     1.279   .     A
O8     C20     1.282   .     A
O9     C21     1.269   .     A
O10    C22     1.273   .     A
O11    C23     1.281   .     A
O12    C22     1.268   .     A
O13    C23     1.283   .     A
O14    C20     1.279   .     A
O15    C21     1.273   .     A
O16    C18     1.274   .     A
O17    C19     1.283   .     A
C18    C47     1.437   .     S
C19    C45     1.455   .     S
C20    C50     1.436   .     S
C21    C49     1.459   .     S
C22    C28     1.447   .     S
C23    C40     1.471   .     S
C24    C39     1.385   .     A
C24    H558    1.084   1_554 S
C24    C566    1.398   1_554 S
H25    C39     1.084   .     S
H26    C36     1.084   .     S
H27    C555    1.084   .     S
C28    C38     1.407   .     A
C28    C39     1.396   .     A
C29    C30     1.386   .     A
C29    C40     1.403   .     A
C29    H41     1.083   .     S
C30    C562    1.389   .     S
C30    H574    1.083   .     S
C31    H42     1.077   .     S
C31    C561    1.389   1_554 S
C31    C563    1.415   1_554 S
C32    C33     1.422   .     A
C32    C562    1.415   .     S
C32    C565    1.426   .     S
C33    C40     1.418   .     A
C33    C37     1.410   .     A
C34    C38     1.420   .     A
C34    C563    1.426   1_554 S
C34    C566    1.423   1_554 S
C35    C36     1.391   .     A
C35    C555    1.398   .     S
C35    C565    1.423   .     S
C36    C37     1.383   .     A
C37    H44     1.080   .     S
C38    N57     1.440   .     S
H43    C561    1.083   1_554 S
C45    H105    1.088   .     S
C45    C106    1.335   .     S
H46    C163    1.088   1_455 S
C47    C163    1.335   1_455 S
C47    H166    1.086   1_455 S
H48    C106    1.086   .     S
C49    C227    1.336   .     S
C49    O229    1.388   .     S
C50    C403    1.336   1_545 S
C50    H405    1.086   1_545 S
H51    C227    1.086   .     S
O52    C403    1.388   1_545 S
O52    C407    1.410   1_545 S
C53    H55     1.112   .     S
C53    O229    1.410   .     S
C53    H231    1.114   .     S
C53    H233    1.109   .     S
H54    C407    1.114   1_545 S
H56    C407    1.109   1_545 S
N57    O58     1.301   .     A
N57    O59     1.301   .     A
Zn60   O64     1.964   .     S
Zn60   O72     1.938   .     S
Zn60   O73     1.929   .     S
Zn60   O66     1.920   .     S
Zn61   O75     1.923   .     S
Zn61   O64     1.951   .     S
Zn61   O67     1.935   .     S
Zn61   O69     1.940   .     S
Zn62   O68     1.931   .     S
Zn62   O71     1.950   .     S
Zn62   O76     1.936   .     S
Zn62   O64     1.931   .     S
Zn63   O74     1.929   .     S
Zn63   O70     1.953   .     S
Zn63   O65     1.932   .     S
Zn63   O64     1.934   .     S
O65    C77     1.273   .     A
O66    C78     1.279   .     A
O67    C79     1.282   .     A
O68    C80     1.269   .     A
O69    C81     1.273   .     A
O70    C82     1.281   .     A
O71    C81     1.268   .     A
O72    C82     1.283   .     A
O73    C79     1.279   .     A
O74    C80     1.273   .     A
O75    C77     1.274   .     A
O76    C78     1.283   .     A
C77    C106    1.437   .     S
C78    C104    1.455   .     S
C79    C109    1.436   .     S
C80    C108    1.459   .     S
C81    C87     1.447   .     S
C82    C99     1.471   .     S
C83    C98     1.385   .     A
C83    H617    1.084   1_554 S
C83    C625    1.398   1_554 S
H84    C98     1.084   .     S
H85    C95     1.084   .     S
H86    C614    1.084   .     S
C87    C97     1.407   .     A
C87    C98     1.396   .     A
C88    C89     1.386   .     A
C88    C99     1.403   .     A
C88    H100    1.083   .     S
C89    C621    1.389   .     S
C89    H633    1.083   .     S
C90    H101    1.077   .     S
C90    C620    1.389   1_554 S
C90    C622    1.415   1_554 S
C91    C92     1.422   .     A
C91    C621    1.415   .     S
C91    C624    1.426   .     S
C92    C99     1.418   .     A
C92    C96     1.410   .     A
C93    C97     1.420   .     A
C93    C622    1.426   1_554 S
C93    C625    1.423   1_554 S
C94    C95     1.391   .     A
C94    C614    1.398   .     S
C94    C624    1.423   .     S
C95    C96     1.383   .     A
C96    H103    1.080   .     S
C97    N116    1.440   .     S
H102   C620    1.083   1_554 S
C104   H164    1.088   .     S
C104   C165    1.335   .     S
H107   C165    1.086   .     S
C108   C286    1.336   .     S
C108   O288    1.388   .     S
C109   C462    1.336   1_545 S
C109   H464    1.086   1_545 S
H110   C286    1.086   .     S
O111   C462    1.388   1_545 S
O111   C466    1.410   1_545 S
C112   H114    1.112   .     S
C112   O288    1.410   .     S
C112   H290    1.114   .     S
C112   H292    1.109   .     S
H113   C466    1.114   1_545 S
H115   C466    1.109   1_545 S
N116   O117    1.301   .     A
N116   O118    1.301   .     A
Zn119  O123    1.964   .     S
Zn119  O131    1.938   .     S
Zn119  O132    1.929   .     S
Zn119  O125    1.920   .     S
Zn120  O134    1.923   .     S
Zn120  O123    1.951   .     S
Zn120  O126    1.935   .     S
Zn120  O128    1.940   .     S
Zn121  O127    1.931   .     S
Zn121  O130    1.950   .     S
Zn121  O135    1.936   .     S
Zn121  O123    1.931   .     S
Zn122  O133    1.929   .     S
Zn122  O129    1.953   .     S
Zn122  O124    1.932   .     S
Zn122  O123    1.934   .     S
O124   C136    1.273   .     A
O125   C137    1.279   .     A
O126   C138    1.282   .     A
O127   C139    1.269   .     A
O128   C140    1.273   .     A
O129   C141    1.281   .     A
O130   C140    1.268   .     A
O131   C141    1.283   .     A
O132   C138    1.279   .     A
O133   C139    1.273   .     A
O134   C136    1.274   .     A
O135   C137    1.283   .     A
C136   C165    1.437   .     S
C137   C163    1.455   .     S
C138   C168    1.436   .     S
C139   C167    1.459   .     S
C140   C146    1.447   .     S
C141   C158    1.471   .     S
C142   C157    1.385   .     A
C142   H676    1.084   1_554 S
C142   C684    1.398   1_554 S
H143   C157    1.084   .     S
H144   C154    1.084   .     S
H145   C673    1.084   .     S
C146   C156    1.407   .     A
C146   C157    1.396   .     A
C147   C148    1.386   .     A
C147   C158    1.403   .     A
C147   H159    1.083   .     S
C148   C680    1.389   .     S
C148   H692    1.083   .     S
C149   H160    1.077   .     S
C149   C679    1.389   1_554 S
C149   C681    1.415   1_554 S
C150   C151    1.422   .     A
C150   C680    1.415   .     S
C150   C683    1.426   .     S
C151   C158    1.418   .     A
C151   C155    1.410   .     A
C152   C156    1.420   .     A
C152   C681    1.426   1_554 S
C152   C684    1.423   1_554 S
C153   C154    1.391   .     A
C153   C673    1.398   .     S
C153   C683    1.423   .     S
C154   C155    1.383   .     A
C155   H162    1.080   .     S
C156   N175    1.440   .     S
H161   C679    1.083   1_554 S
C163   H46     1.088   1_655 S
C163   C47     1.335   1_655 S
H166   C47     1.086   1_655 S
C167   C345    1.336   .     S
C167   O347    1.388   .     S
C168   C521    1.336   1_545 S
C168   H523    1.086   1_545 S
H169   C345    1.086   .     S
O170   C521    1.388   1_545 S
O170   C525    1.410   1_545 S
C171   H173    1.112   .     S
C171   O347    1.410   .     S
C171   H349    1.114   .     S
C171   H351    1.109   .     S
H172   C525    1.114   1_545 S
H174   C525    1.109   1_545 S
N175   O176    1.301   .     A
N175   O177    1.301   .     A
Zn178  O182    1.964   .     S
Zn178  O190    1.938   .     S
Zn178  O191    1.929   .     S
Zn178  O184    1.920   .     S
Zn179  O193    1.923   .     S
Zn179  O182    1.951   .     S
Zn179  O185    1.935   .     S
Zn179  O187    1.940   .     S
Zn180  O186    1.931   .     S
Zn180  O189    1.950   .     S
Zn180  O194    1.936   .     S
Zn180  O182    1.931   .     S
Zn181  O192    1.929   .     S
Zn181  O188    1.953   .     S
Zn181  O183    1.932   .     S
Zn181  O182    1.934   .     S
O183   C195    1.273   .     A
O184   C196    1.279   .     A
O185   C197    1.282   .     A
O186   C198    1.269   .     A
O187   C199    1.273   .     A
O188   C200    1.281   .     A
O189   C199    1.268   .     A
O190   C200    1.283   .     A
O191   C197    1.279   .     A
O192   C198    1.273   .     A
O193   C195    1.274   .     A
O194   C196    1.283   .     A
C195   C224    1.437   .     S
C196   C222    1.455   .     S
C197   C227    1.436   .     S
C198   C226    1.459   .     S
C199   C205    1.447   .     S
C200   C217    1.471   .     S
C201   C216    1.385   .     A
C201   H735    1.084   1_554 S
C201   C743    1.398   1_554 S
H202   C216    1.084   .     S
H203   C213    1.084   .     S
H204   C732    1.084   .     S
C205   C215    1.407   .     A
C205   C216    1.396   .     A
C206   C207    1.386   .     A
C206   C217    1.403   .     A
C206   H218    1.083   .     S
C207   C739    1.389   .     S
C207   H751    1.083   .     S
C208   H219    1.077   .     S
C208   C738    1.389   1_554 S
C208   C740    1.415   1_554 S
C209   C210    1.422   .     A
C209   C739    1.415   .     S
C209   C742    1.426   .     S
C210   C217    1.418   .     A
C210   C214    1.410   .     A
C211   C215    1.420   .     A
C211   C740    1.426   1_554 S
C211   C743    1.423   1_554 S
C212   C213    1.391   .     A
C212   C732    1.398   .     S
C212   C742    1.423   .     S
C213   C214    1.383   .     A
C214   H221    1.080   .     S
C215   N234    1.440   .     S
H220   C738    1.083   1_554 S
C222   H282    1.088   .     S
C222   C283    1.335   .     S
H223   C340    1.088   1_455 S
C224   C340    1.335   1_455 S
C224   H343    1.086   1_455 S
H225   C283    1.086   .     S
C226   C404    1.336   .     S
C226   O406    1.388   .     S
H228   C404    1.086   .     S
C230   H232    1.112   .     S
C230   O406    1.410   .     S
C230   H408    1.114   .     S
C230   H410    1.109   .     S
N234   O235    1.301   .     A
N234   O236    1.301   .     A
Zn237  O241    1.964   .     S
Zn237  O249    1.938   .     S
Zn237  O250    1.929   .     S
Zn237  O243    1.920   .     S
Zn238  O252    1.923   .     S
Zn238  O241    1.951   .     S
Zn238  O244    1.935   .     S
Zn238  O246    1.940   .     S
Zn239  O245    1.931   .     S
Zn239  O248    1.950   .     S
Zn239  O253    1.936   .     S
Zn239  O241    1.931   .     S
Zn240  O251    1.929   .     S
Zn240  O247    1.953   .     S
Zn240  O242    1.932   .     S
Zn240  O241    1.934   .     S
O242   C254    1.273   .     A
O243   C255    1.279   .     A
O244   C256    1.282   .     A
O245   C257    1.269   .     A
O246   C258    1.273   .     A
O247   C259    1.281   .     A
O248   C258    1.268   .     A
O249   C259    1.283   .     A
O250   C256    1.279   .     A
O251   C257    1.273   .     A
O252   C254    1.274   .     A
O253   C255    1.283   .     A
C254   C283    1.437   .     S
C255   C281    1.455   .     S
C256   C286    1.436   .     S
C257   C285    1.459   .     S
C258   C264    1.447   .     S
C259   C276    1.471   .     S
C260   C275    1.385   .     A
C260   H794    1.084   1_554 S
C260   C802    1.398   1_554 S
H261   C275    1.084   .     S
H262   C272    1.084   .     S
H263   C791    1.084   .     S
C264   C274    1.407   .     A
C264   C275    1.396   .     A
C265   C266    1.386   .     A
C265   C276    1.403   .     A
C265   H277    1.083   .     S
C266   C798    1.389   .     S
C266   H810    1.083   .     S
C267   H278    1.077   .     S
C267   C797    1.389   1_554 S
C267   C799    1.415   1_554 S
C268   C269    1.422   .     A
C268   C798    1.415   .     S
C268   C801    1.426   .     S
C269   C276    1.418   .     A
C269   C273    1.410   .     A
C270   C274    1.420   .     A
C270   C799    1.426   1_554 S
C270   C802    1.423   1_554 S
C271   C272    1.391   .     A
C271   C791    1.398   .     S
C271   C801    1.423   .     S
C272   C273    1.383   .     A
C273   H280    1.080   .     S
C274   N293    1.440   .     S
H279   C797    1.083   1_554 S
C281   H341    1.088   .     S
C281   C342    1.335   .     S
H284   C342    1.086   .     S
C285   C463    1.336   .     S
C285   O465    1.388   .     S
H287   C463    1.086   .     S
C289   H291    1.112   .     S
C289   O465    1.410   .     S
C289   H467    1.114   .     S
C289   H469    1.109   .     S
N293   O294    1.301   .     A
N293   O295    1.301   .     A
Zn296  O300    1.964   .     S
Zn296  O308    1.938   .     S
Zn296  O309    1.929   .     S
Zn296  O302    1.920   .     S
Zn297  O311    1.923   .     S
Zn297  O300    1.951   .     S
Zn297  O303    1.935   .     S
Zn297  O305    1.940   .     S
Zn298  O304    1.931   .     S
Zn298  O307    1.950   .     S
Zn298  O312    1.936   .     S
Zn298  O300    1.931   .     S
Zn299  O310    1.929   .     S
Zn299  O306    1.953   .     S
Zn299  O301    1.932   .     S
Zn299  O300    1.934   .     S
O301   C313    1.273   .     A
O302   C314    1.279   .     A
O303   C315    1.282   .     A
O304   C316    1.269   .     A
O305   C317    1.273   .     A
O306   C318    1.281   .     A
O307   C317    1.268   .     A
O308   C318    1.283   .     A
O309   C315    1.279   .     A
O310   C316    1.273   .     A
O311   C313    1.274   .     A
O312   C314    1.283   .     A
C313   C342    1.437   .     S
C314   C340    1.455   .     S
C315   C345    1.436   .     S
C316   C344    1.459   .     S
C317   C323    1.447   .     S
C318   C335    1.471   .     S
C319   C334    1.385   .     A
C319   H853    1.084   1_554 S
C319   C861    1.398   1_554 S
H320   C334    1.084   .     S
H321   C331    1.084   .     S
H322   C850    1.084   .     S
C323   C333    1.407   .     A
C323   C334    1.396   .     A
C324   C325    1.386   .     A
C324   C335    1.403   .     A
C324   H336    1.083   .     S
C325   C857    1.389   .     S
C325   H869    1.083   .     S
C326   H337    1.077   .     S
C326   C856    1.389   1_554 S
C326   C858    1.415   1_554 S
C327   C328    1.422   .     A
C327   C857    1.415   .     S
C327   C860    1.426   .     S
C328   C335    1.418   .     A
C328   C332    1.410   .     A
C329   C333    1.420   .     A
C329   C858    1.426   1_554 S
C329   C861    1.423   1_554 S
C330   C331    1.391   .     A
C330   C850    1.398   .     S
C330   C860    1.423   .     S
C331   C332    1.383   .     A
C332   H339    1.080   .     S
C333   N352    1.440   .     S
H338   C856    1.083   1_554 S
C340   H223    1.088   1_655 S
C340   C224    1.335   1_655 S
H343   C224    1.086   1_655 S
C344   C522    1.336   .     S
C344   O524    1.388   .     S
H346   C522    1.086   .     S
C348   H350    1.112   .     S
C348   O524    1.410   .     S
C348   H526    1.114   .     S
C348   H528    1.109   .     S
N352   O353    1.301   .     A
N352   O354    1.301   .     A
Zn355  O359    1.964   .     S
Zn355  O367    1.938   .     S
Zn355  O368    1.929   .     S
Zn355  O361    1.920   .     S
Zn356  O370    1.923   .     S
Zn356  O359    1.951   .     S
Zn356  O362    1.935   .     S
Zn356  O364    1.940   .     S
Zn357  O363    1.931   .     S
Zn357  O366    1.950   .     S
Zn357  O371    1.936   .     S
Zn357  O359    1.931   .     S
Zn358  O369    1.929   .     S
Zn358  O365    1.953   .     S
Zn358  O360    1.932   .     S
Zn358  O359    1.934   .     S
O360   C372    1.273   .     A
O361   C373    1.279   .     A
O362   C374    1.282   .     A
O363   C375    1.269   .     A
O364   C376    1.273   .     A
O365   C377    1.281   .     A
O366   C376    1.268   .     A
O367   C377    1.283   .     A
O368   C374    1.279   .     A
O369   C375    1.273   .     A
O370   C372    1.274   .     A
O371   C373    1.283   .     A
C372   C401    1.437   .     S
C373   C399    1.455   .     S
C374   C404    1.436   .     S
C375   C403    1.459   .     S
C376   C382    1.447   .     S
C377   C394    1.471   .     S
C378   C393    1.385   .     A
C378   H912    1.084   1_554 S
C378   C920    1.398   1_554 S
H379   C393    1.084   .     S
H380   C390    1.084   .     S
H381   C909    1.084   .     S
C382   C392    1.407   .     A
C382   C393    1.396   .     A
C383   C384    1.386   .     A
C383   C394    1.403   .     A
C383   H395    1.083   .     S
C384   C916    1.389   .     S
C384   H928    1.083   .     S
C385   H396    1.077   .     S
C385   C915    1.389   1_554 S
C385   C917    1.415   1_554 S
C386   C387    1.422   .     A
C386   C916    1.415   .     S
C386   C919    1.426   .     S
C387   C394    1.418   .     A
C387   C391    1.410   .     A
C388   C392    1.420   .     A
C388   C917    1.426   1_554 S
C388   C920    1.423   1_554 S
C389   C390    1.391   .     A
C389   C909    1.398   .     S
C389   C919    1.423   .     S
C390   C391    1.383   .     A
C391   H398    1.080   .     S
C392   N411    1.440   .     S
H397   C915    1.083   1_554 S
C399   H459    1.088   .     S
C399   C460    1.335   .     S
H400   C517    1.088   1_455 S
C401   C517    1.335   1_455 S
C401   H520    1.086   1_455 S
H402   C460    1.086   .     S
C403   C50     1.336   1_565 S
C403   O52     1.388   1_565 S
H405   C50     1.086   1_565 S
C407   H409    1.112   .     S
C407   O52     1.410   1_565 S
C407   H54     1.114   1_565 S
C407   H56     1.109   1_565 S
N411   O412    1.301   .     A
N411   O413    1.301   .     A
Zn414  O418    1.964   .     S
Zn414  O426    1.938   .     S
Zn414  O427    1.929   .     S
Zn414  O420    1.920   .     S
Zn415  O429    1.923   .     S
Zn415  O418    1.951   .     S
Zn415  O421    1.935   .     S
Zn415  O423    1.940   .     S
Zn416  O422    1.931   .     S
Zn416  O425    1.950   .     S
Zn416  O430    1.936   .     S
Zn416  O418    1.931   .     S
Zn417  O428    1.929   .     S
Zn417  O424    1.953   .     S
Zn417  O419    1.932   .     S
Zn417  O418    1.934   .     S
O419   C431    1.273   .     A
O420   C432    1.279   .     A
O421   C433    1.282   .     A
O422   C434    1.269   .     A
O423   C435    1.273   .     A
O424   C436    1.281   .     A
O425   C435    1.268   .     A
O426   C436    1.283   .     A
O427   C433    1.279   .     A
O428   C434    1.273   .     A
O429   C431    1.274   .     A
O430   C432    1.283   .     A
C431   C460    1.437   .     S
C432   C458    1.455   .     S
C433   C463    1.436   .     S
C434   C462    1.459   .     S
C435   C441    1.447   .     S
C436   C453    1.471   .     S
C437   C452    1.385   .     A
C437   H971    1.084   1_554 S
C437   C979    1.398   1_554 S
H438   C452    1.084   .     S
H439   C449    1.084   .     S
H440   C968    1.084   .     S
C441   C451    1.407   .     A
C441   C452    1.396   .     A
C442   C443    1.386   .     A
C442   C453    1.403   .     A
C442   H454    1.083   .     S
C443   C975    1.389   .     S
C443   H987    1.083   .     S
C444   H455    1.077   .     S
C444   C974    1.389   1_554 S
C444   C976    1.415   1_554 S
C445   C446    1.422   .     A
C445   C975    1.415   .     S
C445   C978    1.426   .     S
C446   C453    1.418   .     A
C446   C450    1.410   .     A
C447   C451    1.420   .     A
C447   C976    1.426   1_554 S
C447   C979    1.423   1_554 S
C448   C449    1.391   .     A
C448   C968    1.398   .     S
C448   C978    1.423   .     S
C449   C450    1.383   .     A
C450   H457    1.080   .     S
C451   N470    1.440   .     S
H456   C974    1.083   1_554 S
C458   H518    1.088   .     S
C458   C519    1.335   .     S
H461   C519    1.086   .     S
C462   C109    1.336   1_565 S
C462   O111    1.388   1_565 S
H464   C109    1.086   1_565 S
C466   H468    1.112   .     S
C466   O111    1.410   1_565 S
C466   H113    1.114   1_565 S
C466   H115    1.109   1_565 S
N470   O471    1.301   .     A
N470   O472    1.301   .     A
Zn473  O477    1.964   .     S
Zn473  O485    1.938   .     S
Zn473  O486    1.929   .     S
Zn473  O479    1.920   .     S
Zn474  O488    1.923   .     S
Zn474  O477    1.951   .     S
Zn474  O480    1.935   .     S
Zn474  O482    1.940   .     S
Zn475  O481    1.931   .     S
Zn475  O484    1.950   .     S
Zn475  O489    1.936   .     S
Zn475  O477    1.931   .     S
Zn476  O487    1.929   .     S
Zn476  O483    1.953   .     S
Zn476  O478    1.932   .     S
Zn476  O477    1.934   .     S
O478   C490    1.273   .     A
O479   C491    1.279   .     A
O480   C492    1.282   .     A
O481   C493    1.269   .     A
O482   C494    1.273   .     A
O483   C495    1.281   .     A
O484   C494    1.268   .     A
O485   C495    1.283   .     A
O486   C492    1.279   .     A
O487   C493    1.273   .     A
O488   C490    1.274   .     A
O489   C491    1.283   .     A
C490   C519    1.437   .     S
C491   C517    1.455   .     S
C492   C522    1.436   .     S
C493   C521    1.459   .     S
C494   C500    1.447   .     S
C495   C512    1.471   .     S
C496   C511    1.385   .     A
C496   H1030   1.084   1_554 S
C496   C1038   1.398   1_554 S
H497   C511    1.084   .     S
H498   C508    1.084   .     S
H499   C1027   1.084   .     S
C500   C510    1.407   .     A
C500   C511    1.396   .     A
C501   C502    1.386   .     A
C501   C512    1.403   .     A
C501   H513    1.083   .     S
C502   C1034   1.389   .     S
C502   H1046   1.083   .     S
C503   H514    1.077   .     S
C503   C1033   1.389   1_554 S
C503   C1035   1.415   1_554 S
C504   C505    1.422   .     A
C504   C1034   1.415   .     S
C504   C1037   1.426   .     S
C505   C512    1.418   .     A
C505   C509    1.410   .     A
C506   C510    1.420   .     A
C506   C1035   1.426   1_554 S
C506   C1038   1.423   1_554 S
C507   C508    1.391   .     A
C507   C1027   1.398   .     S
C507   C1037   1.423   .     S
C508   C509    1.383   .     A
C509   H516    1.080   .     S
C510   N529    1.440   .     S
H515   C1033   1.083   1_554 S
C517   H400    1.088   1_655 S
C517   C401    1.335   1_655 S
H520   C401    1.086   1_655 S
C521   C168    1.336   1_565 S
C521   O170    1.388   1_565 S
H523   C168    1.086   1_565 S
C525   H527    1.112   .     S
C525   O170    1.410   1_565 S
C525   H172    1.114   1_565 S
C525   H174    1.109   1_565 S
N529   O530    1.301   .     A
N529   O531    1.301   .     A
Zn532  O536    1.964   .     S
Zn532  O544    1.938   .     S
Zn532  O545    1.929   .     S
Zn532  O538    1.920   .     S
Zn533  O547    1.923   .     S
Zn533  O536    1.951   .     S
Zn533  O539    1.935   .     S
Zn533  O541    1.940   .     S
Zn534  O540    1.931   .     S
Zn534  O543    1.950   .     S
Zn534  O548    1.936   .     S
Zn534  O536    1.931   .     S
Zn535  O546    1.929   .     S
Zn535  O542    1.953   .     S
Zn535  O537    1.932   .     S
Zn535  O536    1.934   .     S
O537   C549    1.273   .     A
O538   C550    1.279   .     A
O539   C551    1.282   .     A
O540   C552    1.269   .     A
O541   C553    1.273   .     A
O542   C554    1.281   .     A
O543   C553    1.268   .     A
O544   C554    1.283   .     A
O545   C551    1.279   .     A
O546   C552    1.273   .     A
O547   C549    1.274   .     A
O548   C550    1.283   .     A
C549   C578    1.437   .     S
C550   C576    1.455   .     S
C551   C581    1.436   .     S
C552   C580    1.459   .     S
C553   C559    1.447   .     S
C554   C571    1.471   .     S
C555   C570    1.385   .     A
H556   C570    1.084   .     S
H557   C567    1.084   .     S
H558   C24     1.084   1_556 S
C559   C569    1.407   .     A
C559   C570    1.396   .     A
C560   C561    1.386   .     A
C560   C571    1.403   .     A
C560   H572    1.083   .     S
C561   C31     1.389   1_556 S
C561   H43     1.083   1_556 S
C562   H573    1.077   .     S
C563   C564    1.422   .     A
C563   C31     1.415   1_556 S
C563   C34     1.426   1_556 S
C564   C571    1.418   .     A
C564   C568    1.410   .     A
C565   C569    1.420   .     A
C566   C567    1.391   .     A
C566   C24     1.398   1_556 S
C566   C34     1.423   1_556 S
C567   C568    1.383   .     A
C568   H575    1.080   .     S
C569   N588    1.440   .     S
C576   H636    1.088   .     S
C576   C637    1.335   .     S
H577   C694    1.088   1_455 S
C578   C694    1.335   1_455 S
C578   H697    1.086   1_455 S
H579   C637    1.086   .     S
C580   C758    1.336   .     S
C580   O760    1.388   .     S
C581   C934    1.336   1_545 S
C581   H936    1.086   1_545 S
H582   C758    1.086   .     S
O583   C934    1.388   1_545 S
O583   C938    1.410   1_545 S
C584   H586    1.112   .     S
C584   O760    1.410   .     S
C584   H762    1.114   .     S
C584   H764    1.109   .     S
H585   C938    1.114   1_545 S
H587   C938    1.109   1_545 S
N588   O589    1.301   .     A
N588   O590    1.301   .     A
Zn591  O595    1.964   .     S
Zn591  O603    1.938   .     S
Zn591  O604    1.929   .     S
Zn591  O597    1.920   .     S
Zn592  O606    1.923   .     S
Zn592  O595    1.951   .     S
Zn592  O598    1.935   .     S
Zn592  O600    1.940   .     S
Zn593  O599    1.931   .     S
Zn593  O602    1.950   .     S
Zn593  O607    1.936   .     S
Zn593  O595    1.931   .     S
Zn594  O605    1.929   .     S
Zn594  O601    1.953   .     S
Zn594  O596    1.932   .     S
Zn594  O595    1.934   .     S
O596   C608    1.273   .     A
O597   C609    1.279   .     A
O598   C610    1.282   .     A
O599   C611    1.269   .     A
O600   C612    1.273   .     A
O601   C613    1.281   .     A
O602   C612    1.268   .     A
O603   C613    1.283   .     A
O604   C610    1.279   .     A
O605   C611    1.273   .     A
O606   C608    1.274   .     A
O607   C609    1.283   .     A
C608   C637    1.437   .     S
C609   C635    1.455   .     S
C610   C640    1.436   .     S
C611   C639    1.459   .     S
C612   C618    1.447   .     S
C613   C630    1.471   .     S
C614   C629    1.385   .     A
H615   C629    1.084   .     S
H616   C626    1.084   .     S
H617   C83     1.084   1_556 S
C618   C628    1.407   .     A
C618   C629    1.396   .     A
C619   C620    1.386   .     A
C619   C630    1.403   .     A
C619   H631    1.083   .     S
C620   C90     1.389   1_556 S
C620   H102    1.083   1_556 S
C621   H632    1.077   .     S
C622   C623    1.422   .     A
C622   C90     1.415   1_556 S
C622   C93     1.426   1_556 S
C623   C630    1.418   .     A
C623   C627    1.410   .     A
C624   C628    1.420   .     A
C625   C626    1.391   .     A
C625   C83     1.398   1_556 S
C625   C93     1.423   1_556 S
C626   C627    1.383   .     A
C627   H634    1.080   .     S
C628   N647    1.440   .     S
C635   H695    1.088   .     S
C635   C696    1.335   .     S
H638   C696    1.086   .     S
C639   C817    1.336   .     S
C639   O819    1.388   .     S
C640   C993    1.336   1_545 S
C640   H995    1.086   1_545 S
H641   C817    1.086   .     S
O642   C993    1.388   1_545 S
O642   C997    1.410   1_545 S
C643   H645    1.112   .     S
C643   O819    1.410   .     S
C643   H821    1.114   .     S
C643   H823    1.109   .     S
H644   C997    1.114   1_545 S
H646   C997    1.109   1_545 S
N647   O648    1.301   .     A
N647   O649    1.301   .     A
Zn650  O654    1.964   .     S
Zn650  O662    1.938   .     S
Zn650  O663    1.929   .     S
Zn650  O656    1.920   .     S
Zn651  O665    1.923   .     S
Zn651  O654    1.951   .     S
Zn651  O657    1.935   .     S
Zn651  O659    1.940   .     S
Zn652  O658    1.931   .     S
Zn652  O661    1.950   .     S
Zn652  O666    1.936   .     S
Zn652  O654    1.931   .     S
Zn653  O664    1.929   .     S
Zn653  O660    1.953   .     S
Zn653  O655    1.932   .     S
Zn653  O654    1.934   .     S
O655   C667    1.273   .     A
O656   C668    1.279   .     A
O657   C669    1.282   .     A
O658   C670    1.269   .     A
O659   C671    1.273   .     A
O660   C672    1.281   .     A
O661   C671    1.268   .     A
O662   C672    1.283   .     A
O663   C669    1.279   .     A
O664   C670    1.273   .     A
O665   C667    1.274   .     A
O666   C668    1.283   .     A
C667   C696    1.437   .     S
C668   C694    1.455   .     S
C669   C699    1.436   .     S
C670   C698    1.459   .     S
C671   C677    1.447   .     S
C672   C689    1.471   .     S
C673   C688    1.385   .     A
H674   C688    1.084   .     S
H675   C685    1.084   .     S
H676   C142    1.084   1_556 S
C677   C687    1.407   .     A
C677   C688    1.396   .     A
C678   C679    1.386   .     A
C678   C689    1.403   .     A
C678   H690    1.083   .     S
C679   C149    1.389   1_556 S
C679   H161    1.083   1_556 S
C680   H691    1.077   .     S
C681   C682    1.422   .     A
C681   C149    1.415   1_556 S
C681   C152    1.426   1_556 S
C682   C689    1.418   .     A
C682   C686    1.410   .     A
C683   C687    1.420   .     A
C684   C685    1.391   .     A
C684   C142    1.398   1_556 S
C684   C152    1.423   1_556 S
C685   C686    1.383   .     A
C686   H693    1.080   .     S
C687   N706    1.440   .     S
C694   H577    1.088   1_655 S
C694   C578    1.335   1_655 S
H697   C578    1.086   1_655 S
C698   C876    1.336   .     S
C698   O878    1.388   .     S
C699   C1052   1.336   1_545 S
C699   H1054   1.086   1_545 S
H700   C876    1.086   .     S
O701   C1052   1.388   1_545 S
O701   C1056   1.410   1_545 S
C702   H704    1.112   .     S
C702   O878    1.410   .     S
C702   H880    1.114   .     S
C702   H882    1.109   .     S
H703   C1056   1.114   1_545 S
H705   C1056   1.109   1_545 S
N706   O707    1.301   .     A
N706   O708    1.301   .     A
Zn709  O713    1.964   .     S
Zn709  O721    1.938   .     S
Zn709  O722    1.929   .     S
Zn709  O715    1.920   .     S
Zn710  O724    1.923   .     S
Zn710  O713    1.951   .     S
Zn710  O716    1.935   .     S
Zn710  O718    1.940   .     S
Zn711  O717    1.931   .     S
Zn711  O720    1.950   .     S
Zn711  O725    1.936   .     S
Zn711  O713    1.931   .     S
Zn712  O723    1.929   .     S
Zn712  O719    1.953   .     S
Zn712  O714    1.932   .     S
Zn712  O713    1.934   .     S
O714   C726    1.273   .     A
O715   C727    1.279   .     A
O716   C728    1.282   .     A
O717   C729    1.269   .     A
O718   C730    1.273   .     A
O719   C731    1.281   .     A
O720   C730    1.268   .     A
O721   C731    1.283   .     A
O722   C728    1.279   .     A
O723   C729    1.273   .     A
O724   C726    1.274   .     A
O725   C727    1.283   .     A
C726   C755    1.437   .     S
C727   C753    1.455   .     S
C728   C758    1.436   .     S
C729   C757    1.459   .     S
C730   C736    1.447   .     S
C731   C748    1.471   .     S
C732   C747    1.385   .     A
H733   C747    1.084   .     S
H734   C744    1.084   .     S
H735   C201    1.084   1_556 S
C736   C746    1.407   .     A
C736   C747    1.396   .     A
C737   C738    1.386   .     A
C737   C748    1.403   .     A
C737   H749    1.083   .     S
C738   C208    1.389   1_556 S
C738   H220    1.083   1_556 S
C739   H750    1.077   .     S
C740   C741    1.422   .     A
C740   C208    1.415   1_556 S
C740   C211    1.426   1_556 S
C741   C748    1.418   .     A
C741   C745    1.410   .     A
C742   C746    1.420   .     A
C743   C744    1.391   .     A
C743   C201    1.398   1_556 S
C743   C211    1.423   1_556 S
C744   C745    1.383   .     A
C745   H752    1.080   .     S
C746   N765    1.440   .     S
C753   H813    1.088   .     S
C753   C814    1.335   .     S
H754   C871    1.088   1_455 S
C755   C871    1.335   1_455 S
C755   H874    1.086   1_455 S
H756   C814    1.086   .     S
C757   C935    1.336   .     S
C757   O937    1.388   .     S
H759   C935    1.086   .     S
C761   H763    1.112   .     S
C761   O937    1.410   .     S
C761   H939    1.114   .     S
C761   H941    1.109   .     S
N765   O766    1.301   .     A
N765   O767    1.301   .     A
Zn768  O772    1.964   .     S
Zn768  O780    1.938   .     S
Zn768  O781    1.929   .     S
Zn768  O774    1.920   .     S
Zn769  O783    1.923   .     S
Zn769  O772    1.951   .     S
Zn769  O775    1.935   .     S
Zn769  O777    1.940   .     S
Zn770  O776    1.931   .     S
Zn770  O779    1.950   .     S
Zn770  O784    1.936   .     S
Zn770  O772    1.931   .     S
Zn771  O782    1.929   .     S
Zn771  O778    1.953   .     S
Zn771  O773    1.932   .     S
Zn771  O772    1.934   .     S
O773   C785    1.273   .     A
O774   C786    1.279   .     A
O775   C787    1.282   .     A
O776   C788    1.269   .     A
O777   C789    1.273   .     A
O778   C790    1.281   .     A
O779   C789    1.268   .     A
O780   C790    1.283   .     A
O781   C787    1.279   .     A
O782   C788    1.273   .     A
O783   C785    1.274   .     A
O784   C786    1.283   .     A
C785   C814    1.437   .     S
C786   C812    1.455   .     S
C787   C817    1.436   .     S
C788   C816    1.459   .     S
C789   C795    1.447   .     S
C790   C807    1.471   .     S
C791   C806    1.385   .     A
H792   C806    1.084   .     S
H793   C803    1.084   .     S
H794   C260    1.084   1_556 S
C795   C805    1.407   .     A
C795   C806    1.396   .     A
C796   C797    1.386   .     A
C796   C807    1.403   .     A
C796   H808    1.083   .     S
C797   C267    1.389   1_556 S
C797   H279    1.083   1_556 S
C798   H809    1.077   .     S
C799   C800    1.422   .     A
C799   C267    1.415   1_556 S
C799   C270    1.426   1_556 S
C800   C807    1.418   .     A
C800   C804    1.410   .     A
C801   C805    1.420   .     A
C802   C803    1.391   .     A
C802   C260    1.398   1_556 S
C802   C270    1.423   1_556 S
C803   C804    1.383   .     A
C804   H811    1.080   .     S
C805   N824    1.440   .     S
C812   H872    1.088   .     S
C812   C873    1.335   .     S
H815   C873    1.086   .     S
C816   C994    1.336   .     S
C816   O996    1.388   .     S
H818   C994    1.086   .     S
C820   H822    1.112   .     S
C820   O996    1.410   .     S
C820   H998    1.114   .     S
C820   H1000   1.109   .     S
N824   O825    1.301   .     A
N824   O826    1.301   .     A
Zn827  O831    1.964   .     S
Zn827  O839    1.938   .     S
Zn827  O840    1.929   .     S
Zn827  O833    1.920   .     S
Zn828  O842    1.923   .     S
Zn828  O831    1.951   .     S
Zn828  O834    1.935   .     S
Zn828  O836    1.940   .     S
Zn829  O835    1.931   .     S
Zn829  O838    1.950   .     S
Zn829  O843    1.936   .     S
Zn829  O831    1.931   .     S
Zn830  O841    1.929   .     S
Zn830  O837    1.953   .     S
Zn830  O832    1.932   .     S
Zn830  O831    1.934   .     S
O832   C844    1.273   .     A
O833   C845    1.279   .     A
O834   C846    1.282   .     A
O835   C847    1.269   .     A
O836   C848    1.273   .     A
O837   C849    1.281   .     A
O838   C848    1.268   .     A
O839   C849    1.283   .     A
O840   C846    1.279   .     A
O841   C847    1.273   .     A
O842   C844    1.274   .     A
O843   C845    1.283   .     A
C844   C873    1.437   .     S
C845   C871    1.455   .     S
C846   C876    1.436   .     S
C847   C875    1.459   .     S
C848   C854    1.447   .     S
C849   C866    1.471   .     S
C850   C865    1.385   .     A
H851   C865    1.084   .     S
H852   C862    1.084   .     S
H853   C319    1.084   1_556 S
C854   C864    1.407   .     A
C854   C865    1.396   .     A
C855   C856    1.386   .     A
C855   C866    1.403   .     A
C855   H867    1.083   .     S
C856   C326    1.389   1_556 S
C856   H338    1.083   1_556 S
C857   H868    1.077   .     S
C858   C859    1.422   .     A
C858   C326    1.415   1_556 S
C858   C329    1.426   1_556 S
C859   C866    1.418   .     A
C859   C863    1.410   .     A
C860   C864    1.420   .     A
C861   C862    1.391   .     A
C861   C319    1.398   1_556 S
C861   C329    1.423   1_556 S
C862   C863    1.383   .     A
C863   H870    1.080   .     S
C864   N883    1.440   .     S
C871   H754    1.088   1_655 S
C871   C755    1.335   1_655 S
H874   C755    1.086   1_655 S
C875   C1053   1.336   .     S
C875   O1055   1.388   .     S
H877   C1053   1.086   .     S
C879   H881    1.112   .     S
C879   O1055   1.410   .     S
C879   H1057   1.114   .     S
C879   H1059   1.109   .     S
N883   O884    1.301   .     A
N883   O885    1.301   .     A
Zn886  O890    1.964   .     S
Zn886  O898    1.938   .     S
Zn886  O899    1.929   .     S
Zn886  O892    1.920   .     S
Zn887  O901    1.923   .     S
Zn887  O890    1.951   .     S
Zn887  O893    1.935   .     S
Zn887  O895    1.940   .     S
Zn888  O894    1.931   .     S
Zn888  O897    1.950   .     S
Zn888  O902    1.936   .     S
Zn888  O890    1.931   .     S
Zn889  O900    1.929   .     S
Zn889  O896    1.953   .     S
Zn889  O891    1.932   .     S
Zn889  O890    1.934   .     S
O891   C903    1.273   .     A
O892   C904    1.279   .     A
O893   C905    1.282   .     A
O894   C906    1.269   .     A
O895   C907    1.273   .     A
O896   C908    1.281   .     A
O897   C907    1.268   .     A
O898   C908    1.283   .     A
O899   C905    1.279   .     A
O900   C906    1.273   .     A
O901   C903    1.274   .     A
O902   C904    1.283   .     A
C903   C932    1.437   .     S
C904   C930    1.455   .     S
C905   C935    1.436   .     S
C906   C934    1.459   .     S
C907   C913    1.447   .     S
C908   C925    1.471   .     S
C909   C924    1.385   .     A
H910   C924    1.084   .     S
H911   C921    1.084   .     S
H912   C378    1.084   1_556 S
C913   C923    1.407   .     A
C913   C924    1.396   .     A
C914   C915    1.386   .     A
C914   C925    1.403   .     A
C914   H926    1.083   .     S
C915   C385    1.389   1_556 S
C915   H397    1.083   1_556 S
C916   H927    1.077   .     S
C917   C918    1.422   .     A
C917   C385    1.415   1_556 S
C917   C388    1.426   1_556 S
C918   C925    1.418   .     A
C918   C922    1.410   .     A
C919   C923    1.420   .     A
C920   C921    1.391   .     A
C920   C378    1.398   1_556 S
C920   C388    1.423   1_556 S
C921   C922    1.383   .     A
C922   H929    1.080   .     S
C923   N942    1.440   .     S
C930   H990    1.088   .     S
C930   C991    1.335   .     S
H931   C1048   1.088   1_455 S
C932   C1048   1.335   1_455 S
C932   H1051   1.086   1_455 S
H933   C991    1.086   .     S
C934   C581    1.336   1_565 S
C934   O583    1.388   1_565 S
H936   C581    1.086   1_565 S
C938   H940    1.112   .     S
C938   O583    1.410   1_565 S
C938   H585    1.114   1_565 S
C938   H587    1.109   1_565 S
N942   O943    1.301   .     A
N942   O944    1.301   .     A
Zn945  O949    1.964   .     S
Zn945  O957    1.938   .     S
Zn945  O958    1.929   .     S
Zn945  O951    1.920   .     S
Zn946  O960    1.923   .     S
Zn946  O949    1.951   .     S
Zn946  O952    1.935   .     S
Zn946  O954    1.940   .     S
Zn947  O953    1.931   .     S
Zn947  O956    1.950   .     S
Zn947  O961    1.936   .     S
Zn947  O949    1.931   .     S
Zn948  O959    1.929   .     S
Zn948  O955    1.953   .     S
Zn948  O950    1.932   .     S
Zn948  O949    1.934   .     S
O950   C962    1.273   .     A
O951   C963    1.279   .     A
O952   C964    1.282   .     A
O953   C965    1.269   .     A
O954   C966    1.273   .     A
O955   C967    1.281   .     A
O956   C966    1.268   .     A
O957   C967    1.283   .     A
O958   C964    1.279   .     A
O959   C965    1.273   .     A
O960   C962    1.274   .     A
O961   C963    1.283   .     A
C962   C991    1.437   .     S
C963   C989    1.455   .     S
C964   C994    1.436   .     S
C965   C993    1.459   .     S
C966   C972    1.447   .     S
C967   C984    1.471   .     S
C968   C983    1.385   .     A
H969   C983    1.084   .     S
H970   C980    1.084   .     S
H971   C437    1.084   1_556 S
C972   C982    1.407   .     A
C972   C983    1.396   .     A
C973   C974    1.386   .     A
C973   C984    1.403   .     A
C973   H985    1.083   .     S
C974   C444    1.389   1_556 S
C974   H456    1.083   1_556 S
C975   H986    1.077   .     S
C976   C977    1.422   .     A
C976   C444    1.415   1_556 S
C976   C447    1.426   1_556 S
C977   C984    1.418   .     A
C977   C981    1.410   .     A
C978   C982    1.420   .     A
C979   C980    1.391   .     A
C979   C437    1.398   1_556 S
C979   C447    1.423   1_556 S
C980   C981    1.383   .     A
C981   H988    1.080   .     S
C982   N1001   1.440   .     S
C989   H1049   1.088   .     S
C989   C1050   1.335   .     S
H992   C1050   1.086   .     S
C993   C640    1.336   1_565 S
C993   O642    1.388   1_565 S
H995   C640    1.086   1_565 S
C997   H999    1.112   .     S
C997   O642    1.410   1_565 S
C997   H644    1.114   1_565 S
C997   H646    1.109   1_565 S
N1001  O1002   1.301   .     A
N1001  O1003   1.301   .     A
Zn1004 O1008   1.964   .     S
Zn1004 O1016   1.938   .     S
Zn1004 O1017   1.929   .     S
Zn1004 O1010   1.920   .     S
Zn1005 O1019   1.923   .     S
Zn1005 O1008   1.951   .     S
Zn1005 O1011   1.935   .     S
Zn1005 O1013   1.940   .     S
Zn1006 O1012   1.931   .     S
Zn1006 O1015   1.950   .     S
Zn1006 O1020   1.936   .     S
Zn1006 O1008   1.931   .     S
Zn1007 O1018   1.929   .     S
Zn1007 O1014   1.953   .     S
Zn1007 O1009   1.932   .     S
Zn1007 O1008   1.934   .     S
O1009  C1021   1.273   .     A
O1010  C1022   1.279   .     A
O1011  C1023   1.282   .     A
O1012  C1024   1.269   .     A
O1013  C1025   1.273   .     A
O1014  C1026   1.281   .     A
O1015  C1025   1.268   .     A
O1016  C1026   1.283   .     A
O1017  C1023   1.279   .     A
O1018  C1024   1.273   .     A
O1019  C1021   1.274   .     A
O1020  C1022   1.283   .     A
C1021  C1050   1.437   .     S
C1022  C1048   1.455   .     S
C1023  C1053   1.436   .     S
C1024  C1052   1.459   .     S
C1025  C1031   1.447   .     S
C1026  C1043   1.471   .     S
C1027  C1042   1.385   .     A
H1028  C1042   1.084   .     S
H1029  C1039   1.084   .     S
H1030  C496    1.084   1_556 S
C1031  C1041   1.407   .     A
C1031  C1042   1.396   .     A
C1032  C1033   1.386   .     A
C1032  C1043   1.403   .     A
C1032  H1044   1.083   .     S
C1033  C503    1.389   1_556 S
C1033  H515    1.083   1_556 S
C1034  H1045   1.077   .     S
C1035  C1036   1.422   .     A
C1035  C503    1.415   1_556 S
C1035  C506    1.426   1_556 S
C1036  C1043   1.418   .     A
C1036  C1040   1.410   .     A
C1037  C1041   1.420   .     A
C1038  C1039   1.391   .     A
C1038  C496    1.398   1_556 S
C1038  C506    1.423   1_556 S
C1039  C1040   1.383   .     A
C1040  H1047   1.080   .     S
C1041  N1060   1.440   .     S
C1048  H931    1.088   1_655 S
C1048  C932    1.335   1_655 S
H1051  C932    1.086   1_655 S
C1052  C699    1.336   1_565 S
C1052  O701    1.388   1_565 S
H1054  C699    1.086   1_565 S
C1056  H1058   1.112   .     S
C1056  O701    1.410   1_565 S
C1056  H703    1.114   1_565 S
C1056  H705    1.109   1_565 S
N1060  O1061   1.301   .     A
N1060  O1062   1.301   .     A
