data_str_m1_o10_o18_pcu_sym.79
_audit_creation_date              2020-01-03
_audit_creation_method            'Materials Studio'
_symmetry_space_group_name_H-M    'P1'
_symmetry_Int_Tables_number       1
_symmetry_cell_setting            triclinic
loop_
_symmetry_equiv_pos_as_xyz
  x,y,z
_cell_length_a                    32.7492
_cell_length_b                    32.7424
_cell_length_c                    35.3013
_cell_angle_alpha                 97.8695
_cell_angle_beta                  73.1359
_cell_angle_gamma                 98.7092
loop_
_atom_site_label
_atom_site_type_symbol
_atom_site_fract_x
_atom_site_fract_y
_atom_site_fract_z
_atom_site_U_iso_or_equiv
_atom_site_adp_type
_atom_site_occupancy
C1     C     0.05291   0.15977   0.25845   0.00000  Uiso   1.00
C2     C     0.19315   0.12424   0.45852   0.00000  Uiso   1.00
C3     C     0.21558   0.10507   0.47758   0.00000  Uiso   1.00
C4     C     0.28112   0.17349   0.24117   0.00000  Uiso   1.00
C5     C     0.20812   0.11166   0.01909   0.00000  Uiso   1.00
C6     C     0.17488   0.13574   0.04120   0.00000  Uiso   1.00
C7     C     0.23372   0.09581   0.03881   0.00000  Uiso   1.00
C8     C     0.22862   0.10762   0.07999   0.00000  Uiso   1.00
C9     C     0.17218   0.14876   0.08127   0.00000  Uiso   1.00
C10    C     0.32675   0.17919   0.23989   0.00000  Uiso   1.00
C11    C     0.00812   0.15556   0.26083   0.00000  Uiso   1.00
C12    C     0.09561   0.20916   0.42119   0.00000  Uiso   1.00
C13    C     0.18006   0.32210   0.23713   0.00000  Uiso   1.00
C14    C     0.15277   0.01318   0.26391   0.00000  Uiso   1.00
C15    C     0.15594   0.05643   0.25927   0.00000  Uiso   1.00
C16    C     0.17679   0.27767   0.24120   0.00000  Uiso   1.00
C17    C     0.18833   0.14520   0.14381   0.00000  Uiso   1.00
C18    C     0.14602   0.18810   0.35628   0.00000  Uiso   1.00
C19    C     0.13449   0.19420   0.40021   0.00000  Uiso   1.00
C20    C     0.19814   0.13494   0.10064   0.00000  Uiso   1.00
C21    C     0.08070   0.20934   0.46260   0.00000  Uiso   1.00
C22    C     0.03282   0.17285   0.03890   0.00000  Uiso   1.00
C23    C     0.16077   0.18363   0.42175   0.00000  Uiso   1.00
C24    C     0.26576   0.06711   0.01667   0.00000  Uiso   1.00
C25    C     0.02185   0.21287   0.21656   0.00000  Uiso   1.00
C26    C     0.31735   0.11753   0.27903   0.00000  Uiso   1.00
C27    C     0.21348   0.00573   0.20232   0.00000  Uiso   1.00
C28    C     0.12433   0.00118   0.30289   0.00000  Uiso   1.00
C29    C     0.25393   0.09037   0.10167   0.00000  Uiso   1.00
C30    C     0.04732   0.23674   0.48439   0.00000  Uiso   1.00
C31    C     0.20862   0.19327   0.40713   0.00000  Uiso   1.00
C32    C     0.08173   0.14064   0.08065   0.00000  Uiso   1.00
C33    C     0.14112   0.17267   0.46119   0.00000  Uiso   1.00
C34    C     0.10036   0.18596   0.48227   0.00000  Uiso   1.00
C35    C     0.16118   0.14939   0.48024   0.00000  Uiso   1.00
C36    C     0.14699   0.14871   0.02189   0.00000  Uiso   1.00
C37    C     0.10435   0.15753   0.04195   0.00000  Uiso   1.00
C38    C     0.08025   0.17417   0.02144   0.00000  Uiso   1.00
H39    H     0.15034   0.17078   0.09785   0.00000  Uiso   1.00
H40    H     0.11878   0.31197   0.35480   0.00000  Uiso   1.00
H41    H     0.27825   0.04035   0.11020   0.00000  Uiso   1.00
H42    H     0.04320   0.24675   0.01571   0.00000  Uiso   1.00
H43    H     0.22880   0.19093   0.42605   0.00000  Uiso   1.00
H44    H     0.04812   0.15163   0.13788   0.00000  Uiso   1.00
H45    H     0.24046   0.08712   0.45902   0.00000  Uiso   1.00
H46    H     0.07760   0.22215   0.40535   0.00000  Uiso   1.00
H47    H     0.20063   0.11859   0.42646   0.00000  Uiso   1.00
H48    H     0.01920   0.18090   0.07040   0.00000  Uiso   1.00
H49    H     0.32677   0.05356   0.00284   0.00000  Uiso   1.00
H50    H     0.07082   0.25921   0.21203   0.00000  Uiso   1.00
H51    H     0.31915   0.11201   0.30810   0.00000  Uiso   1.00
H52    H     0.25901   0.05241   0.18140   0.00000  Uiso   1.00
O53    O     0.16667   0.16667   0.25000   0.00000  Uiso   1.00
O54    O     0.15693   0.12393   0.16625   0.00000  Uiso   1.00
O55    O     0.12687   0.20646   0.33749   0.00000  Uiso   1.00
O56    O     0.21088   0.17493   0.15877   0.00000  Uiso   1.00
O57    O     0.17198   0.16135   0.33749   0.00000  Uiso   1.00
O58    O     0.00835   0.16140   0.01819   0.00000  Uiso   1.00
O59    O     0.25471   0.03568   0.49730   0.00000  Uiso   1.00
O60    O     0.30820   0.07552   0.01884   0.00000  Uiso   1.00
O61    O     0.01601   0.21969   0.18543   0.00000  Uiso   1.00
O62    O     0.05420   0.23757   0.23053   0.00000  Uiso   1.00
O63    O     0.29851   0.09073   0.26049   0.00000  Uiso   1.00
O64    O     0.17849   0.08101   0.27820   0.00000  Uiso   1.00
O65    O     0.22140   0.31831   0.17007   0.00000  Uiso   1.00
O66    O     0.23661   0.04483   0.20675   0.00000  Uiso   1.00
O67    O     0.08662   0.00745   0.31281   0.00000  Uiso   1.00
O68    O     0.14124   0.31843   0.32908   0.00000  Uiso   1.00
O69    O     0.27055   0.11310   0.12495   0.00000  Uiso   1.00
O70    O     0.25889   0.04807   0.09520   0.00000  Uiso   1.00
O71    O     0.02467   0.24924   0.46744   0.00000  Uiso   1.00
O72    O     0.22610   0.20681   0.37507   0.00000  Uiso   1.00
O73    O     0.08109   0.10382   0.08392   0.00000  Uiso   1.00
O74    O     0.06204   0.16689   0.11335   0.00000  Uiso   1.00
O75    O     0.14581   0.26136   0.26767   0.00000  Uiso   1.00
O76    O     0.07452   0.13251   0.23607   0.00000  Uiso   1.00
O77    O     0.26785   0.19179   0.21805   0.00000  Uiso   1.00
O78    O     0.06990   0.18960   0.27820   0.00000  Uiso   1.00
O79    O     0.25440   0.15277   0.26767   0.00000  Uiso   1.00
O80    O     0.13800   0.06903   0.23607   0.00000  Uiso   1.00
O81    O     0.20437   0.25527   0.21805   0.00000  Uiso   1.00
Zn82   Zn    0.19244   0.14090   0.28277   0.00000  Uiso   1.00
Zn83   Zn    0.13459   0.12378   0.22257   0.00000  Uiso   1.00
Zn84   Zn    0.21166   0.19664   0.21188   0.00000  Uiso   1.00
Zn85   Zn    0.12798   0.20535   0.28277   0.00000  Uiso   1.00
C86    C     0.38624   0.15977   0.25845   0.00000  Uiso   1.00
C87    C     0.52649   0.12424   0.45852   0.00000  Uiso   1.00
C88    C     0.54892   0.10507   0.47758   0.00000  Uiso   1.00
C89    C     0.61445   0.17349   0.24117   0.00000  Uiso   1.00
C90    C     0.54145   0.11166   0.01909   0.00000  Uiso   1.00
C91    C     0.50821   0.13574   0.04120   0.00000  Uiso   1.00
C92    C     0.56706   0.09581   0.03881   0.00000  Uiso   1.00
C93    C     0.56196   0.10762   0.07999   0.00000  Uiso   1.00
C94    C     0.50551   0.14876   0.08127   0.00000  Uiso   1.00
C95    C     0.66008   0.17919   0.23989   0.00000  Uiso   1.00
C96    C     0.34145   0.15556   0.26083   0.00000  Uiso   1.00
C97    C     0.42894   0.20916   0.42119   0.00000  Uiso   1.00
C98    C     0.51340   0.32210   0.23713   0.00000  Uiso   1.00
C99    C     0.48610   0.01318   0.26391   0.00000  Uiso   1.00
C100   C     0.48928   0.05643   0.25927   0.00000  Uiso   1.00
C101   C     0.51013   0.27767   0.24120   0.00000  Uiso   1.00
C102   C     0.52166   0.14520   0.14381   0.00000  Uiso   1.00
C103   C     0.47935   0.18810   0.35628   0.00000  Uiso   1.00
C104   C     0.46782   0.19420   0.40021   0.00000  Uiso   1.00
C105   C     0.53147   0.13494   0.10064   0.00000  Uiso   1.00
C106   C     0.41404   0.20934   0.46260   0.00000  Uiso   1.00
C107   C     0.36615   0.17285   0.03890   0.00000  Uiso   1.00
C108   C     0.49410   0.18363   0.42175   0.00000  Uiso   1.00
C109   C     0.59909   0.06711   0.01667   0.00000  Uiso   1.00
C110   C     0.35518   0.21287   0.21656   0.00000  Uiso   1.00
C111   C     0.65069   0.11753   0.27903   0.00000  Uiso   1.00
C112   C     0.54682   0.00573   0.20232   0.00000  Uiso   1.00
C113   C     0.45766   0.00118   0.30289   0.00000  Uiso   1.00
C114   C     0.58726   0.09037   0.10167   0.00000  Uiso   1.00
C115   C     0.38066   0.23674   0.48439   0.00000  Uiso   1.00
C116   C     0.54195   0.19327   0.40713   0.00000  Uiso   1.00
C117   C     0.41507   0.14064   0.08065   0.00000  Uiso   1.00
C118   C     0.47445   0.17267   0.46119   0.00000  Uiso   1.00
C119   C     0.43370   0.18596   0.48227   0.00000  Uiso   1.00
C120   C     0.49451   0.14939   0.48024   0.00000  Uiso   1.00
C121   C     0.48032   0.14871   0.02189   0.00000  Uiso   1.00
C122   C     0.43768   0.15753   0.04195   0.00000  Uiso   1.00
C123   C     0.41359   0.17417   0.02144   0.00000  Uiso   1.00
H124   H     0.48367   0.17078   0.09785   0.00000  Uiso   1.00
H125   H     0.45212   0.31197   0.35480   0.00000  Uiso   1.00
H126   H     0.61159   0.04035   0.11020   0.00000  Uiso   1.00
H127   H     0.37654   0.24675   0.01571   0.00000  Uiso   1.00
H128   H     0.56214   0.19093   0.42605   0.00000  Uiso   1.00
H129   H     0.38145   0.15163   0.13788   0.00000  Uiso   1.00
H130   H     0.57379   0.08712   0.45902   0.00000  Uiso   1.00
H131   H     0.41093   0.22215   0.40535   0.00000  Uiso   1.00
H132   H     0.53397   0.11859   0.42646   0.00000  Uiso   1.00
H133   H     0.35254   0.18090   0.07040   0.00000  Uiso   1.00
H134   H     0.66010   0.05356   0.00284   0.00000  Uiso   1.00
H135   H     0.40416   0.25921   0.21203   0.00000  Uiso   1.00
H136   H     0.65248   0.11201   0.30810   0.00000  Uiso   1.00
H137   H     0.59234   0.05241   0.18140   0.00000  Uiso   1.00
O138   O     0.50000   0.16667   0.25000   0.00000  Uiso   1.00
O139   O     0.49027   0.12393   0.16625   0.00000  Uiso   1.00
O140   O     0.46020   0.20646   0.33749   0.00000  Uiso   1.00
O141   O     0.54421   0.17493   0.15877   0.00000  Uiso   1.00
O142   O     0.50532   0.16135   0.33749   0.00000  Uiso   1.00
O143   O     0.34169   0.16140   0.01819   0.00000  Uiso   1.00
O144   O     0.58804   0.03568   0.49730   0.00000  Uiso   1.00
O145   O     0.64154   0.07552   0.01884   0.00000  Uiso   1.00
O146   O     0.34935   0.21969   0.18543   0.00000  Uiso   1.00
O147   O     0.38753   0.23757   0.23053   0.00000  Uiso   1.00
O148   O     0.63184   0.09073   0.26049   0.00000  Uiso   1.00
O149   O     0.51182   0.08101   0.27820   0.00000  Uiso   1.00
O150   O     0.55474   0.31831   0.17007   0.00000  Uiso   1.00
O151   O     0.56994   0.04483   0.20675   0.00000  Uiso   1.00
O152   O     0.41996   0.00745   0.31281   0.00000  Uiso   1.00
O153   O     0.47457   0.31843   0.32908   0.00000  Uiso   1.00
O154   O     0.60389   0.11310   0.12495   0.00000  Uiso   1.00
O155   O     0.59223   0.04807   0.09520   0.00000  Uiso   1.00
O156   O     0.35801   0.24924   0.46744   0.00000  Uiso   1.00
O157   O     0.55944   0.20681   0.37507   0.00000  Uiso   1.00
O158   O     0.41443   0.10382   0.08392   0.00000  Uiso   1.00
O159   O     0.39537   0.16689   0.11335   0.00000  Uiso   1.00
O160   O     0.47914   0.26136   0.26767   0.00000  Uiso   1.00
O161   O     0.40785   0.13251   0.23607   0.00000  Uiso   1.00
O162   O     0.60119   0.19179   0.21805   0.00000  Uiso   1.00
O163   O     0.40323   0.18960   0.27820   0.00000  Uiso   1.00
O164   O     0.58773   0.15277   0.26767   0.00000  Uiso   1.00
O165   O     0.47133   0.06903   0.23607   0.00000  Uiso   1.00
O166   O     0.53771   0.25527   0.21805   0.00000  Uiso   1.00
Zn167  Zn    0.52577   0.14090   0.28277   0.00000  Uiso   1.00
Zn168  Zn    0.46792   0.12378   0.22257   0.00000  Uiso   1.00
Zn169  Zn    0.54500   0.19664   0.21188   0.00000  Uiso   1.00
Zn170  Zn    0.46131   0.20535   0.28277   0.00000  Uiso   1.00
C171   C     0.71957   0.15977   0.25845   0.00000  Uiso   1.00
C172   C     0.85982   0.12424   0.45852   0.00000  Uiso   1.00
C173   C     0.88225   0.10507   0.47758   0.00000  Uiso   1.00
C174   C     0.94778   0.17349   0.24117   0.00000  Uiso   1.00
C175   C     0.87478   0.11166   0.01909   0.00000  Uiso   1.00
C176   C     0.84155   0.13574   0.04120   0.00000  Uiso   1.00
C177   C     0.90039   0.09581   0.03881   0.00000  Uiso   1.00
C178   C     0.89529   0.10762   0.07999   0.00000  Uiso   1.00
C179   C     0.83884   0.14876   0.08127   0.00000  Uiso   1.00
C180   C     0.99341   0.17919   0.23989   0.00000  Uiso   1.00
C181   C     0.67478   0.15556   0.26083   0.00000  Uiso   1.00
C182   C     0.76228   0.20916   0.42119   0.00000  Uiso   1.00
C183   C     0.84673   0.32210   0.23713   0.00000  Uiso   1.00
C184   C     0.81944   0.01318   0.26391   0.00000  Uiso   1.00
C185   C     0.82261   0.05643   0.25927   0.00000  Uiso   1.00
C186   C     0.84346   0.27767   0.24120   0.00000  Uiso   1.00
C187   C     0.85500   0.14520   0.14381   0.00000  Uiso   1.00
C188   C     0.81268   0.18810   0.35628   0.00000  Uiso   1.00
C189   C     0.80115   0.19420   0.40021   0.00000  Uiso   1.00
C190   C     0.86480   0.13494   0.10064   0.00000  Uiso   1.00
C191   C     0.74737   0.20934   0.46260   0.00000  Uiso   1.00
C192   C     0.69949   0.17285   0.03890   0.00000  Uiso   1.00
C193   C     0.82744   0.18363   0.42175   0.00000  Uiso   1.00
C194   C     0.93243   0.06711   0.01667   0.00000  Uiso   1.00
C195   C     0.68851   0.21287   0.21656   0.00000  Uiso   1.00
C196   C     0.98402   0.11753   0.27903   0.00000  Uiso   1.00
C197   C     0.88015   0.00573   0.20232   0.00000  Uiso   1.00
C198   C     0.79099   0.00118   0.30289   0.00000  Uiso   1.00
C199   C     0.92059   0.09037   0.10167   0.00000  Uiso   1.00
C200   C     0.71399   0.23674   0.48439   0.00000  Uiso   1.00
C201   C     0.87528   0.19327   0.40713   0.00000  Uiso   1.00
C202   C     0.74840   0.14064   0.08065   0.00000  Uiso   1.00
C203   C     0.80778   0.17267   0.46119   0.00000  Uiso   1.00
C204   C     0.76703   0.18596   0.48227   0.00000  Uiso   1.00
C205   C     0.82785   0.14939   0.48024   0.00000  Uiso   1.00
C206   C     0.81365   0.14871   0.02189   0.00000  Uiso   1.00
C207   C     0.77101   0.15753   0.04195   0.00000  Uiso   1.00
C208   C     0.74692   0.17417   0.02144   0.00000  Uiso   1.00
H209   H     0.81701   0.17078   0.09785   0.00000  Uiso   1.00
H210   H     0.78545   0.31197   0.35480   0.00000  Uiso   1.00
H211   H     0.94492   0.04035   0.11020   0.00000  Uiso   1.00
H212   H     0.70987   0.24675   0.01571   0.00000  Uiso   1.00
H213   H     0.89547   0.19093   0.42605   0.00000  Uiso   1.00
H214   H     0.71478   0.15163   0.13788   0.00000  Uiso   1.00
H215   H     0.90712   0.08712   0.45902   0.00000  Uiso   1.00
H216   H     0.74427   0.22215   0.40535   0.00000  Uiso   1.00
H217   H     0.86730   0.11859   0.42646   0.00000  Uiso   1.00
H218   H     0.68587   0.18090   0.07040   0.00000  Uiso   1.00
H219   H     0.99344   0.05356   0.00284   0.00000  Uiso   1.00
H220   H     0.73749   0.25921   0.21203   0.00000  Uiso   1.00
H221   H     0.98582   0.11201   0.30810   0.00000  Uiso   1.00
H222   H     0.92568   0.05241   0.18140   0.00000  Uiso   1.00
O223   O     0.83333   0.16667   0.25000   0.00000  Uiso   1.00
O224   O     0.82360   0.12393   0.16625   0.00000  Uiso   1.00
O225   O     0.79354   0.20646   0.33749   0.00000  Uiso   1.00
O226   O     0.87755   0.17493   0.15877   0.00000  Uiso   1.00
O227   O     0.83865   0.16135   0.33749   0.00000  Uiso   1.00
O228   O     0.67502   0.16140   0.01819   0.00000  Uiso   1.00
O229   O     0.92138   0.03568   0.49730   0.00000  Uiso   1.00
O230   O     0.97487   0.07552   0.01884   0.00000  Uiso   1.00
O231   O     0.68268   0.21969   0.18543   0.00000  Uiso   1.00
O232   O     0.72087   0.23757   0.23053   0.00000  Uiso   1.00
O233   O     0.96518   0.09073   0.26049   0.00000  Uiso   1.00
O234   O     0.84515   0.08101   0.27820   0.00000  Uiso   1.00
O235   O     0.88807   0.31831   0.17007   0.00000  Uiso   1.00
O236   O     0.90328   0.04483   0.20675   0.00000  Uiso   1.00
O237   O     0.75329   0.00745   0.31281   0.00000  Uiso   1.00
O238   O     0.80790   0.31843   0.32908   0.00000  Uiso   1.00
O239   O     0.93722   0.11310   0.12495   0.00000  Uiso   1.00
O240   O     0.92556   0.04807   0.09520   0.00000  Uiso   1.00
O241   O     0.69134   0.24924   0.46744   0.00000  Uiso   1.00
O242   O     0.89277   0.20681   0.37507   0.00000  Uiso   1.00
O243   O     0.74776   0.10382   0.08392   0.00000  Uiso   1.00
O244   O     0.72871   0.16689   0.11335   0.00000  Uiso   1.00
O245   O     0.81247   0.26136   0.26767   0.00000  Uiso   1.00
O246   O     0.74119   0.13251   0.23607   0.00000  Uiso   1.00
O247   O     0.93452   0.19179   0.21805   0.00000  Uiso   1.00
O248   O     0.73656   0.18960   0.27820   0.00000  Uiso   1.00
O249   O     0.92106   0.15277   0.26767   0.00000  Uiso   1.00
O250   O     0.80467   0.06903   0.23607   0.00000  Uiso   1.00
O251   O     0.87104   0.25527   0.21805   0.00000  Uiso   1.00
Zn252  Zn    0.85910   0.14090   0.28277   0.00000  Uiso   1.00
Zn253  Zn    0.80125   0.12378   0.22257   0.00000  Uiso   1.00
Zn254  Zn    0.87833   0.19664   0.21188   0.00000  Uiso   1.00
Zn255  Zn    0.79465   0.20535   0.28277   0.00000  Uiso   1.00
C256   C     0.05291   0.49310   0.25845   0.00000  Uiso   1.00
C257   C     0.19315   0.45758   0.45852   0.00000  Uiso   1.00
C258   C     0.21558   0.43840   0.47758   0.00000  Uiso   1.00
C259   C     0.28112   0.50683   0.24117   0.00000  Uiso   1.00
C260   C     0.20812   0.44499   0.01909   0.00000  Uiso   1.00
C261   C     0.17488   0.46908   0.04120   0.00000  Uiso   1.00
C262   C     0.23372   0.42914   0.03881   0.00000  Uiso   1.00
C263   C     0.22862   0.44095   0.07999   0.00000  Uiso   1.00
C264   C     0.17218   0.48210   0.08127   0.00000  Uiso   1.00
C265   C     0.32675   0.51253   0.23989   0.00000  Uiso   1.00
C266   C     0.00812   0.48889   0.26083   0.00000  Uiso   1.00
C267   C     0.09561   0.54250   0.42119   0.00000  Uiso   1.00
C268   C     0.18006   0.65543   0.23713   0.00000  Uiso   1.00
C269   C     0.15277   0.34651   0.26391   0.00000  Uiso   1.00
C270   C     0.15594   0.38977   0.25927   0.00000  Uiso   1.00
C271   C     0.17679   0.61100   0.24120   0.00000  Uiso   1.00
C272   C     0.18833   0.47854   0.14381   0.00000  Uiso   1.00
C273   C     0.14602   0.52143   0.35628   0.00000  Uiso   1.00
C274   C     0.13449   0.52754   0.40021   0.00000  Uiso   1.00
C275   C     0.19814   0.46827   0.10064   0.00000  Uiso   1.00
C276   C     0.08070   0.54267   0.46260   0.00000  Uiso   1.00
C277   C     0.03282   0.50618   0.03890   0.00000  Uiso   1.00
C278   C     0.16077   0.51696   0.42175   0.00000  Uiso   1.00
C279   C     0.26576   0.40045   0.01667   0.00000  Uiso   1.00
C280   C     0.02185   0.54620   0.21656   0.00000  Uiso   1.00
C281   C     0.31735   0.45086   0.27903   0.00000  Uiso   1.00
C282   C     0.21348   0.33906   0.20232   0.00000  Uiso   1.00
C283   C     0.12433   0.33452   0.30289   0.00000  Uiso   1.00
C284   C     0.25393   0.42370   0.10167   0.00000  Uiso   1.00
C285   C     0.04732   0.57007   0.48439   0.00000  Uiso   1.00
C286   C     0.20862   0.52660   0.40713   0.00000  Uiso   1.00
C287   C     0.08173   0.47398   0.08065   0.00000  Uiso   1.00
C288   C     0.14112   0.50601   0.46119   0.00000  Uiso   1.00
C289   C     0.10036   0.51929   0.48227   0.00000  Uiso   1.00
C290   C     0.16118   0.48272   0.48024   0.00000  Uiso   1.00
C291   C     0.14699   0.48205   0.02189   0.00000  Uiso   1.00
C292   C     0.10435   0.49086   0.04195   0.00000  Uiso   1.00
C293   C     0.08025   0.50750   0.02144   0.00000  Uiso   1.00
H294   H     0.15034   0.50411   0.09785   0.00000  Uiso   1.00
H295   H     0.11878   0.64531   0.35480   0.00000  Uiso   1.00
H296   H     0.27825   0.37368   0.11020   0.00000  Uiso   1.00
H297   H     0.04320   0.58009   0.01571   0.00000  Uiso   1.00
H298   H     0.22880   0.52426   0.42605   0.00000  Uiso   1.00
H299   H     0.04812   0.48497   0.13788   0.00000  Uiso   1.00
H300   H     0.24046   0.42045   0.45902   0.00000  Uiso   1.00
H301   H     0.07760   0.55548   0.40535   0.00000  Uiso   1.00
H302   H     0.20063   0.45192   0.42646   0.00000  Uiso   1.00
H303   H     0.01920   0.51424   0.07040   0.00000  Uiso   1.00
H304   H     0.32677   0.38690   0.00284   0.00000  Uiso   1.00
H305   H     0.07082   0.59254   0.21203   0.00000  Uiso   1.00
H306   H     0.31915   0.44535   0.30810   0.00000  Uiso   1.00
H307   H     0.25901   0.38574   0.18140   0.00000  Uiso   1.00
O308   O     0.16667   0.50000   0.25000   0.00000  Uiso   1.00
O309   O     0.15693   0.45726   0.16625   0.00000  Uiso   1.00
O310   O     0.12687   0.53979   0.33749   0.00000  Uiso   1.00
O311   O     0.21088   0.50826   0.15877   0.00000  Uiso   1.00
O312   O     0.17198   0.49468   0.33749   0.00000  Uiso   1.00
O313   O     0.00835   0.49473   0.01819   0.00000  Uiso   1.00
O314   O     0.25471   0.36901   0.49730   0.00000  Uiso   1.00
O315   O     0.30820   0.40885   0.01884   0.00000  Uiso   1.00
O316   O     0.01601   0.55303   0.18543   0.00000  Uiso   1.00
O317   O     0.05420   0.57091   0.23053   0.00000  Uiso   1.00
O318   O     0.29851   0.42406   0.26049   0.00000  Uiso   1.00
O319   O     0.17849   0.41434   0.27820   0.00000  Uiso   1.00
O320   O     0.22140   0.65164   0.17007   0.00000  Uiso   1.00
O321   O     0.23661   0.37816   0.20675   0.00000  Uiso   1.00
O322   O     0.08662   0.34078   0.31281   0.00000  Uiso   1.00
O323   O     0.14124   0.65177   0.32908   0.00000  Uiso   1.00
O324   O     0.27055   0.44643   0.12495   0.00000  Uiso   1.00
O325   O     0.25889   0.38141   0.09520   0.00000  Uiso   1.00
O326   O     0.02467   0.58257   0.46744   0.00000  Uiso   1.00
O327   O     0.22610   0.54015   0.37507   0.00000  Uiso   1.00
O328   O     0.08109   0.43715   0.08392   0.00000  Uiso   1.00
O329   O     0.06204   0.50023   0.11335   0.00000  Uiso   1.00
O330   O     0.14581   0.59469   0.26767   0.00000  Uiso   1.00
O331   O     0.07452   0.46584   0.23607   0.00000  Uiso   1.00
O332   O     0.26785   0.52512   0.21805   0.00000  Uiso   1.00
O333   O     0.06990   0.52293   0.27820   0.00000  Uiso   1.00
O334   O     0.25440   0.48610   0.26767   0.00000  Uiso   1.00
O335   O     0.13800   0.40236   0.23607   0.00000  Uiso   1.00
O336   O     0.20437   0.58860   0.21805   0.00000  Uiso   1.00
Zn337  Zn    0.19244   0.47423   0.28277   0.00000  Uiso   1.00
Zn338  Zn    0.13459   0.45711   0.22257   0.00000  Uiso   1.00
Zn339  Zn    0.21166   0.52997   0.21188   0.00000  Uiso   1.00
Zn340  Zn    0.12798   0.53868   0.28277   0.00000  Uiso   1.00
C341   C     0.38624   0.49310   0.25845   0.00000  Uiso   1.00
C342   C     0.52649   0.45758   0.45852   0.00000  Uiso   1.00
C343   C     0.54892   0.43840   0.47758   0.00000  Uiso   1.00
C344   C     0.61445   0.50683   0.24117   0.00000  Uiso   1.00
C345   C     0.54145   0.44499   0.01909   0.00000  Uiso   1.00
C346   C     0.50821   0.46908   0.04120   0.00000  Uiso   1.00
C347   C     0.56706   0.42914   0.03881   0.00000  Uiso   1.00
C348   C     0.56196   0.44095   0.07999   0.00000  Uiso   1.00
C349   C     0.50551   0.48210   0.08127   0.00000  Uiso   1.00
C350   C     0.66008   0.51253   0.23989   0.00000  Uiso   1.00
C351   C     0.34145   0.48889   0.26083   0.00000  Uiso   1.00
C352   C     0.42894   0.54250   0.42119   0.00000  Uiso   1.00
C353   C     0.51340   0.65543   0.23713   0.00000  Uiso   1.00
C354   C     0.48610   0.34651   0.26391   0.00000  Uiso   1.00
C355   C     0.48928   0.38977   0.25927   0.00000  Uiso   1.00
C356   C     0.51013   0.61100   0.24120   0.00000  Uiso   1.00
C357   C     0.52166   0.47854   0.14381   0.00000  Uiso   1.00
C358   C     0.47935   0.52143   0.35628   0.00000  Uiso   1.00
C359   C     0.46782   0.52754   0.40021   0.00000  Uiso   1.00
C360   C     0.53147   0.46827   0.10064   0.00000  Uiso   1.00
C361   C     0.41404   0.54267   0.46260   0.00000  Uiso   1.00
C362   C     0.36615   0.50618   0.03890   0.00000  Uiso   1.00
C363   C     0.49410   0.51696   0.42175   0.00000  Uiso   1.00
C364   C     0.59909   0.40045   0.01667   0.00000  Uiso   1.00
C365   C     0.35518   0.54620   0.21656   0.00000  Uiso   1.00
C366   C     0.65069   0.45086   0.27903   0.00000  Uiso   1.00
C367   C     0.54682   0.33906   0.20232   0.00000  Uiso   1.00
C368   C     0.45766   0.33452   0.30289   0.00000  Uiso   1.00
C369   C     0.58726   0.42370   0.10167   0.00000  Uiso   1.00
C370   C     0.38066   0.57007   0.48439   0.00000  Uiso   1.00
C371   C     0.54195   0.52660   0.40713   0.00000  Uiso   1.00
C372   C     0.41507   0.47398   0.08065   0.00000  Uiso   1.00
C373   C     0.47445   0.50601   0.46119   0.00000  Uiso   1.00
C374   C     0.43370   0.51929   0.48227   0.00000  Uiso   1.00
C375   C     0.49451   0.48272   0.48024   0.00000  Uiso   1.00
C376   C     0.48032   0.48205   0.02189   0.00000  Uiso   1.00
C377   C     0.43768   0.49086   0.04195   0.00000  Uiso   1.00
C378   C     0.41359   0.50750   0.02144   0.00000  Uiso   1.00
H379   H     0.48367   0.50411   0.09785   0.00000  Uiso   1.00
H380   H     0.45212   0.64531   0.35480   0.00000  Uiso   1.00
H381   H     0.61159   0.37368   0.11020   0.00000  Uiso   1.00
H382   H     0.37654   0.58009   0.01571   0.00000  Uiso   1.00
H383   H     0.56214   0.52426   0.42605   0.00000  Uiso   1.00
H384   H     0.38145   0.48497   0.13788   0.00000  Uiso   1.00
H385   H     0.57379   0.42045   0.45902   0.00000  Uiso   1.00
H386   H     0.41093   0.55548   0.40535   0.00000  Uiso   1.00
H387   H     0.53397   0.45192   0.42646   0.00000  Uiso   1.00
H388   H     0.35254   0.51424   0.07040   0.00000  Uiso   1.00
H389   H     0.66010   0.38690   0.00284   0.00000  Uiso   1.00
H390   H     0.40416   0.59254   0.21203   0.00000  Uiso   1.00
H391   H     0.65248   0.44535   0.30810   0.00000  Uiso   1.00
H392   H     0.59234   0.38574   0.18140   0.00000  Uiso   1.00
O393   O     0.50000   0.50000   0.25000   0.00000  Uiso   1.00
O394   O     0.49027   0.45726   0.16625   0.00000  Uiso   1.00
O395   O     0.46020   0.53979   0.33749   0.00000  Uiso   1.00
O396   O     0.54421   0.50826   0.15877   0.00000  Uiso   1.00
O397   O     0.50532   0.49468   0.33749   0.00000  Uiso   1.00
O398   O     0.34169   0.49473   0.01819   0.00000  Uiso   1.00
O399   O     0.58804   0.36901   0.49730   0.00000  Uiso   1.00
O400   O     0.64154   0.40885   0.01884   0.00000  Uiso   1.00
O401   O     0.34935   0.55303   0.18543   0.00000  Uiso   1.00
O402   O     0.38753   0.57091   0.23053   0.00000  Uiso   1.00
O403   O     0.63184   0.42406   0.26049   0.00000  Uiso   1.00
O404   O     0.51182   0.41434   0.27820   0.00000  Uiso   1.00
O405   O     0.55474   0.65164   0.17007   0.00000  Uiso   1.00
O406   O     0.56994   0.37816   0.20675   0.00000  Uiso   1.00
O407   O     0.41996   0.34078   0.31281   0.00000  Uiso   1.00
O408   O     0.47457   0.65177   0.32908   0.00000  Uiso   1.00
O409   O     0.60389   0.44643   0.12495   0.00000  Uiso   1.00
O410   O     0.59223   0.38141   0.09520   0.00000  Uiso   1.00
O411   O     0.35801   0.58257   0.46744   0.00000  Uiso   1.00
O412   O     0.55944   0.54015   0.37507   0.00000  Uiso   1.00
O413   O     0.41443   0.43715   0.08392   0.00000  Uiso   1.00
O414   O     0.39537   0.50023   0.11335   0.00000  Uiso   1.00
O415   O     0.47914   0.59469   0.26767   0.00000  Uiso   1.00
O416   O     0.40785   0.46584   0.23607   0.00000  Uiso   1.00
O417   O     0.60119   0.52512   0.21805   0.00000  Uiso   1.00
O418   O     0.40323   0.52293   0.27820   0.00000  Uiso   1.00
O419   O     0.58773   0.48610   0.26767   0.00000  Uiso   1.00
O420   O     0.47133   0.40236   0.23607   0.00000  Uiso   1.00
O421   O     0.53771   0.58860   0.21805   0.00000  Uiso   1.00
Zn422  Zn    0.52577   0.47423   0.28277   0.00000  Uiso   1.00
Zn423  Zn    0.46792   0.45711   0.22257   0.00000  Uiso   1.00
Zn424  Zn    0.54500   0.52997   0.21188   0.00000  Uiso   1.00
Zn425  Zn    0.46131   0.53868   0.28277   0.00000  Uiso   1.00
C426   C     0.71957   0.49310   0.25845   0.00000  Uiso   1.00
C427   C     0.85982   0.45758   0.45852   0.00000  Uiso   1.00
C428   C     0.88225   0.43840   0.47758   0.00000  Uiso   1.00
C429   C     0.94778   0.50683   0.24117   0.00000  Uiso   1.00
C430   C     0.87478   0.44499   0.01909   0.00000  Uiso   1.00
C431   C     0.84155   0.46908   0.04120   0.00000  Uiso   1.00
C432   C     0.90039   0.42914   0.03881   0.00000  Uiso   1.00
C433   C     0.89529   0.44095   0.07999   0.00000  Uiso   1.00
C434   C     0.83884   0.48210   0.08127   0.00000  Uiso   1.00
C435   C     0.99341   0.51253   0.23989   0.00000  Uiso   1.00
C436   C     0.67478   0.48889   0.26083   0.00000  Uiso   1.00
C437   C     0.76228   0.54250   0.42119   0.00000  Uiso   1.00
C438   C     0.84673   0.65543   0.23713   0.00000  Uiso   1.00
C439   C     0.81944   0.34651   0.26391   0.00000  Uiso   1.00
C440   C     0.82261   0.38977   0.25927   0.00000  Uiso   1.00
C441   C     0.84346   0.61100   0.24120   0.00000  Uiso   1.00
C442   C     0.85500   0.47854   0.14381   0.00000  Uiso   1.00
C443   C     0.81268   0.52143   0.35628   0.00000  Uiso   1.00
C444   C     0.80115   0.52754   0.40021   0.00000  Uiso   1.00
C445   C     0.86480   0.46827   0.10064   0.00000  Uiso   1.00
C446   C     0.74737   0.54267   0.46260   0.00000  Uiso   1.00
C447   C     0.69949   0.50618   0.03890   0.00000  Uiso   1.00
C448   C     0.82744   0.51696   0.42175   0.00000  Uiso   1.00
C449   C     0.93243   0.40045   0.01667   0.00000  Uiso   1.00
C450   C     0.68851   0.54620   0.21656   0.00000  Uiso   1.00
C451   C     0.98402   0.45086   0.27903   0.00000  Uiso   1.00
C452   C     0.88015   0.33906   0.20232   0.00000  Uiso   1.00
C453   C     0.79099   0.33452   0.30289   0.00000  Uiso   1.00
C454   C     0.92059   0.42370   0.10167   0.00000  Uiso   1.00
C455   C     0.71399   0.57007   0.48439   0.00000  Uiso   1.00
C456   C     0.87528   0.52660   0.40713   0.00000  Uiso   1.00
C457   C     0.74840   0.47398   0.08065   0.00000  Uiso   1.00
C458   C     0.80778   0.50601   0.46119   0.00000  Uiso   1.00
C459   C     0.76703   0.51929   0.48227   0.00000  Uiso   1.00
C460   C     0.82785   0.48272   0.48024   0.00000  Uiso   1.00
C461   C     0.81365   0.48205   0.02189   0.00000  Uiso   1.00
C462   C     0.77101   0.49086   0.04195   0.00000  Uiso   1.00
C463   C     0.74692   0.50750   0.02144   0.00000  Uiso   1.00
H464   H     0.81701   0.50411   0.09785   0.00000  Uiso   1.00
H465   H     0.78545   0.64531   0.35480   0.00000  Uiso   1.00
H466   H     0.94492   0.37368   0.11020   0.00000  Uiso   1.00
H467   H     0.70987   0.58009   0.01571   0.00000  Uiso   1.00
H468   H     0.89547   0.52426   0.42605   0.00000  Uiso   1.00
H469   H     0.71478   0.48497   0.13788   0.00000  Uiso   1.00
H470   H     0.90712   0.42045   0.45902   0.00000  Uiso   1.00
H471   H     0.74427   0.55548   0.40535   0.00000  Uiso   1.00
H472   H     0.86730   0.45192   0.42646   0.00000  Uiso   1.00
H473   H     0.68587   0.51424   0.07040   0.00000  Uiso   1.00
H474   H     0.99344   0.38690   0.00284   0.00000  Uiso   1.00
H475   H     0.73749   0.59254   0.21203   0.00000  Uiso   1.00
H476   H     0.98582   0.44535   0.30810   0.00000  Uiso   1.00
H477   H     0.92568   0.38574   0.18140   0.00000  Uiso   1.00
O478   O     0.83333   0.50000   0.25000   0.00000  Uiso   1.00
O479   O     0.82360   0.45726   0.16625   0.00000  Uiso   1.00
O480   O     0.79354   0.53979   0.33749   0.00000  Uiso   1.00
O481   O     0.87755   0.50826   0.15877   0.00000  Uiso   1.00
O482   O     0.83865   0.49468   0.33749   0.00000  Uiso   1.00
O483   O     0.67502   0.49473   0.01819   0.00000  Uiso   1.00
O484   O     0.92138   0.36901   0.49730   0.00000  Uiso   1.00
O485   O     0.97487   0.40885   0.01884   0.00000  Uiso   1.00
O486   O     0.68268   0.55303   0.18543   0.00000  Uiso   1.00
O487   O     0.72087   0.57091   0.23053   0.00000  Uiso   1.00
O488   O     0.96518   0.42406   0.26049   0.00000  Uiso   1.00
O489   O     0.84515   0.41434   0.27820   0.00000  Uiso   1.00
O490   O     0.88807   0.65164   0.17007   0.00000  Uiso   1.00
O491   O     0.90328   0.37816   0.20675   0.00000  Uiso   1.00
O492   O     0.75329   0.34078   0.31281   0.00000  Uiso   1.00
O493   O     0.80790   0.65177   0.32908   0.00000  Uiso   1.00
O494   O     0.93722   0.44643   0.12495   0.00000  Uiso   1.00
O495   O     0.92556   0.38141   0.09520   0.00000  Uiso   1.00
O496   O     0.69134   0.58257   0.46744   0.00000  Uiso   1.00
O497   O     0.89277   0.54015   0.37507   0.00000  Uiso   1.00
O498   O     0.74776   0.43715   0.08392   0.00000  Uiso   1.00
O499   O     0.72871   0.50023   0.11335   0.00000  Uiso   1.00
O500   O     0.81247   0.59469   0.26767   0.00000  Uiso   1.00
O501   O     0.74119   0.46584   0.23607   0.00000  Uiso   1.00
O502   O     0.93452   0.52512   0.21805   0.00000  Uiso   1.00
O503   O     0.73656   0.52293   0.27820   0.00000  Uiso   1.00
O504   O     0.92106   0.48610   0.26767   0.00000  Uiso   1.00
O505   O     0.80467   0.40236   0.23607   0.00000  Uiso   1.00
O506   O     0.87104   0.58860   0.21805   0.00000  Uiso   1.00
Zn507  Zn    0.85910   0.47423   0.28277   0.00000  Uiso   1.00
Zn508  Zn    0.80125   0.45711   0.22257   0.00000  Uiso   1.00
Zn509  Zn    0.87833   0.52997   0.21188   0.00000  Uiso   1.00
Zn510  Zn    0.79465   0.53868   0.28277   0.00000  Uiso   1.00
C511   C     0.05291   0.82644   0.25845   0.00000  Uiso   1.00
C512   C     0.19315   0.79091   0.45852   0.00000  Uiso   1.00
C513   C     0.21558   0.77173   0.47758   0.00000  Uiso   1.00
C514   C     0.28112   0.84016   0.24117   0.00000  Uiso   1.00
C515   C     0.20812   0.77832   0.01909   0.00000  Uiso   1.00
C516   C     0.17488   0.80241   0.04120   0.00000  Uiso   1.00
C517   C     0.23372   0.76248   0.03881   0.00000  Uiso   1.00
C518   C     0.22862   0.77428   0.07999   0.00000  Uiso   1.00
C519   C     0.17218   0.81543   0.08127   0.00000  Uiso   1.00
C520   C     0.32675   0.84586   0.23989   0.00000  Uiso   1.00
C521   C     0.00812   0.82222   0.26083   0.00000  Uiso   1.00
C522   C     0.09561   0.87583   0.42119   0.00000  Uiso   1.00
C523   C     0.18006   0.98876   0.23713   0.00000  Uiso   1.00
C524   C     0.15277   0.67984   0.26391   0.00000  Uiso   1.00
C525   C     0.15594   0.72310   0.25927   0.00000  Uiso   1.00
C526   C     0.17679   0.94433   0.24120   0.00000  Uiso   1.00
C527   C     0.18833   0.81187   0.14381   0.00000  Uiso   1.00
C528   C     0.14602   0.85476   0.35628   0.00000  Uiso   1.00
C529   C     0.13449   0.86087   0.40021   0.00000  Uiso   1.00
C530   C     0.19814   0.80160   0.10064   0.00000  Uiso   1.00
C531   C     0.08070   0.87600   0.46260   0.00000  Uiso   1.00
C532   C     0.03282   0.83952   0.03890   0.00000  Uiso   1.00
C533   C     0.16077   0.85029   0.42175   0.00000  Uiso   1.00
C534   C     0.26576   0.73378   0.01667   0.00000  Uiso   1.00
C535   C     0.02185   0.87954   0.21656   0.00000  Uiso   1.00
C536   C     0.31735   0.78419   0.27903   0.00000  Uiso   1.00
C537   C     0.21348   0.67240   0.20232   0.00000  Uiso   1.00
C538   C     0.12433   0.66785   0.30289   0.00000  Uiso   1.00
C539   C     0.25393   0.75703   0.10167   0.00000  Uiso   1.00
C540   C     0.04732   0.90341   0.48439   0.00000  Uiso   1.00
C541   C     0.20862   0.85993   0.40713   0.00000  Uiso   1.00
C542   C     0.08173   0.80731   0.08065   0.00000  Uiso   1.00
C543   C     0.14112   0.83934   0.46119   0.00000  Uiso   1.00
C544   C     0.10036   0.85263   0.48227   0.00000  Uiso   1.00
C545   C     0.16118   0.81606   0.48024   0.00000  Uiso   1.00
C546   C     0.14699   0.81538   0.02189   0.00000  Uiso   1.00
C547   C     0.10435   0.82420   0.04195   0.00000  Uiso   1.00
C548   C     0.08025   0.84084   0.02144   0.00000  Uiso   1.00
H549   H     0.15034   0.83745   0.09785   0.00000  Uiso   1.00
H550   H     0.11878   0.97864   0.35480   0.00000  Uiso   1.00
H551   H     0.27825   0.70701   0.11020   0.00000  Uiso   1.00
H552   H     0.04320   0.91342   0.01571   0.00000  Uiso   1.00
H553   H     0.22880   0.85759   0.42605   0.00000  Uiso   1.00
H554   H     0.04812   0.81830   0.13788   0.00000  Uiso   1.00
H555   H     0.24046   0.75378   0.45902   0.00000  Uiso   1.00
H556   H     0.07760   0.88882   0.40535   0.00000  Uiso   1.00
H557   H     0.20063   0.78525   0.42646   0.00000  Uiso   1.00
H558   H     0.01920   0.84757   0.07040   0.00000  Uiso   1.00
H559   H     0.32677   0.72023   0.00284   0.00000  Uiso   1.00
H560   H     0.07082   0.92588   0.21203   0.00000  Uiso   1.00
H561   H     0.31915   0.77868   0.30810   0.00000  Uiso   1.00
H562   H     0.25901   0.71908   0.18140   0.00000  Uiso   1.00
O563   O     0.16667   0.83333   0.25000   0.00000  Uiso   1.00
O564   O     0.15693   0.79060   0.16625   0.00000  Uiso   1.00
O565   O     0.12687   0.87313   0.33749   0.00000  Uiso   1.00
O566   O     0.21088   0.84159   0.15877   0.00000  Uiso   1.00
O567   O     0.17198   0.82802   0.33749   0.00000  Uiso   1.00
O568   O     0.00835   0.82807   0.01819   0.00000  Uiso   1.00
O569   O     0.25471   0.70235   0.49730   0.00000  Uiso   1.00
O570   O     0.30820   0.74219   0.01884   0.00000  Uiso   1.00
O571   O     0.01601   0.88636   0.18543   0.00000  Uiso   1.00
O572   O     0.05420   0.90424   0.23053   0.00000  Uiso   1.00
O573   O     0.29851   0.75739   0.26049   0.00000  Uiso   1.00
O574   O     0.17849   0.74768   0.27820   0.00000  Uiso   1.00
O575   O     0.22140   0.98497   0.17007   0.00000  Uiso   1.00
O576   O     0.23661   0.71150   0.20675   0.00000  Uiso   1.00
O577   O     0.08662   0.67411   0.31281   0.00000  Uiso   1.00
O578   O     0.14124   0.98510   0.32908   0.00000  Uiso   1.00
O579   O     0.27055   0.77977   0.12495   0.00000  Uiso   1.00
O580   O     0.25889   0.71474   0.09520   0.00000  Uiso   1.00
O581   O     0.02467   0.91590   0.46744   0.00000  Uiso   1.00
O582   O     0.22610   0.87348   0.37507   0.00000  Uiso   1.00
O583   O     0.08109   0.77049   0.08392   0.00000  Uiso   1.00
O584   O     0.06204   0.83356   0.11335   0.00000  Uiso   1.00
O585   O     0.14581   0.92803   0.26767   0.00000  Uiso   1.00
O586   O     0.07452   0.79917   0.23607   0.00000  Uiso   1.00
O587   O     0.26785   0.85845   0.21805   0.00000  Uiso   1.00
O588   O     0.06990   0.85627   0.27820   0.00000  Uiso   1.00
O589   O     0.25440   0.81944   0.26767   0.00000  Uiso   1.00
O590   O     0.13800   0.73570   0.23607   0.00000  Uiso   1.00
O591   O     0.20437   0.92193   0.21805   0.00000  Uiso   1.00
Zn592  Zn    0.19244   0.80756   0.28277   0.00000  Uiso   1.00
Zn593  Zn    0.13459   0.79044   0.22257   0.00000  Uiso   1.00
Zn594  Zn    0.21166   0.86331   0.21188   0.00000  Uiso   1.00
Zn595  Zn    0.12798   0.87202   0.28277   0.00000  Uiso   1.00
C596   C     0.38624   0.82644   0.25845   0.00000  Uiso   1.00
C597   C     0.52649   0.79091   0.45852   0.00000  Uiso   1.00
C598   C     0.54892   0.77173   0.47758   0.00000  Uiso   1.00
C599   C     0.61445   0.84016   0.24117   0.00000  Uiso   1.00
C600   C     0.54145   0.77832   0.01909   0.00000  Uiso   1.00
C601   C     0.50821   0.80241   0.04120   0.00000  Uiso   1.00
C602   C     0.56706   0.76248   0.03881   0.00000  Uiso   1.00
C603   C     0.56196   0.77428   0.07999   0.00000  Uiso   1.00
C604   C     0.50551   0.81543   0.08127   0.00000  Uiso   1.00
C605   C     0.66008   0.84586   0.23989   0.00000  Uiso   1.00
C606   C     0.34145   0.82222   0.26083   0.00000  Uiso   1.00
C607   C     0.42894   0.87583   0.42119   0.00000  Uiso   1.00
C608   C     0.51340   0.98876   0.23713   0.00000  Uiso   1.00
C609   C     0.48610   0.67984   0.26391   0.00000  Uiso   1.00
C610   C     0.48928   0.72310   0.25927   0.00000  Uiso   1.00
C611   C     0.51013   0.94433   0.24120   0.00000  Uiso   1.00
C612   C     0.52166   0.81187   0.14381   0.00000  Uiso   1.00
C613   C     0.47935   0.85476   0.35628   0.00000  Uiso   1.00
C614   C     0.46782   0.86087   0.40021   0.00000  Uiso   1.00
C615   C     0.53147   0.80160   0.10064   0.00000  Uiso   1.00
C616   C     0.41404   0.87600   0.46260   0.00000  Uiso   1.00
C617   C     0.36615   0.83952   0.03890   0.00000  Uiso   1.00
C618   C     0.49410   0.85029   0.42175   0.00000  Uiso   1.00
C619   C     0.59909   0.73378   0.01667   0.00000  Uiso   1.00
C620   C     0.35518   0.87954   0.21656   0.00000  Uiso   1.00
C621   C     0.65069   0.78419   0.27903   0.00000  Uiso   1.00
C622   C     0.54682   0.67240   0.20232   0.00000  Uiso   1.00
C623   C     0.45766   0.66785   0.30289   0.00000  Uiso   1.00
C624   C     0.58726   0.75703   0.10167   0.00000  Uiso   1.00
C625   C     0.38066   0.90341   0.48439   0.00000  Uiso   1.00
C626   C     0.54195   0.85993   0.40713   0.00000  Uiso   1.00
C627   C     0.41507   0.80731   0.08065   0.00000  Uiso   1.00
C628   C     0.47445   0.83934   0.46119   0.00000  Uiso   1.00
C629   C     0.43370   0.85263   0.48227   0.00000  Uiso   1.00
C630   C     0.49451   0.81606   0.48024   0.00000  Uiso   1.00
C631   C     0.48032   0.81538   0.02189   0.00000  Uiso   1.00
C632   C     0.43768   0.82420   0.04195   0.00000  Uiso   1.00
C633   C     0.41359   0.84084   0.02144   0.00000  Uiso   1.00
H634   H     0.48367   0.83745   0.09785   0.00000  Uiso   1.00
H635   H     0.45212   0.97864   0.35480   0.00000  Uiso   1.00
H636   H     0.61159   0.70701   0.11020   0.00000  Uiso   1.00
H637   H     0.37654   0.91342   0.01571   0.00000  Uiso   1.00
H638   H     0.56214   0.85759   0.42605   0.00000  Uiso   1.00
H639   H     0.38145   0.81830   0.13788   0.00000  Uiso   1.00
H640   H     0.57379   0.75378   0.45902   0.00000  Uiso   1.00
H641   H     0.41093   0.88882   0.40535   0.00000  Uiso   1.00
H642   H     0.53397   0.78525   0.42646   0.00000  Uiso   1.00
H643   H     0.35254   0.84757   0.07040   0.00000  Uiso   1.00
H644   H     0.66010   0.72023   0.00284   0.00000  Uiso   1.00
H645   H     0.40416   0.92588   0.21203   0.00000  Uiso   1.00
H646   H     0.65248   0.77868   0.30810   0.00000  Uiso   1.00
H647   H     0.59234   0.71908   0.18140   0.00000  Uiso   1.00
O648   O     0.50000   0.83333   0.25000   0.00000  Uiso   1.00
O649   O     0.49027   0.79060   0.16625   0.00000  Uiso   1.00
O650   O     0.46020   0.87313   0.33749   0.00000  Uiso   1.00
O651   O     0.54421   0.84159   0.15877   0.00000  Uiso   1.00
O652   O     0.50532   0.82802   0.33749   0.00000  Uiso   1.00
O653   O     0.34169   0.82807   0.01819   0.00000  Uiso   1.00
O654   O     0.58804   0.70235   0.49730   0.00000  Uiso   1.00
O655   O     0.64154   0.74219   0.01884   0.00000  Uiso   1.00
O656   O     0.34935   0.88636   0.18543   0.00000  Uiso   1.00
O657   O     0.38753   0.90424   0.23053   0.00000  Uiso   1.00
O658   O     0.63184   0.75739   0.26049   0.00000  Uiso   1.00
O659   O     0.51182   0.74768   0.27820   0.00000  Uiso   1.00
O660   O     0.55474   0.98497   0.17007   0.00000  Uiso   1.00
O661   O     0.56994   0.71150   0.20675   0.00000  Uiso   1.00
O662   O     0.41996   0.67411   0.31281   0.00000  Uiso   1.00
O663   O     0.47457   0.98510   0.32908   0.00000  Uiso   1.00
O664   O     0.60389   0.77977   0.12495   0.00000  Uiso   1.00
O665   O     0.59223   0.71474   0.09520   0.00000  Uiso   1.00
O666   O     0.35801   0.91590   0.46744   0.00000  Uiso   1.00
O667   O     0.55944   0.87348   0.37507   0.00000  Uiso   1.00
O668   O     0.41443   0.77049   0.08392   0.00000  Uiso   1.00
O669   O     0.39537   0.83356   0.11335   0.00000  Uiso   1.00
O670   O     0.47914   0.92803   0.26767   0.00000  Uiso   1.00
O671   O     0.40785   0.79917   0.23607   0.00000  Uiso   1.00
O672   O     0.60119   0.85845   0.21805   0.00000  Uiso   1.00
O673   O     0.40323   0.85627   0.27820   0.00000  Uiso   1.00
O674   O     0.58773   0.81944   0.26767   0.00000  Uiso   1.00
O675   O     0.47133   0.73570   0.23607   0.00000  Uiso   1.00
O676   O     0.53771   0.92193   0.21805   0.00000  Uiso   1.00
Zn677  Zn    0.52577   0.80756   0.28277   0.00000  Uiso   1.00
Zn678  Zn    0.46792   0.79044   0.22257   0.00000  Uiso   1.00
Zn679  Zn    0.54500   0.86331   0.21188   0.00000  Uiso   1.00
Zn680  Zn    0.46131   0.87202   0.28277   0.00000  Uiso   1.00
C681   C     0.71957   0.82644   0.25845   0.00000  Uiso   1.00
C682   C     0.85982   0.79091   0.45852   0.00000  Uiso   1.00
C683   C     0.88225   0.77173   0.47758   0.00000  Uiso   1.00
C684   C     0.94778   0.84016   0.24117   0.00000  Uiso   1.00
C685   C     0.87478   0.77832   0.01909   0.00000  Uiso   1.00
C686   C     0.84155   0.80241   0.04120   0.00000  Uiso   1.00
C687   C     0.90039   0.76248   0.03881   0.00000  Uiso   1.00
C688   C     0.89529   0.77428   0.07999   0.00000  Uiso   1.00
C689   C     0.83884   0.81543   0.08127   0.00000  Uiso   1.00
C690   C     0.99341   0.84586   0.23989   0.00000  Uiso   1.00
C691   C     0.67478   0.82222   0.26083   0.00000  Uiso   1.00
C692   C     0.76228   0.87583   0.42119   0.00000  Uiso   1.00
C693   C     0.84673   0.98876   0.23713   0.00000  Uiso   1.00
C694   C     0.81944   0.67984   0.26391   0.00000  Uiso   1.00
C695   C     0.82261   0.72310   0.25927   0.00000  Uiso   1.00
C696   C     0.84346   0.94433   0.24120   0.00000  Uiso   1.00
C697   C     0.85500   0.81187   0.14381   0.00000  Uiso   1.00
C698   C     0.81268   0.85476   0.35628   0.00000  Uiso   1.00
C699   C     0.80115   0.86087   0.40021   0.00000  Uiso   1.00
C700   C     0.86480   0.80160   0.10064   0.00000  Uiso   1.00
C701   C     0.74737   0.87600   0.46260   0.00000  Uiso   1.00
C702   C     0.69949   0.83952   0.03890   0.00000  Uiso   1.00
C703   C     0.82744   0.85029   0.42175   0.00000  Uiso   1.00
C704   C     0.93243   0.73378   0.01667   0.00000  Uiso   1.00
C705   C     0.68851   0.87954   0.21656   0.00000  Uiso   1.00
C706   C     0.98402   0.78419   0.27903   0.00000  Uiso   1.00
C707   C     0.88015   0.67240   0.20232   0.00000  Uiso   1.00
C708   C     0.79099   0.66785   0.30289   0.00000  Uiso   1.00
C709   C     0.92059   0.75703   0.10167   0.00000  Uiso   1.00
C710   C     0.71399   0.90341   0.48439   0.00000  Uiso   1.00
C711   C     0.87528   0.85993   0.40713   0.00000  Uiso   1.00
C712   C     0.74840   0.80731   0.08065   0.00000  Uiso   1.00
C713   C     0.80778   0.83934   0.46119   0.00000  Uiso   1.00
C714   C     0.76703   0.85263   0.48227   0.00000  Uiso   1.00
C715   C     0.82785   0.81606   0.48024   0.00000  Uiso   1.00
C716   C     0.81365   0.81538   0.02189   0.00000  Uiso   1.00
C717   C     0.77101   0.82420   0.04195   0.00000  Uiso   1.00
C718   C     0.74692   0.84084   0.02144   0.00000  Uiso   1.00
H719   H     0.81701   0.83745   0.09785   0.00000  Uiso   1.00
H720   H     0.78545   0.97864   0.35480   0.00000  Uiso   1.00
H721   H     0.94492   0.70701   0.11020   0.00000  Uiso   1.00
H722   H     0.70987   0.91342   0.01571   0.00000  Uiso   1.00
H723   H     0.89547   0.85759   0.42605   0.00000  Uiso   1.00
H724   H     0.71478   0.81830   0.13788   0.00000  Uiso   1.00
H725   H     0.90712   0.75378   0.45902   0.00000  Uiso   1.00
H726   H     0.74427   0.88882   0.40535   0.00000  Uiso   1.00
H727   H     0.86730   0.78525   0.42646   0.00000  Uiso   1.00
H728   H     0.68587   0.84757   0.07040   0.00000  Uiso   1.00
H729   H     0.99344   0.72023   0.00284   0.00000  Uiso   1.00
H730   H     0.73749   0.92588   0.21203   0.00000  Uiso   1.00
H731   H     0.98582   0.77868   0.30810   0.00000  Uiso   1.00
H732   H     0.92568   0.71908   0.18140   0.00000  Uiso   1.00
O733   O     0.83333   0.83333   0.25000   0.00000  Uiso   1.00
O734   O     0.82360   0.79060   0.16625   0.00000  Uiso   1.00
O735   O     0.79354   0.87313   0.33749   0.00000  Uiso   1.00
O736   O     0.87755   0.84159   0.15877   0.00000  Uiso   1.00
O737   O     0.83865   0.82802   0.33749   0.00000  Uiso   1.00
O738   O     0.67502   0.82807   0.01819   0.00000  Uiso   1.00
O739   O     0.92138   0.70235   0.49730   0.00000  Uiso   1.00
O740   O     0.97487   0.74219   0.01884   0.00000  Uiso   1.00
O741   O     0.68268   0.88636   0.18543   0.00000  Uiso   1.00
O742   O     0.72087   0.90424   0.23053   0.00000  Uiso   1.00
O743   O     0.96518   0.75739   0.26049   0.00000  Uiso   1.00
O744   O     0.84515   0.74768   0.27820   0.00000  Uiso   1.00
O745   O     0.88807   0.98497   0.17007   0.00000  Uiso   1.00
O746   O     0.90328   0.71150   0.20675   0.00000  Uiso   1.00
O747   O     0.75329   0.67411   0.31281   0.00000  Uiso   1.00
O748   O     0.80790   0.98510   0.32908   0.00000  Uiso   1.00
O749   O     0.93722   0.77977   0.12495   0.00000  Uiso   1.00
O750   O     0.92556   0.71474   0.09520   0.00000  Uiso   1.00
O751   O     0.69134   0.91590   0.46744   0.00000  Uiso   1.00
O752   O     0.89277   0.87348   0.37507   0.00000  Uiso   1.00
O753   O     0.74776   0.77049   0.08392   0.00000  Uiso   1.00
O754   O     0.72871   0.83356   0.11335   0.00000  Uiso   1.00
O755   O     0.81247   0.92803   0.26767   0.00000  Uiso   1.00
O756   O     0.74119   0.79917   0.23607   0.00000  Uiso   1.00
O757   O     0.93452   0.85845   0.21805   0.00000  Uiso   1.00
O758   O     0.73656   0.85627   0.27820   0.00000  Uiso   1.00
O759   O     0.92106   0.81944   0.26767   0.00000  Uiso   1.00
O760   O     0.80467   0.73570   0.23607   0.00000  Uiso   1.00
O761   O     0.87104   0.92193   0.21805   0.00000  Uiso   1.00
Zn762  Zn    0.85910   0.80756   0.28277   0.00000  Uiso   1.00
Zn763  Zn    0.80125   0.79044   0.22257   0.00000  Uiso   1.00
Zn764  Zn    0.87833   0.86331   0.21188   0.00000  Uiso   1.00
Zn765  Zn    0.79465   0.87202   0.28277   0.00000  Uiso   1.00
C766   C     0.05291   0.15977   0.75845   0.00000  Uiso   1.00
C767   C     0.19315   0.12424   0.95852   0.00000  Uiso   1.00
C768   C     0.21558   0.10507   0.97758   0.00000  Uiso   1.00
C769   C     0.28112   0.17349   0.74117   0.00000  Uiso   1.00
C770   C     0.20812   0.11166   0.51909   0.00000  Uiso   1.00
C771   C     0.17488   0.13574   0.54120   0.00000  Uiso   1.00
C772   C     0.23372   0.09581   0.53881   0.00000  Uiso   1.00
C773   C     0.22862   0.10762   0.57999   0.00000  Uiso   1.00
C774   C     0.17218   0.14876   0.58127   0.00000  Uiso   1.00
C775   C     0.32675   0.17919   0.73989   0.00000  Uiso   1.00
C776   C     0.00812   0.15556   0.76083   0.00000  Uiso   1.00
C777   C     0.09561   0.20916   0.92119   0.00000  Uiso   1.00
C778   C     0.18006   0.32210   0.73713   0.00000  Uiso   1.00
C779   C     0.15277   0.01318   0.76391   0.00000  Uiso   1.00
C780   C     0.15594   0.05643   0.75927   0.00000  Uiso   1.00
C781   C     0.17679   0.27767   0.74120   0.00000  Uiso   1.00
C782   C     0.18833   0.14520   0.64381   0.00000  Uiso   1.00
C783   C     0.14602   0.18810   0.85628   0.00000  Uiso   1.00
C784   C     0.13449   0.19420   0.90021   0.00000  Uiso   1.00
C785   C     0.19814   0.13494   0.60064   0.00000  Uiso   1.00
C786   C     0.08070   0.20934   0.96260   0.00000  Uiso   1.00
C787   C     0.03282   0.17285   0.53890   0.00000  Uiso   1.00
C788   C     0.16077   0.18363   0.92175   0.00000  Uiso   1.00
C789   C     0.26576   0.06711   0.51667   0.00000  Uiso   1.00
C790   C     0.02185   0.21287   0.71656   0.00000  Uiso   1.00
C791   C     0.31735   0.11753   0.77903   0.00000  Uiso   1.00
C792   C     0.21348   0.00573   0.70232   0.00000  Uiso   1.00
C793   C     0.12433   0.00118   0.80289   0.00000  Uiso   1.00
C794   C     0.25393   0.09037   0.60167   0.00000  Uiso   1.00
C795   C     0.04732   0.23674   0.98439   0.00000  Uiso   1.00
C796   C     0.20862   0.19327   0.90713   0.00000  Uiso   1.00
C797   C     0.08173   0.14064   0.58065   0.00000  Uiso   1.00
C798   C     0.14112   0.17267   0.96119   0.00000  Uiso   1.00
C799   C     0.10036   0.18596   0.98227   0.00000  Uiso   1.00
C800   C     0.16118   0.14939   0.98024   0.00000  Uiso   1.00
C801   C     0.14699   0.14871   0.52189   0.00000  Uiso   1.00
C802   C     0.10435   0.15753   0.54195   0.00000  Uiso   1.00
C803   C     0.08025   0.17417   0.52144   0.00000  Uiso   1.00
H804   H     0.15034   0.17078   0.59785   0.00000  Uiso   1.00
H805   H     0.11878   0.31197   0.85480   0.00000  Uiso   1.00
H806   H     0.27825   0.04035   0.61020   0.00000  Uiso   1.00
H807   H     0.04320   0.24675   0.51571   0.00000  Uiso   1.00
H808   H     0.22880   0.19093   0.92605   0.00000  Uiso   1.00
H809   H     0.04812   0.15163   0.63788   0.00000  Uiso   1.00
H810   H     0.24046   0.08712   0.95902   0.00000  Uiso   1.00
H811   H     0.07760   0.22215   0.90535   0.00000  Uiso   1.00
H812   H     0.20063   0.11859   0.92646   0.00000  Uiso   1.00
H813   H     0.01920   0.18090   0.57040   0.00000  Uiso   1.00
H814   H     0.32677   0.05356   0.50284   0.00000  Uiso   1.00
H815   H     0.07082   0.25921   0.71203   0.00000  Uiso   1.00
H816   H     0.31915   0.11201   0.80810   0.00000  Uiso   1.00
H817   H     0.25901   0.05241   0.68140   0.00000  Uiso   1.00
O818   O     0.16667   0.16667   0.75000   0.00000  Uiso   1.00
O819   O     0.15693   0.12393   0.66625   0.00000  Uiso   1.00
O820   O     0.12687   0.20646   0.83749   0.00000  Uiso   1.00
O821   O     0.21088   0.17493   0.65877   0.00000  Uiso   1.00
O822   O     0.17198   0.16135   0.83749   0.00000  Uiso   1.00
O823   O     0.00835   0.16140   0.51819   0.00000  Uiso   1.00
O824   O     0.25471   0.03568   0.99730   0.00000  Uiso   1.00
O825   O     0.30820   0.07552   0.51884   0.00000  Uiso   1.00
O826   O     0.01601   0.21969   0.68543   0.00000  Uiso   1.00
O827   O     0.05420   0.23757   0.73053   0.00000  Uiso   1.00
O828   O     0.29851   0.09073   0.76049   0.00000  Uiso   1.00
O829   O     0.17849   0.08101   0.77820   0.00000  Uiso   1.00
O830   O     0.22140   0.31831   0.67007   0.00000  Uiso   1.00
O831   O     0.23661   0.04483   0.70675   0.00000  Uiso   1.00
O832   O     0.08662   0.00745   0.81281   0.00000  Uiso   1.00
O833   O     0.14124   0.31843   0.82908   0.00000  Uiso   1.00
O834   O     0.27055   0.11310   0.62495   0.00000  Uiso   1.00
O835   O     0.25889   0.04807   0.59520   0.00000  Uiso   1.00
O836   O     0.02467   0.24924   0.96744   0.00000  Uiso   1.00
O837   O     0.22610   0.20681   0.87507   0.00000  Uiso   1.00
O838   O     0.08109   0.10382   0.58392   0.00000  Uiso   1.00
O839   O     0.06204   0.16689   0.61335   0.00000  Uiso   1.00
O840   O     0.14581   0.26136   0.76767   0.00000  Uiso   1.00
O841   O     0.07452   0.13251   0.73607   0.00000  Uiso   1.00
O842   O     0.26785   0.19179   0.71805   0.00000  Uiso   1.00
O843   O     0.06990   0.18960   0.77820   0.00000  Uiso   1.00
O844   O     0.25440   0.15277   0.76767   0.00000  Uiso   1.00
O845   O     0.13800   0.06903   0.73607   0.00000  Uiso   1.00
O846   O     0.20437   0.25527   0.71805   0.00000  Uiso   1.00
Zn847  Zn    0.19244   0.14090   0.78277   0.00000  Uiso   1.00
Zn848  Zn    0.13459   0.12378   0.72257   0.00000  Uiso   1.00
Zn849  Zn    0.21166   0.19664   0.71188   0.00000  Uiso   1.00
Zn850  Zn    0.12798   0.20535   0.78277   0.00000  Uiso   1.00
C851   C     0.38624   0.15977   0.75845   0.00000  Uiso   1.00
C852   C     0.52649   0.12424   0.95852   0.00000  Uiso   1.00
C853   C     0.54892   0.10507   0.97758   0.00000  Uiso   1.00
C854   C     0.61445   0.17349   0.74117   0.00000  Uiso   1.00
C855   C     0.54145   0.11166   0.51909   0.00000  Uiso   1.00
C856   C     0.50821   0.13574   0.54120   0.00000  Uiso   1.00
C857   C     0.56706   0.09581   0.53881   0.00000  Uiso   1.00
C858   C     0.56196   0.10762   0.57999   0.00000  Uiso   1.00
C859   C     0.50551   0.14876   0.58127   0.00000  Uiso   1.00
C860   C     0.66008   0.17919   0.73989   0.00000  Uiso   1.00
C861   C     0.34145   0.15556   0.76083   0.00000  Uiso   1.00
C862   C     0.42894   0.20916   0.92119   0.00000  Uiso   1.00
C863   C     0.51340   0.32210   0.73713   0.00000  Uiso   1.00
C864   C     0.48610   0.01318   0.76391   0.00000  Uiso   1.00
C865   C     0.48928   0.05643   0.75927   0.00000  Uiso   1.00
C866   C     0.51013   0.27767   0.74120   0.00000  Uiso   1.00
C867   C     0.52166   0.14520   0.64381   0.00000  Uiso   1.00
C868   C     0.47935   0.18810   0.85628   0.00000  Uiso   1.00
C869   C     0.46782   0.19420   0.90021   0.00000  Uiso   1.00
C870   C     0.53147   0.13494   0.60064   0.00000  Uiso   1.00
C871   C     0.41404   0.20934   0.96260   0.00000  Uiso   1.00
C872   C     0.36615   0.17285   0.53890   0.00000  Uiso   1.00
C873   C     0.49410   0.18363   0.92175   0.00000  Uiso   1.00
C874   C     0.59909   0.06711   0.51667   0.00000  Uiso   1.00
C875   C     0.35518   0.21287   0.71656   0.00000  Uiso   1.00
C876   C     0.65069   0.11753   0.77903   0.00000  Uiso   1.00
C877   C     0.54682   0.00573   0.70232   0.00000  Uiso   1.00
C878   C     0.45766   0.00118   0.80289   0.00000  Uiso   1.00
C879   C     0.58726   0.09037   0.60167   0.00000  Uiso   1.00
C880   C     0.38066   0.23674   0.98439   0.00000  Uiso   1.00
C881   C     0.54195   0.19327   0.90713   0.00000  Uiso   1.00
C882   C     0.41507   0.14064   0.58065   0.00000  Uiso   1.00
C883   C     0.47445   0.17267   0.96119   0.00000  Uiso   1.00
C884   C     0.43370   0.18596   0.98227   0.00000  Uiso   1.00
C885   C     0.49451   0.14939   0.98024   0.00000  Uiso   1.00
C886   C     0.48032   0.14871   0.52189   0.00000  Uiso   1.00
C887   C     0.43768   0.15753   0.54195   0.00000  Uiso   1.00
C888   C     0.41359   0.17417   0.52144   0.00000  Uiso   1.00
H889   H     0.48367   0.17078   0.59785   0.00000  Uiso   1.00
H890   H     0.45212   0.31197   0.85480   0.00000  Uiso   1.00
H891   H     0.61159   0.04035   0.61020   0.00000  Uiso   1.00
H892   H     0.37654   0.24675   0.51571   0.00000  Uiso   1.00
H893   H     0.56214   0.19093   0.92605   0.00000  Uiso   1.00
H894   H     0.38145   0.15163   0.63788   0.00000  Uiso   1.00
H895   H     0.57379   0.08712   0.95902   0.00000  Uiso   1.00
H896   H     0.41093   0.22215   0.90535   0.00000  Uiso   1.00
H897   H     0.53397   0.11859   0.92646   0.00000  Uiso   1.00
H898   H     0.35254   0.18090   0.57040   0.00000  Uiso   1.00
H899   H     0.66010   0.05356   0.50284   0.00000  Uiso   1.00
H900   H     0.40416   0.25921   0.71203   0.00000  Uiso   1.00
H901   H     0.65248   0.11201   0.80810   0.00000  Uiso   1.00
H902   H     0.59234   0.05241   0.68140   0.00000  Uiso   1.00
O903   O     0.50000   0.16667   0.75000   0.00000  Uiso   1.00
O904   O     0.49027   0.12393   0.66625   0.00000  Uiso   1.00
O905   O     0.46020   0.20646   0.83749   0.00000  Uiso   1.00
O906   O     0.54421   0.17493   0.65877   0.00000  Uiso   1.00
O907   O     0.50532   0.16135   0.83749   0.00000  Uiso   1.00
O908   O     0.34169   0.16140   0.51819   0.00000  Uiso   1.00
O909   O     0.58804   0.03568   0.99730   0.00000  Uiso   1.00
O910   O     0.64154   0.07552   0.51884   0.00000  Uiso   1.00
O911   O     0.34935   0.21969   0.68543   0.00000  Uiso   1.00
O912   O     0.38753   0.23757   0.73053   0.00000  Uiso   1.00
O913   O     0.63184   0.09073   0.76049   0.00000  Uiso   1.00
O914   O     0.51182   0.08101   0.77820   0.00000  Uiso   1.00
O915   O     0.55474   0.31831   0.67007   0.00000  Uiso   1.00
O916   O     0.56994   0.04483   0.70675   0.00000  Uiso   1.00
O917   O     0.41996   0.00745   0.81281   0.00000  Uiso   1.00
O918   O     0.47457   0.31843   0.82908   0.00000  Uiso   1.00
O919   O     0.60389   0.11310   0.62495   0.00000  Uiso   1.00
O920   O     0.59223   0.04807   0.59520   0.00000  Uiso   1.00
O921   O     0.35801   0.24924   0.96744   0.00000  Uiso   1.00
O922   O     0.55944   0.20681   0.87507   0.00000  Uiso   1.00
O923   O     0.41443   0.10382   0.58392   0.00000  Uiso   1.00
O924   O     0.39537   0.16689   0.61335   0.00000  Uiso   1.00
O925   O     0.47914   0.26136   0.76767   0.00000  Uiso   1.00
O926   O     0.40785   0.13251   0.73607   0.00000  Uiso   1.00
O927   O     0.60119   0.19179   0.71805   0.00000  Uiso   1.00
O928   O     0.40323   0.18960   0.77820   0.00000  Uiso   1.00
O929   O     0.58773   0.15277   0.76767   0.00000  Uiso   1.00
O930   O     0.47133   0.06903   0.73607   0.00000  Uiso   1.00
O931   O     0.53771   0.25527   0.71805   0.00000  Uiso   1.00
Zn932  Zn    0.52577   0.14090   0.78277   0.00000  Uiso   1.00
Zn933  Zn    0.46792   0.12378   0.72257   0.00000  Uiso   1.00
Zn934  Zn    0.54500   0.19664   0.71188   0.00000  Uiso   1.00
Zn935  Zn    0.46131   0.20535   0.78277   0.00000  Uiso   1.00
C936   C     0.71957   0.15977   0.75845   0.00000  Uiso   1.00
C937   C     0.85982   0.12424   0.95852   0.00000  Uiso   1.00
C938   C     0.88225   0.10507   0.97758   0.00000  Uiso   1.00
C939   C     0.94778   0.17349   0.74117   0.00000  Uiso   1.00
C940   C     0.87478   0.11166   0.51909   0.00000  Uiso   1.00
C941   C     0.84155   0.13574   0.54120   0.00000  Uiso   1.00
C942   C     0.90039   0.09581   0.53881   0.00000  Uiso   1.00
C943   C     0.89529   0.10762   0.57999   0.00000  Uiso   1.00
C944   C     0.83884   0.14876   0.58127   0.00000  Uiso   1.00
C945   C     0.99341   0.17919   0.73989   0.00000  Uiso   1.00
C946   C     0.67478   0.15556   0.76083   0.00000  Uiso   1.00
C947   C     0.76228   0.20916   0.92119   0.00000  Uiso   1.00
C948   C     0.84673   0.32210   0.73713   0.00000  Uiso   1.00
C949   C     0.81944   0.01318   0.76391   0.00000  Uiso   1.00
C950   C     0.82261   0.05643   0.75927   0.00000  Uiso   1.00
C951   C     0.84346   0.27767   0.74120   0.00000  Uiso   1.00
C952   C     0.85500   0.14520   0.64381   0.00000  Uiso   1.00
C953   C     0.81268   0.18810   0.85628   0.00000  Uiso   1.00
C954   C     0.80115   0.19420   0.90021   0.00000  Uiso   1.00
C955   C     0.86480   0.13494   0.60064   0.00000  Uiso   1.00
C956   C     0.74737   0.20934   0.96260   0.00000  Uiso   1.00
C957   C     0.69949   0.17285   0.53890   0.00000  Uiso   1.00
C958   C     0.82744   0.18363   0.92175   0.00000  Uiso   1.00
C959   C     0.93243   0.06711   0.51667   0.00000  Uiso   1.00
C960   C     0.68851   0.21287   0.71656   0.00000  Uiso   1.00
C961   C     0.98402   0.11753   0.77903   0.00000  Uiso   1.00
C962   C     0.88015   0.00573   0.70232   0.00000  Uiso   1.00
C963   C     0.79099   0.00118   0.80289   0.00000  Uiso   1.00
C964   C     0.92059   0.09037   0.60167   0.00000  Uiso   1.00
C965   C     0.71399   0.23674   0.98439   0.00000  Uiso   1.00
C966   C     0.87528   0.19327   0.90713   0.00000  Uiso   1.00
C967   C     0.74840   0.14064   0.58065   0.00000  Uiso   1.00
C968   C     0.80778   0.17267   0.96119   0.00000  Uiso   1.00
C969   C     0.76703   0.18596   0.98227   0.00000  Uiso   1.00
C970   C     0.82785   0.14939   0.98024   0.00000  Uiso   1.00
C971   C     0.81365   0.14871   0.52189   0.00000  Uiso   1.00
C972   C     0.77101   0.15753   0.54195   0.00000  Uiso   1.00
C973   C     0.74692   0.17417   0.52144   0.00000  Uiso   1.00
H974   H     0.81701   0.17078   0.59785   0.00000  Uiso   1.00
H975   H     0.78545   0.31197   0.85480   0.00000  Uiso   1.00
H976   H     0.94492   0.04035   0.61020   0.00000  Uiso   1.00
H977   H     0.70987   0.24675   0.51571   0.00000  Uiso   1.00
H978   H     0.89547   0.19093   0.92605   0.00000  Uiso   1.00
H979   H     0.71478   0.15163   0.63788   0.00000  Uiso   1.00
H980   H     0.90712   0.08712   0.95902   0.00000  Uiso   1.00
H981   H     0.74427   0.22215   0.90535   0.00000  Uiso   1.00
H982   H     0.86730   0.11859   0.92646   0.00000  Uiso   1.00
H983   H     0.68587   0.18090   0.57040   0.00000  Uiso   1.00
H984   H     0.99344   0.05356   0.50284   0.00000  Uiso   1.00
H985   H     0.73749   0.25921   0.71203   0.00000  Uiso   1.00
H986   H     0.98582   0.11201   0.80810   0.00000  Uiso   1.00
H987   H     0.92568   0.05241   0.68140   0.00000  Uiso   1.00
O988   O     0.83333   0.16667   0.75000   0.00000  Uiso   1.00
O989   O     0.82360   0.12393   0.66625   0.00000  Uiso   1.00
O990   O     0.79354   0.20646   0.83749   0.00000  Uiso   1.00
O991   O     0.87755   0.17493   0.65877   0.00000  Uiso   1.00
O992   O     0.83865   0.16135   0.83749   0.00000  Uiso   1.00
O993   O     0.67502   0.16140   0.51819   0.00000  Uiso   1.00
O994   O     0.92138   0.03568   0.99730   0.00000  Uiso   1.00
O995   O     0.97487   0.07552   0.51884   0.00000  Uiso   1.00
O996   O     0.68268   0.21969   0.68543   0.00000  Uiso   1.00
O997   O     0.72087   0.23757   0.73053   0.00000  Uiso   1.00
O998   O     0.96518   0.09073   0.76049   0.00000  Uiso   1.00
O999   O     0.84515   0.08101   0.77820   0.00000  Uiso   1.00
O1000  O     0.88807   0.31831   0.67007   0.00000  Uiso   1.00
O1001  O     0.90328   0.04483   0.70675   0.00000  Uiso   1.00
O1002  O     0.75329   0.00745   0.81281   0.00000  Uiso   1.00
O1003  O     0.80790   0.31843   0.82908   0.00000  Uiso   1.00
O1004  O     0.93722   0.11310   0.62495   0.00000  Uiso   1.00
O1005  O     0.92556   0.04807   0.59520   0.00000  Uiso   1.00
O1006  O     0.69134   0.24924   0.96744   0.00000  Uiso   1.00
O1007  O     0.89277   0.20681   0.87507   0.00000  Uiso   1.00
O1008  O     0.74776   0.10382   0.58392   0.00000  Uiso   1.00
O1009  O     0.72871   0.16689   0.61335   0.00000  Uiso   1.00
O1010  O     0.81247   0.26136   0.76767   0.00000  Uiso   1.00
O1011  O     0.74119   0.13251   0.73607   0.00000  Uiso   1.00
O1012  O     0.93452   0.19179   0.71805   0.00000  Uiso   1.00
O1013  O     0.73656   0.18960   0.77820   0.00000  Uiso   1.00
O1014  O     0.92106   0.15277   0.76767   0.00000  Uiso   1.00
O1015  O     0.80467   0.06903   0.73607   0.00000  Uiso   1.00
O1016  O     0.87104   0.25527   0.71805   0.00000  Uiso   1.00
Zn1017 Zn    0.85910   0.14090   0.78277   0.00000  Uiso   1.00
Zn1018 Zn    0.80125   0.12378   0.72257   0.00000  Uiso   1.00
Zn1019 Zn    0.87833   0.19664   0.71188   0.00000  Uiso   1.00
Zn1020 Zn    0.79465   0.20535   0.78277   0.00000  Uiso   1.00
C1021  C     0.05291   0.49310   0.75845   0.00000  Uiso   1.00
C1022  C     0.19315   0.45758   0.95852   0.00000  Uiso   1.00
C1023  C     0.21558   0.43840   0.97758   0.00000  Uiso   1.00
C1024  C     0.28112   0.50683   0.74117   0.00000  Uiso   1.00
C1025  C     0.20812   0.44499   0.51909   0.00000  Uiso   1.00
C1026  C     0.17488   0.46908   0.54120   0.00000  Uiso   1.00
C1027  C     0.23372   0.42914   0.53881   0.00000  Uiso   1.00
C1028  C     0.22862   0.44095   0.57999   0.00000  Uiso   1.00
C1029  C     0.17218   0.48210   0.58127   0.00000  Uiso   1.00
C1030  C     0.32675   0.51253   0.73989   0.00000  Uiso   1.00
C1031  C     0.00812   0.48889   0.76083   0.00000  Uiso   1.00
C1032  C     0.09561   0.54250   0.92119   0.00000  Uiso   1.00
C1033  C     0.18006   0.65543   0.73713   0.00000  Uiso   1.00
C1034  C     0.15277   0.34651   0.76391   0.00000  Uiso   1.00
C1035  C     0.15594   0.38977   0.75927   0.00000  Uiso   1.00
C1036  C     0.17679   0.61100   0.74120   0.00000  Uiso   1.00
C1037  C     0.18833   0.47854   0.64381   0.00000  Uiso   1.00
C1038  C     0.14602   0.52143   0.85628   0.00000  Uiso   1.00
C1039  C     0.13449   0.52754   0.90021   0.00000  Uiso   1.00
C1040  C     0.19814   0.46827   0.60064   0.00000  Uiso   1.00
C1041  C     0.08070   0.54267   0.96260   0.00000  Uiso   1.00
C1042  C     0.03282   0.50618   0.53890   0.00000  Uiso   1.00
C1043  C     0.16077   0.51696   0.92175   0.00000  Uiso   1.00
C1044  C     0.26576   0.40045   0.51667   0.00000  Uiso   1.00
C1045  C     0.02185   0.54620   0.71656   0.00000  Uiso   1.00
C1046  C     0.31735   0.45086   0.77903   0.00000  Uiso   1.00
C1047  C     0.21348   0.33906   0.70232   0.00000  Uiso   1.00
C1048  C     0.12433   0.33452   0.80289   0.00000  Uiso   1.00
C1049  C     0.25393   0.42370   0.60167   0.00000  Uiso   1.00
C1050  C     0.04732   0.57007   0.98439   0.00000  Uiso   1.00
C1051  C     0.20862   0.52660   0.90713   0.00000  Uiso   1.00
C1052  C     0.08173   0.47398   0.58065   0.00000  Uiso   1.00
C1053  C     0.14112   0.50601   0.96119   0.00000  Uiso   1.00
C1054  C     0.10036   0.51929   0.98227   0.00000  Uiso   1.00
C1055  C     0.16118   0.48272   0.98024   0.00000  Uiso   1.00
C1056  C     0.14699   0.48205   0.52189   0.00000  Uiso   1.00
C1057  C     0.10435   0.49086   0.54195   0.00000  Uiso   1.00
C1058  C     0.08025   0.50750   0.52144   0.00000  Uiso   1.00
H1059  H     0.15034   0.50411   0.59785   0.00000  Uiso   1.00
H1060  H     0.11878   0.64531   0.85480   0.00000  Uiso   1.00
H1061  H     0.27825   0.37368   0.61020   0.00000  Uiso   1.00
H1062  H     0.04320   0.58009   0.51571   0.00000  Uiso   1.00
H1063  H     0.22880   0.52426   0.92605   0.00000  Uiso   1.00
H1064  H     0.04812   0.48497   0.63788   0.00000  Uiso   1.00
H1065  H     0.24046   0.42045   0.95902   0.00000  Uiso   1.00
H1066  H     0.07760   0.55548   0.90535   0.00000  Uiso   1.00
H1067  H     0.20063   0.45192   0.92646   0.00000  Uiso   1.00
H1068  H     0.01920   0.51424   0.57040   0.00000  Uiso   1.00
H1069  H     0.32677   0.38690   0.50284   0.00000  Uiso   1.00
H1070  H     0.07082   0.59254   0.71203   0.00000  Uiso   1.00
H1071  H     0.31915   0.44535   0.80810   0.00000  Uiso   1.00
H1072  H     0.25901   0.38574   0.68140   0.00000  Uiso   1.00
O1073  O     0.16667   0.50000   0.75000   0.00000  Uiso   1.00
O1074  O     0.15693   0.45726   0.66625   0.00000  Uiso   1.00
O1075  O     0.12687   0.53979   0.83749   0.00000  Uiso   1.00
O1076  O     0.21088   0.50826   0.65877   0.00000  Uiso   1.00
O1077  O     0.17198   0.49468   0.83749   0.00000  Uiso   1.00
O1078  O     0.00835   0.49473   0.51819   0.00000  Uiso   1.00
O1079  O     0.25471   0.36901   0.99730   0.00000  Uiso   1.00
O1080  O     0.30820   0.40885   0.51884   0.00000  Uiso   1.00
O1081  O     0.01601   0.55303   0.68543   0.00000  Uiso   1.00
O1082  O     0.05420   0.57091   0.73053   0.00000  Uiso   1.00
O1083  O     0.29851   0.42406   0.76049   0.00000  Uiso   1.00
O1084  O     0.17849   0.41434   0.77820   0.00000  Uiso   1.00
O1085  O     0.22140   0.65164   0.67007   0.00000  Uiso   1.00
O1086  O     0.23661   0.37816   0.70675   0.00000  Uiso   1.00
O1087  O     0.08662   0.34078   0.81281   0.00000  Uiso   1.00
O1088  O     0.14124   0.65177   0.82908   0.00000  Uiso   1.00
O1089  O     0.27055   0.44643   0.62495   0.00000  Uiso   1.00
O1090  O     0.25889   0.38141   0.59520   0.00000  Uiso   1.00
O1091  O     0.02467   0.58257   0.96744   0.00000  Uiso   1.00
O1092  O     0.22610   0.54015   0.87507   0.00000  Uiso   1.00
O1093  O     0.08109   0.43715   0.58392   0.00000  Uiso   1.00
O1094  O     0.06204   0.50023   0.61335   0.00000  Uiso   1.00
O1095  O     0.14581   0.59469   0.76767   0.00000  Uiso   1.00
O1096  O     0.07452   0.46584   0.73607   0.00000  Uiso   1.00
O1097  O     0.26785   0.52512   0.71805   0.00000  Uiso   1.00
O1098  O     0.06990   0.52293   0.77820   0.00000  Uiso   1.00
O1099  O     0.25440   0.48610   0.76767   0.00000  Uiso   1.00
O1100  O     0.13800   0.40236   0.73607   0.00000  Uiso   1.00
O1101  O     0.20437   0.58860   0.71805   0.00000  Uiso   1.00
Zn1102 Zn    0.19244   0.47423   0.78277   0.00000  Uiso   1.00
Zn1103 Zn    0.13459   0.45711   0.72257   0.00000  Uiso   1.00
Zn1104 Zn    0.21166   0.52997   0.71188   0.00000  Uiso   1.00
Zn1105 Zn    0.12798   0.53868   0.78277   0.00000  Uiso   1.00
C1106  C     0.38624   0.49310   0.75845   0.00000  Uiso   1.00
C1107  C     0.52649   0.45758   0.95852   0.00000  Uiso   1.00
C1108  C     0.54892   0.43840   0.97758   0.00000  Uiso   1.00
C1109  C     0.61445   0.50683   0.74117   0.00000  Uiso   1.00
C1110  C     0.54145   0.44499   0.51909   0.00000  Uiso   1.00
C1111  C     0.50821   0.46908   0.54120   0.00000  Uiso   1.00
C1112  C     0.56706   0.42914   0.53881   0.00000  Uiso   1.00
C1113  C     0.56196   0.44095   0.57999   0.00000  Uiso   1.00
C1114  C     0.50551   0.48210   0.58127   0.00000  Uiso   1.00
C1115  C     0.66008   0.51253   0.73989   0.00000  Uiso   1.00
C1116  C     0.34145   0.48889   0.76083   0.00000  Uiso   1.00
C1117  C     0.42894   0.54250   0.92119   0.00000  Uiso   1.00
C1118  C     0.51340   0.65543   0.73713   0.00000  Uiso   1.00
C1119  C     0.48610   0.34651   0.76391   0.00000  Uiso   1.00
C1120  C     0.48928   0.38977   0.75927   0.00000  Uiso   1.00
C1121  C     0.51013   0.61100   0.74120   0.00000  Uiso   1.00
C1122  C     0.52166   0.47854   0.64381   0.00000  Uiso   1.00
C1123  C     0.47935   0.52143   0.85628   0.00000  Uiso   1.00
C1124  C     0.46782   0.52754   0.90021   0.00000  Uiso   1.00
C1125  C     0.53147   0.46827   0.60064   0.00000  Uiso   1.00
C1126  C     0.41404   0.54267   0.96260   0.00000  Uiso   1.00
C1127  C     0.36615   0.50618   0.53890   0.00000  Uiso   1.00
C1128  C     0.49410   0.51696   0.92175   0.00000  Uiso   1.00
C1129  C     0.59909   0.40045   0.51667   0.00000  Uiso   1.00
C1130  C     0.35518   0.54620   0.71656   0.00000  Uiso   1.00
C1131  C     0.65069   0.45086   0.77903   0.00000  Uiso   1.00
C1132  C     0.54682   0.33906   0.70232   0.00000  Uiso   1.00
C1133  C     0.45766   0.33452   0.80289   0.00000  Uiso   1.00
C1134  C     0.58726   0.42370   0.60167   0.00000  Uiso   1.00
C1135  C     0.38066   0.57007   0.98439   0.00000  Uiso   1.00
C1136  C     0.54195   0.52660   0.90713   0.00000  Uiso   1.00
C1137  C     0.41507   0.47398   0.58065   0.00000  Uiso   1.00
C1138  C     0.47445   0.50601   0.96119   0.00000  Uiso   1.00
C1139  C     0.43370   0.51929   0.98227   0.00000  Uiso   1.00
C1140  C     0.49451   0.48272   0.98024   0.00000  Uiso   1.00
C1141  C     0.48032   0.48205   0.52189   0.00000  Uiso   1.00
C1142  C     0.43768   0.49086   0.54195   0.00000  Uiso   1.00
C1143  C     0.41359   0.50750   0.52144   0.00000  Uiso   1.00
H1144  H     0.48367   0.50411   0.59785   0.00000  Uiso   1.00
H1145  H     0.45212   0.64531   0.85480   0.00000  Uiso   1.00
H1146  H     0.61159   0.37368   0.61020   0.00000  Uiso   1.00
H1147  H     0.37654   0.58009   0.51571   0.00000  Uiso   1.00
H1148  H     0.56214   0.52426   0.92605   0.00000  Uiso   1.00
H1149  H     0.38145   0.48497   0.63788   0.00000  Uiso   1.00
H1150  H     0.57379   0.42045   0.95902   0.00000  Uiso   1.00
H1151  H     0.41093   0.55548   0.90535   0.00000  Uiso   1.00
H1152  H     0.53397   0.45192   0.92646   0.00000  Uiso   1.00
H1153  H     0.35254   0.51424   0.57040   0.00000  Uiso   1.00
H1154  H     0.66010   0.38690   0.50284   0.00000  Uiso   1.00
H1155  H     0.40416   0.59254   0.71203   0.00000  Uiso   1.00
H1156  H     0.65248   0.44535   0.80810   0.00000  Uiso   1.00
H1157  H     0.59234   0.38574   0.68140   0.00000  Uiso   1.00
O1158  O     0.50000   0.50000   0.75000   0.00000  Uiso   1.00
O1159  O     0.49027   0.45726   0.66625   0.00000  Uiso   1.00
O1160  O     0.46020   0.53979   0.83749   0.00000  Uiso   1.00
O1161  O     0.54421   0.50826   0.65877   0.00000  Uiso   1.00
O1162  O     0.50532   0.49468   0.83749   0.00000  Uiso   1.00
O1163  O     0.34169   0.49473   0.51819   0.00000  Uiso   1.00
O1164  O     0.58804   0.36901   0.99730   0.00000  Uiso   1.00
O1165  O     0.64154   0.40885   0.51884   0.00000  Uiso   1.00
O1166  O     0.34935   0.55303   0.68543   0.00000  Uiso   1.00
O1167  O     0.38753   0.57091   0.73053   0.00000  Uiso   1.00
O1168  O     0.63184   0.42406   0.76049   0.00000  Uiso   1.00
O1169  O     0.51182   0.41434   0.77820   0.00000  Uiso   1.00
O1170  O     0.55474   0.65164   0.67007   0.00000  Uiso   1.00
O1171  O     0.56994   0.37816   0.70675   0.00000  Uiso   1.00
O1172  O     0.41996   0.34078   0.81281   0.00000  Uiso   1.00
O1173  O     0.47457   0.65177   0.82908   0.00000  Uiso   1.00
O1174  O     0.60389   0.44643   0.62495   0.00000  Uiso   1.00
O1175  O     0.59223   0.38141   0.59520   0.00000  Uiso   1.00
O1176  O     0.35801   0.58257   0.96744   0.00000  Uiso   1.00
O1177  O     0.55944   0.54015   0.87507   0.00000  Uiso   1.00
O1178  O     0.41443   0.43715   0.58392   0.00000  Uiso   1.00
O1179  O     0.39537   0.50023   0.61335   0.00000  Uiso   1.00
O1180  O     0.47914   0.59469   0.76767   0.00000  Uiso   1.00
O1181  O     0.40785   0.46584   0.73607   0.00000  Uiso   1.00
O1182  O     0.60119   0.52512   0.71805   0.00000  Uiso   1.00
O1183  O     0.40323   0.52293   0.77820   0.00000  Uiso   1.00
O1184  O     0.58773   0.48610   0.76767   0.00000  Uiso   1.00
O1185  O     0.47133   0.40236   0.73607   0.00000  Uiso   1.00
O1186  O     0.53771   0.58860   0.71805   0.00000  Uiso   1.00
Zn1187 Zn    0.52577   0.47423   0.78277   0.00000  Uiso   1.00
Zn1188 Zn    0.46792   0.45711   0.72257   0.00000  Uiso   1.00
Zn1189 Zn    0.54500   0.52997   0.71188   0.00000  Uiso   1.00
Zn1190 Zn    0.46131   0.53868   0.78277   0.00000  Uiso   1.00
C1191  C     0.71957   0.49310   0.75845   0.00000  Uiso   1.00
C1192  C     0.85982   0.45758   0.95852   0.00000  Uiso   1.00
C1193  C     0.88225   0.43840   0.97758   0.00000  Uiso   1.00
C1194  C     0.94778   0.50683   0.74117   0.00000  Uiso   1.00
C1195  C     0.87478   0.44499   0.51909   0.00000  Uiso   1.00
C1196  C     0.84155   0.46908   0.54120   0.00000  Uiso   1.00
C1197  C     0.90039   0.42914   0.53881   0.00000  Uiso   1.00
C1198  C     0.89529   0.44095   0.57999   0.00000  Uiso   1.00
C1199  C     0.83884   0.48210   0.58127   0.00000  Uiso   1.00
C1200  C     0.99341   0.51253   0.73989   0.00000  Uiso   1.00
C1201  C     0.67478   0.48889   0.76083   0.00000  Uiso   1.00
C1202  C     0.76228   0.54250   0.92119   0.00000  Uiso   1.00
C1203  C     0.84673   0.65543   0.73713   0.00000  Uiso   1.00
C1204  C     0.81944   0.34651   0.76391   0.00000  Uiso   1.00
C1205  C     0.82261   0.38977   0.75927   0.00000  Uiso   1.00
C1206  C     0.84346   0.61100   0.74120   0.00000  Uiso   1.00
C1207  C     0.85500   0.47854   0.64381   0.00000  Uiso   1.00
C1208  C     0.81268   0.52143   0.85628   0.00000  Uiso   1.00
C1209  C     0.80115   0.52754   0.90021   0.00000  Uiso   1.00
C1210  C     0.86480   0.46827   0.60064   0.00000  Uiso   1.00
C1211  C     0.74737   0.54267   0.96260   0.00000  Uiso   1.00
C1212  C     0.69949   0.50618   0.53890   0.00000  Uiso   1.00
C1213  C     0.82744   0.51696   0.92175   0.00000  Uiso   1.00
C1214  C     0.93243   0.40045   0.51667   0.00000  Uiso   1.00
C1215  C     0.68851   0.54620   0.71656   0.00000  Uiso   1.00
C1216  C     0.98402   0.45086   0.77903   0.00000  Uiso   1.00
C1217  C     0.88015   0.33906   0.70232   0.00000  Uiso   1.00
C1218  C     0.79099   0.33452   0.80289   0.00000  Uiso   1.00
C1219  C     0.92059   0.42370   0.60167   0.00000  Uiso   1.00
C1220  C     0.71399   0.57007   0.98439   0.00000  Uiso   1.00
C1221  C     0.87528   0.52660   0.90713   0.00000  Uiso   1.00
C1222  C     0.74840   0.47398   0.58065   0.00000  Uiso   1.00
C1223  C     0.80778   0.50601   0.96119   0.00000  Uiso   1.00
C1224  C     0.76703   0.51929   0.98227   0.00000  Uiso   1.00
C1225  C     0.82785   0.48272   0.98024   0.00000  Uiso   1.00
C1226  C     0.81365   0.48205   0.52189   0.00000  Uiso   1.00
C1227  C     0.77101   0.49086   0.54195   0.00000  Uiso   1.00
C1228  C     0.74692   0.50750   0.52144   0.00000  Uiso   1.00
H1229  H     0.81701   0.50411   0.59785   0.00000  Uiso   1.00
H1230  H     0.78545   0.64531   0.85480   0.00000  Uiso   1.00
H1231  H     0.94492   0.37368   0.61020   0.00000  Uiso   1.00
H1232  H     0.70987   0.58009   0.51571   0.00000  Uiso   1.00
H1233  H     0.89547   0.52426   0.92605   0.00000  Uiso   1.00
H1234  H     0.71478   0.48497   0.63788   0.00000  Uiso   1.00
H1235  H     0.90712   0.42045   0.95902   0.00000  Uiso   1.00
H1236  H     0.74427   0.55548   0.90535   0.00000  Uiso   1.00
H1237  H     0.86730   0.45192   0.92646   0.00000  Uiso   1.00
H1238  H     0.68587   0.51424   0.57040   0.00000  Uiso   1.00
H1239  H     0.99344   0.38690   0.50284   0.00000  Uiso   1.00
H1240  H     0.73749   0.59254   0.71203   0.00000  Uiso   1.00
H1241  H     0.98582   0.44535   0.80810   0.00000  Uiso   1.00
H1242  H     0.92568   0.38574   0.68140   0.00000  Uiso   1.00
O1243  O     0.83333   0.50000   0.75000   0.00000  Uiso   1.00
O1244  O     0.82360   0.45726   0.66625   0.00000  Uiso   1.00
O1245  O     0.79354   0.53979   0.83749   0.00000  Uiso   1.00
O1246  O     0.87755   0.50826   0.65877   0.00000  Uiso   1.00
O1247  O     0.83865   0.49468   0.83749   0.00000  Uiso   1.00
O1248  O     0.67502   0.49473   0.51819   0.00000  Uiso   1.00
O1249  O     0.92138   0.36901   0.99730   0.00000  Uiso   1.00
O1250  O     0.97487   0.40885   0.51884   0.00000  Uiso   1.00
O1251  O     0.68268   0.55303   0.68543   0.00000  Uiso   1.00
O1252  O     0.72087   0.57091   0.73053   0.00000  Uiso   1.00
O1253  O     0.96518   0.42406   0.76049   0.00000  Uiso   1.00
O1254  O     0.84515   0.41434   0.77820   0.00000  Uiso   1.00
O1255  O     0.88807   0.65164   0.67007   0.00000  Uiso   1.00
O1256  O     0.90328   0.37816   0.70675   0.00000  Uiso   1.00
O1257  O     0.75329   0.34078   0.81281   0.00000  Uiso   1.00
O1258  O     0.80790   0.65177   0.82908   0.00000  Uiso   1.00
O1259  O     0.93722   0.44643   0.62495   0.00000  Uiso   1.00
O1260  O     0.92556   0.38141   0.59520   0.00000  Uiso   1.00
O1261  O     0.69134   0.58257   0.96744   0.00000  Uiso   1.00
O1262  O     0.89277   0.54015   0.87507   0.00000  Uiso   1.00
O1263  O     0.74776   0.43715   0.58392   0.00000  Uiso   1.00
O1264  O     0.72871   0.50023   0.61335   0.00000  Uiso   1.00
O1265  O     0.81247   0.59469   0.76767   0.00000  Uiso   1.00
O1266  O     0.74119   0.46584   0.73607   0.00000  Uiso   1.00
O1267  O     0.93452   0.52512   0.71805   0.00000  Uiso   1.00
O1268  O     0.73656   0.52293   0.77820   0.00000  Uiso   1.00
O1269  O     0.92106   0.48610   0.76767   0.00000  Uiso   1.00
O1270  O     0.80467   0.40236   0.73607   0.00000  Uiso   1.00
O1271  O     0.87104   0.58860   0.71805   0.00000  Uiso   1.00
Zn1272 Zn    0.85910   0.47423   0.78277   0.00000  Uiso   1.00
Zn1273 Zn    0.80125   0.45711   0.72257   0.00000  Uiso   1.00
Zn1274 Zn    0.87833   0.52997   0.71188   0.00000  Uiso   1.00
Zn1275 Zn    0.79465   0.53868   0.78277   0.00000  Uiso   1.00
C1276  C     0.05291   0.82644   0.75845   0.00000  Uiso   1.00
C1277  C     0.19315   0.79091   0.95852   0.00000  Uiso   1.00
C1278  C     0.21558   0.77173   0.97758   0.00000  Uiso   1.00
C1279  C     0.28112   0.84016   0.74117   0.00000  Uiso   1.00
C1280  C     0.20812   0.77832   0.51909   0.00000  Uiso   1.00
C1281  C     0.17488   0.80241   0.54120   0.00000  Uiso   1.00
C1282  C     0.23372   0.76248   0.53881   0.00000  Uiso   1.00
C1283  C     0.22862   0.77428   0.57999   0.00000  Uiso   1.00
C1284  C     0.17218   0.81543   0.58127   0.00000  Uiso   1.00
C1285  C     0.32675   0.84586   0.73989   0.00000  Uiso   1.00
C1286  C     0.00812   0.82222   0.76083   0.00000  Uiso   1.00
C1287  C     0.09561   0.87583   0.92119   0.00000  Uiso   1.00
C1288  C     0.18006   0.98876   0.73713   0.00000  Uiso   1.00
C1289  C     0.15277   0.67984   0.76391   0.00000  Uiso   1.00
C1290  C     0.15594   0.72310   0.75927   0.00000  Uiso   1.00
C1291  C     0.17679   0.94433   0.74120   0.00000  Uiso   1.00
C1292  C     0.18833   0.81187   0.64381   0.00000  Uiso   1.00
C1293  C     0.14602   0.85476   0.85628   0.00000  Uiso   1.00
C1294  C     0.13449   0.86087   0.90021   0.00000  Uiso   1.00
C1295  C     0.19814   0.80160   0.60064   0.00000  Uiso   1.00
C1296  C     0.08070   0.87600   0.96260   0.00000  Uiso   1.00
C1297  C     0.03282   0.83952   0.53890   0.00000  Uiso   1.00
C1298  C     0.16077   0.85029   0.92175   0.00000  Uiso   1.00
C1299  C     0.26576   0.73378   0.51667   0.00000  Uiso   1.00
C1300  C     0.02185   0.87954   0.71656   0.00000  Uiso   1.00
C1301  C     0.31735   0.78419   0.77903   0.00000  Uiso   1.00
C1302  C     0.21348   0.67240   0.70232   0.00000  Uiso   1.00
C1303  C     0.12433   0.66785   0.80289   0.00000  Uiso   1.00
C1304  C     0.25393   0.75703   0.60167   0.00000  Uiso   1.00
C1305  C     0.04732   0.90341   0.98439   0.00000  Uiso   1.00
C1306  C     0.20862   0.85993   0.90713   0.00000  Uiso   1.00
C1307  C     0.08173   0.80731   0.58065   0.00000  Uiso   1.00
C1308  C     0.14112   0.83934   0.96119   0.00000  Uiso   1.00
C1309  C     0.10036   0.85263   0.98227   0.00000  Uiso   1.00
C1310  C     0.16118   0.81606   0.98024   0.00000  Uiso   1.00
C1311  C     0.14699   0.81538   0.52189   0.00000  Uiso   1.00
C1312  C     0.10435   0.82420   0.54195   0.00000  Uiso   1.00
C1313  C     0.08025   0.84084   0.52144   0.00000  Uiso   1.00
H1314  H     0.15034   0.83745   0.59785   0.00000  Uiso   1.00
H1315  H     0.11878   0.97864   0.85480   0.00000  Uiso   1.00
H1316  H     0.27825   0.70701   0.61020   0.00000  Uiso   1.00
H1317  H     0.04320   0.91342   0.51571   0.00000  Uiso   1.00
H1318  H     0.22880   0.85759   0.92605   0.00000  Uiso   1.00
H1319  H     0.04812   0.81830   0.63788   0.00000  Uiso   1.00
H1320  H     0.24046   0.75378   0.95902   0.00000  Uiso   1.00
H1321  H     0.07760   0.88882   0.90535   0.00000  Uiso   1.00
H1322  H     0.20063   0.78525   0.92646   0.00000  Uiso   1.00
H1323  H     0.01920   0.84757   0.57040   0.00000  Uiso   1.00
H1324  H     0.32677   0.72023   0.50284   0.00000  Uiso   1.00
H1325  H     0.07082   0.92588   0.71203   0.00000  Uiso   1.00
H1326  H     0.31915   0.77868   0.80810   0.00000  Uiso   1.00
H1327  H     0.25901   0.71908   0.68140   0.00000  Uiso   1.00
O1328  O     0.16667   0.83333   0.75000   0.00000  Uiso   1.00
O1329  O     0.15693   0.79060   0.66625   0.00000  Uiso   1.00
O1330  O     0.12687   0.87313   0.83749   0.00000  Uiso   1.00
O1331  O     0.21088   0.84159   0.65877   0.00000  Uiso   1.00
O1332  O     0.17198   0.82802   0.83749   0.00000  Uiso   1.00
O1333  O     0.00835   0.82807   0.51819   0.00000  Uiso   1.00
O1334  O     0.25471   0.70235   0.99730   0.00000  Uiso   1.00
O1335  O     0.30820   0.74219   0.51884   0.00000  Uiso   1.00
O1336  O     0.01601   0.88636   0.68543   0.00000  Uiso   1.00
O1337  O     0.05420   0.90424   0.73053   0.00000  Uiso   1.00
O1338  O     0.29851   0.75739   0.76049   0.00000  Uiso   1.00
O1339  O     0.17849   0.74768   0.77820   0.00000  Uiso   1.00
O1340  O     0.22140   0.98497   0.67007   0.00000  Uiso   1.00
O1341  O     0.23661   0.71150   0.70675   0.00000  Uiso   1.00
O1342  O     0.08662   0.67411   0.81281   0.00000  Uiso   1.00
O1343  O     0.14124   0.98510   0.82908   0.00000  Uiso   1.00
O1344  O     0.27055   0.77977   0.62495   0.00000  Uiso   1.00
O1345  O     0.25889   0.71474   0.59520   0.00000  Uiso   1.00
O1346  O     0.02467   0.91590   0.96744   0.00000  Uiso   1.00
O1347  O     0.22610   0.87348   0.87507   0.00000  Uiso   1.00
O1348  O     0.08109   0.77049   0.58392   0.00000  Uiso   1.00
O1349  O     0.06204   0.83356   0.61335   0.00000  Uiso   1.00
O1350  O     0.14581   0.92803   0.76767   0.00000  Uiso   1.00
O1351  O     0.07452   0.79917   0.73607   0.00000  Uiso   1.00
O1352  O     0.26785   0.85845   0.71805   0.00000  Uiso   1.00
O1353  O     0.06990   0.85627   0.77820   0.00000  Uiso   1.00
O1354  O     0.25440   0.81944   0.76767   0.00000  Uiso   1.00
O1355  O     0.13800   0.73570   0.73607   0.00000  Uiso   1.00
O1356  O     0.20437   0.92193   0.71805   0.00000  Uiso   1.00
Zn1357 Zn    0.19244   0.80756   0.78277   0.00000  Uiso   1.00
Zn1358 Zn    0.13459   0.79044   0.72257   0.00000  Uiso   1.00
Zn1359 Zn    0.21166   0.86331   0.71188   0.00000  Uiso   1.00
Zn1360 Zn    0.12798   0.87202   0.78277   0.00000  Uiso   1.00
C1361  C     0.38624   0.82644   0.75845   0.00000  Uiso   1.00
C1362  C     0.52649   0.79091   0.95852   0.00000  Uiso   1.00
C1363  C     0.54892   0.77173   0.97758   0.00000  Uiso   1.00
C1364  C     0.61445   0.84016   0.74117   0.00000  Uiso   1.00
C1365  C     0.54145   0.77832   0.51909   0.00000  Uiso   1.00
C1366  C     0.50821   0.80241   0.54120   0.00000  Uiso   1.00
C1367  C     0.56706   0.76248   0.53881   0.00000  Uiso   1.00
C1368  C     0.56196   0.77428   0.57999   0.00000  Uiso   1.00
C1369  C     0.50551   0.81543   0.58127   0.00000  Uiso   1.00
C1370  C     0.66008   0.84586   0.73989   0.00000  Uiso   1.00
C1371  C     0.34145   0.82222   0.76083   0.00000  Uiso   1.00
C1372  C     0.42894   0.87583   0.92119   0.00000  Uiso   1.00
C1373  C     0.51340   0.98876   0.73713   0.00000  Uiso   1.00
C1374  C     0.48610   0.67984   0.76391   0.00000  Uiso   1.00
C1375  C     0.48928   0.72310   0.75927   0.00000  Uiso   1.00
C1376  C     0.51013   0.94433   0.74120   0.00000  Uiso   1.00
C1377  C     0.52166   0.81187   0.64381   0.00000  Uiso   1.00
C1378  C     0.47935   0.85476   0.85628   0.00000  Uiso   1.00
C1379  C     0.46782   0.86087   0.90021   0.00000  Uiso   1.00
C1380  C     0.53147   0.80160   0.60064   0.00000  Uiso   1.00
C1381  C     0.41404   0.87600   0.96260   0.00000  Uiso   1.00
C1382  C     0.36615   0.83952   0.53890   0.00000  Uiso   1.00
C1383  C     0.49410   0.85029   0.92175   0.00000  Uiso   1.00
C1384  C     0.59909   0.73378   0.51667   0.00000  Uiso   1.00
C1385  C     0.35518   0.87954   0.71656   0.00000  Uiso   1.00
C1386  C     0.65069   0.78419   0.77903   0.00000  Uiso   1.00
C1387  C     0.54682   0.67240   0.70232   0.00000  Uiso   1.00
C1388  C     0.45766   0.66785   0.80289   0.00000  Uiso   1.00
C1389  C     0.58726   0.75703   0.60167   0.00000  Uiso   1.00
C1390  C     0.38066   0.90341   0.98439   0.00000  Uiso   1.00
C1391  C     0.54195   0.85993   0.90713   0.00000  Uiso   1.00
C1392  C     0.41507   0.80731   0.58065   0.00000  Uiso   1.00
C1393  C     0.47445   0.83934   0.96119   0.00000  Uiso   1.00
C1394  C     0.43370   0.85263   0.98227   0.00000  Uiso   1.00
C1395  C     0.49451   0.81606   0.98024   0.00000  Uiso   1.00
C1396  C     0.48032   0.81538   0.52189   0.00000  Uiso   1.00
C1397  C     0.43768   0.82420   0.54195   0.00000  Uiso   1.00
C1398  C     0.41359   0.84084   0.52144   0.00000  Uiso   1.00
H1399  H     0.48367   0.83745   0.59785   0.00000  Uiso   1.00
H1400  H     0.45212   0.97864   0.85480   0.00000  Uiso   1.00
H1401  H     0.61159   0.70701   0.61020   0.00000  Uiso   1.00
H1402  H     0.37654   0.91342   0.51571   0.00000  Uiso   1.00
H1403  H     0.56214   0.85759   0.92605   0.00000  Uiso   1.00
H1404  H     0.38145   0.81830   0.63788   0.00000  Uiso   1.00
H1405  H     0.57379   0.75378   0.95902   0.00000  Uiso   1.00
H1406  H     0.41093   0.88882   0.90535   0.00000  Uiso   1.00
H1407  H     0.53397   0.78525   0.92646   0.00000  Uiso   1.00
H1408  H     0.35254   0.84757   0.57040   0.00000  Uiso   1.00
H1409  H     0.66010   0.72023   0.50284   0.00000  Uiso   1.00
H1410  H     0.40416   0.92588   0.71203   0.00000  Uiso   1.00
H1411  H     0.65248   0.77868   0.80810   0.00000  Uiso   1.00
H1412  H     0.59234   0.71908   0.68140   0.00000  Uiso   1.00
O1413  O     0.50000   0.83333   0.75000   0.00000  Uiso   1.00
O1414  O     0.49027   0.79060   0.66625   0.00000  Uiso   1.00
O1415  O     0.46020   0.87313   0.83749   0.00000  Uiso   1.00
O1416  O     0.54421   0.84159   0.65877   0.00000  Uiso   1.00
O1417  O     0.50532   0.82802   0.83749   0.00000  Uiso   1.00
O1418  O     0.34169   0.82807   0.51819   0.00000  Uiso   1.00
O1419  O     0.58804   0.70235   0.99730   0.00000  Uiso   1.00
O1420  O     0.64154   0.74219   0.51884   0.00000  Uiso   1.00
O1421  O     0.34935   0.88636   0.68543   0.00000  Uiso   1.00
O1422  O     0.38753   0.90424   0.73053   0.00000  Uiso   1.00
O1423  O     0.63184   0.75739   0.76049   0.00000  Uiso   1.00
O1424  O     0.51182   0.74768   0.77820   0.00000  Uiso   1.00
O1425  O     0.55474   0.98497   0.67007   0.00000  Uiso   1.00
O1426  O     0.56994   0.71150   0.70675   0.00000  Uiso   1.00
O1427  O     0.41996   0.67411   0.81281   0.00000  Uiso   1.00
O1428  O     0.47457   0.98510   0.82908   0.00000  Uiso   1.00
O1429  O     0.60389   0.77977   0.62495   0.00000  Uiso   1.00
O1430  O     0.59223   0.71474   0.59520   0.00000  Uiso   1.00
O1431  O     0.35801   0.91590   0.96744   0.00000  Uiso   1.00
O1432  O     0.55944   0.87348   0.87507   0.00000  Uiso   1.00
O1433  O     0.41443   0.77049   0.58392   0.00000  Uiso   1.00
O1434  O     0.39537   0.83356   0.61335   0.00000  Uiso   1.00
O1435  O     0.47914   0.92803   0.76767   0.00000  Uiso   1.00
O1436  O     0.40785   0.79917   0.73607   0.00000  Uiso   1.00
O1437  O     0.60119   0.85845   0.71805   0.00000  Uiso   1.00
O1438  O     0.40323   0.85627   0.77820   0.00000  Uiso   1.00
O1439  O     0.58773   0.81944   0.76767   0.00000  Uiso   1.00
O1440  O     0.47133   0.73570   0.73607   0.00000  Uiso   1.00
O1441  O     0.53771   0.92193   0.71805   0.00000  Uiso   1.00
Zn1442 Zn    0.52577   0.80756   0.78277   0.00000  Uiso   1.00
Zn1443 Zn    0.46792   0.79044   0.72257   0.00000  Uiso   1.00
Zn1444 Zn    0.54500   0.86331   0.71188   0.00000  Uiso   1.00
Zn1445 Zn    0.46131   0.87202   0.78277   0.00000  Uiso   1.00
C1446  C     0.71957   0.82644   0.75845   0.00000  Uiso   1.00
C1447  C     0.85982   0.79091   0.95852   0.00000  Uiso   1.00
C1448  C     0.88225   0.77173   0.97758   0.00000  Uiso   1.00
C1449  C     0.94778   0.84016   0.74117   0.00000  Uiso   1.00
C1450  C     0.87478   0.77832   0.51909   0.00000  Uiso   1.00
C1451  C     0.84155   0.80241   0.54120   0.00000  Uiso   1.00
C1452  C     0.90039   0.76248   0.53881   0.00000  Uiso   1.00
C1453  C     0.89529   0.77428   0.57999   0.00000  Uiso   1.00
C1454  C     0.83884   0.81543   0.58127   0.00000  Uiso   1.00
C1455  C     0.99341   0.84586   0.73989   0.00000  Uiso   1.00
C1456  C     0.67478   0.82222   0.76083   0.00000  Uiso   1.00
C1457  C     0.76228   0.87583   0.92119   0.00000  Uiso   1.00
C1458  C     0.84673   0.98876   0.73713   0.00000  Uiso   1.00
C1459  C     0.81944   0.67984   0.76391   0.00000  Uiso   1.00
C1460  C     0.82261   0.72310   0.75927   0.00000  Uiso   1.00
C1461  C     0.84346   0.94433   0.74120   0.00000  Uiso   1.00
C1462  C     0.85500   0.81187   0.64381   0.00000  Uiso   1.00
C1463  C     0.81268   0.85476   0.85628   0.00000  Uiso   1.00
C1464  C     0.80115   0.86087   0.90021   0.00000  Uiso   1.00
C1465  C     0.86480   0.80160   0.60064   0.00000  Uiso   1.00
C1466  C     0.74737   0.87600   0.96260   0.00000  Uiso   1.00
C1467  C     0.69949   0.83952   0.53890   0.00000  Uiso   1.00
C1468  C     0.82744   0.85029   0.92175   0.00000  Uiso   1.00
C1469  C     0.93243   0.73378   0.51667   0.00000  Uiso   1.00
C1470  C     0.68851   0.87954   0.71656   0.00000  Uiso   1.00
C1471  C     0.98402   0.78419   0.77903   0.00000  Uiso   1.00
C1472  C     0.88015   0.67240   0.70232   0.00000  Uiso   1.00
C1473  C     0.79099   0.66785   0.80289   0.00000  Uiso   1.00
C1474  C     0.92059   0.75703   0.60167   0.00000  Uiso   1.00
C1475  C     0.71399   0.90341   0.98439   0.00000  Uiso   1.00
C1476  C     0.87528   0.85993   0.90713   0.00000  Uiso   1.00
C1477  C     0.74840   0.80731   0.58065   0.00000  Uiso   1.00
C1478  C     0.80778   0.83934   0.96119   0.00000  Uiso   1.00
C1479  C     0.76703   0.85263   0.98227   0.00000  Uiso   1.00
C1480  C     0.82785   0.81606   0.98024   0.00000  Uiso   1.00
C1481  C     0.81365   0.81538   0.52189   0.00000  Uiso   1.00
C1482  C     0.77101   0.82420   0.54195   0.00000  Uiso   1.00
C1483  C     0.74692   0.84084   0.52144   0.00000  Uiso   1.00
H1484  H     0.81701   0.83745   0.59785   0.00000  Uiso   1.00
H1485  H     0.78545   0.97864   0.85480   0.00000  Uiso   1.00
H1486  H     0.94492   0.70701   0.61020   0.00000  Uiso   1.00
H1487  H     0.70987   0.91342   0.51571   0.00000  Uiso   1.00
H1488  H     0.89547   0.85759   0.92605   0.00000  Uiso   1.00
H1489  H     0.71478   0.81830   0.63788   0.00000  Uiso   1.00
H1490  H     0.90712   0.75378   0.95902   0.00000  Uiso   1.00
H1491  H     0.74427   0.88882   0.90535   0.00000  Uiso   1.00
H1492  H     0.86730   0.78525   0.92646   0.00000  Uiso   1.00
H1493  H     0.68587   0.84757   0.57040   0.00000  Uiso   1.00
H1494  H     0.99344   0.72023   0.50284   0.00000  Uiso   1.00
H1495  H     0.73749   0.92588   0.71203   0.00000  Uiso   1.00
H1496  H     0.98582   0.77868   0.80810   0.00000  Uiso   1.00
H1497  H     0.92568   0.71908   0.68140   0.00000  Uiso   1.00
O1498  O     0.83333   0.83333   0.75000   0.00000  Uiso   1.00
O1499  O     0.82360   0.79060   0.66625   0.00000  Uiso   1.00
O1500  O     0.79354   0.87313   0.83749   0.00000  Uiso   1.00
O1501  O     0.87755   0.84159   0.65877   0.00000  Uiso   1.00
O1502  O     0.83865   0.82802   0.83749   0.00000  Uiso   1.00
O1503  O     0.67502   0.82807   0.51819   0.00000  Uiso   1.00
O1504  O     0.92138   0.70235   0.99730   0.00000  Uiso   1.00
O1505  O     0.97487   0.74219   0.51884   0.00000  Uiso   1.00
O1506  O     0.68268   0.88636   0.68543   0.00000  Uiso   1.00
O1507  O     0.72087   0.90424   0.73053   0.00000  Uiso   1.00
O1508  O     0.96518   0.75739   0.76049   0.00000  Uiso   1.00
O1509  O     0.84515   0.74768   0.77820   0.00000  Uiso   1.00
O1510  O     0.88807   0.98497   0.67007   0.00000  Uiso   1.00
O1511  O     0.90328   0.71150   0.70675   0.00000  Uiso   1.00
O1512  O     0.75329   0.67411   0.81281   0.00000  Uiso   1.00
O1513  O     0.80790   0.98510   0.82908   0.00000  Uiso   1.00
O1514  O     0.93722   0.77977   0.62495   0.00000  Uiso   1.00
O1515  O     0.92556   0.71474   0.59520   0.00000  Uiso   1.00
O1516  O     0.69134   0.91590   0.96744   0.00000  Uiso   1.00
O1517  O     0.89277   0.87348   0.87507   0.00000  Uiso   1.00
O1518  O     0.74776   0.77049   0.58392   0.00000  Uiso   1.00
O1519  O     0.72871   0.83356   0.61335   0.00000  Uiso   1.00
O1520  O     0.81247   0.92803   0.76767   0.00000  Uiso   1.00
O1521  O     0.74119   0.79917   0.73607   0.00000  Uiso   1.00
O1522  O     0.93452   0.85845   0.71805   0.00000  Uiso   1.00
O1523  O     0.73656   0.85627   0.77820   0.00000  Uiso   1.00
O1524  O     0.92106   0.81944   0.76767   0.00000  Uiso   1.00
O1525  O     0.80467   0.73570   0.73607   0.00000  Uiso   1.00
O1526  O     0.87104   0.92193   0.71805   0.00000  Uiso   1.00
Zn1527 Zn    0.85910   0.80756   0.78277   0.00000  Uiso   1.00
Zn1528 Zn    0.80125   0.79044   0.72257   0.00000  Uiso   1.00
Zn1529 Zn    0.87833   0.86331   0.71188   0.00000  Uiso   1.00
Zn1530 Zn    0.79465   0.87202   0.78277   0.00000  Uiso   1.00
loop_
_geom_bond_atom_site_label_1
_geom_bond_atom_site_label_2
_geom_bond_distance
_geom_bond_site_symmetry_2
_ccdc_geom_bond_type
C1     C11     1.431   .     S
C1     O78     1.274   .     A
C1     O76     1.263   .     A
C2     C35     1.409   .     A
C2     H47     1.082   .     S
C2     C3      1.389   .     A
C3     H45     1.081   .     S
C3     C770    1.405   .     S
C4     O79     1.273   .     A
C4     C10     1.466   .     S
C4     O77     1.277   .     A
C5     C6      1.419   .     A
C5     C7      1.423   .     A
C5     C768    1.405   1_554 S
C6     C9      1.402   .     A
C6     C36     1.427   .     A
C7     C8      1.420   .     A
C7     C24     1.489   .     S
C8     C20     1.414   .     A
C8     C29     1.490   .     S
C9     H39     1.082   .     S
C9     C20     1.391   .     A
C10    C96     1.362   .     S
C10    C110    1.501   .     S
C11    C180    1.362   1_455 S
C11    C196    1.488   1_455 S
C12    H46     1.084   .     S
C12    C21     1.400   .     A
C12    C19     1.397   .     A
C13    C16     1.466   .     S
C13    C269    1.360   .     S
C13    C282    1.496   .     S
C14    C15     1.433   .     S
C14    C28     1.486   .     S
C14    C523    1.360   1_545 S
C15    O64     1.264   .     A
C15    O80     1.277   .     A
C16    O75     1.269   .     A
C16    O81     1.277   .     A
C17    C20     1.465   .     S
C17    O56     1.280   .     A
C17    O54     1.277   .     A
C18    C19     1.478   .     S
C18    O57     1.292   .     A
C18    O55     1.288   .     A
C19    C23     1.408   .     A
C21    C34     1.427   .     A
C21    C30     1.487   .     S
C22    H48     1.083   .     S
C22    C38     1.492   .     S
C22    O58     1.221   .     D
C23    C33     1.424   .     A
C23    C31     1.499   .     S
C24    O60     1.398   .     S
C24    O824    1.223   1_554 S
C25    O61     1.223   .     D
C25    O62     1.398   .     S
C25    C180    1.501   1_455 S
C26    O63     1.222   .     D
C26    H51     1.085   .     S
C26    C96     1.488   .     S
C27    O66     1.399   .     S
C27    C523    1.496   1_545 S
C27    O575    1.223   1_545 S
C28    O67     1.223   .     D
C28    O578    1.399   1_545 S
C29    O69     1.223   .     D
C29    O70     1.399   .     S
C30    O71     1.222   .     D
C30    H807    1.084   .     S
C31    H43     1.084   .     S
C31    O72     1.221   .     D
C32    O74     1.397   .     S
C32    O73     1.223   .     D
C32    C37     1.489   .     S
C33    C34     1.427   .     A
C33    C35     1.419   .     A
C34    C803    1.427   .     S
C35    C801    1.410   .     S
C36    C37     1.424   .     A
C36    C800    1.410   1_554 S
C37    C38     1.419   .     A
C38    C799    1.427   1_554 S
H40    O68     1.014   .     S
H41    O70     1.013   .     S
H42    C795    1.084   1_554 S
H44    O74     1.014   .     S
H49    O60     1.014   .     S
H50    O62     1.014   .     S
H52    O66     1.013   .     S
O53    Zn84    1.928   .     S
O53    Zn82    1.953   .     S
O53    Zn83    1.945   .     S
O53    Zn85    1.945   .     S
O54    Zn83    1.910   .     S
O55    Zn85    1.917   .     S
O56    Zn84    1.918   .     S
O57    Zn82    1.913   .     S
O59    C789    1.223   .     S
O64    Zn82    1.940   .     S
O65    C282    1.223   .     S
O68    C283    1.399   .     S
O75    Zn85    1.937   .     S
O76    Zn83    1.941   .     S
O77    Zn84    1.947   .     S
O78    Zn85    1.941   .     S
O79    Zn82    1.935   .     S
O80    Zn83    1.944   .     S
O81    Zn84    1.945   .     S
C86    C96     1.431   .     S
C86    O163    1.274   .     A
C86    O161    1.263   .     A
C87    C120    1.409   .     A
C87    H132    1.082   .     S
C87    C88     1.389   .     A
C88    H130    1.081   .     S
C88    C855    1.405   .     S
C89    O164    1.273   .     A
C89    C95     1.466   .     S
C89    O162    1.277   .     A
C90    C91     1.419   .     A
C90    C92     1.423   .     A
C90    C853    1.405   1_554 S
C91    C94     1.402   .     A
C91    C121    1.427   .     A
C92    C93     1.420   .     A
C92    C109    1.489   .     S
C93    C105    1.414   .     A
C93    C114    1.490   .     S
C94    H124    1.082   .     S
C94    C105    1.391   .     A
C95    C181    1.362   .     S
C95    C195    1.501   .     S
C97    H131    1.084   .     S
C97    C106    1.400   .     A
C97    C104    1.397   .     A
C98    C101    1.466   .     S
C98    C354    1.360   .     S
C98    C367    1.496   .     S
C99    C100    1.433   .     S
C99    C113    1.486   .     S
C99    C608    1.360   1_545 S
C100   O149    1.264   .     A
C100   O165    1.277   .     A
C101   O160    1.269   .     A
C101   O166    1.277   .     A
C102   C105    1.465   .     S
C102   O141    1.280   .     A
C102   O139    1.277   .     A
C103   C104    1.478   .     S
C103   O142    1.292   .     A
C103   O140    1.288   .     A
C104   C108    1.408   .     A
C106   C119    1.427   .     A
C106   C115    1.487   .     S
C107   H133    1.083   .     S
C107   C123    1.492   .     S
C107   O143    1.221   .     D
C108   C118    1.424   .     A
C108   C116    1.499   .     S
C109   O145    1.398   .     S
C109   O909    1.223   1_554 S
C110   O146    1.223   .     D
C110   O147    1.398   .     S
C111   O148    1.222   .     D
C111   H136    1.085   .     S
C111   C181    1.488   .     S
C112   O151    1.399   .     S
C112   C608    1.496   1_545 S
C112   O660    1.223   1_545 S
C113   O152    1.223   .     D
C113   O663    1.399   1_545 S
C114   O154    1.223   .     D
C114   O155    1.399   .     S
C115   O156    1.222   .     D
C115   H892    1.084   .     S
C116   H128    1.084   .     S
C116   O157    1.221   .     D
C117   O159    1.397   .     S
C117   O158    1.223   .     D
C117   C122    1.489   .     S
C118   C119    1.427   .     A
C118   C120    1.419   .     A
C119   C888    1.427   .     S
C120   C886    1.410   .     S
C121   C122    1.424   .     A
C121   C885    1.410   1_554 S
C122   C123    1.419   .     A
C123   C884    1.427   1_554 S
H125   O153    1.014   .     S
H126   O155    1.013   .     S
H127   C880    1.084   1_554 S
H129   O159    1.014   .     S
H134   O145    1.014   .     S
H135   O147    1.014   .     S
H137   O151    1.013   .     S
O138   Zn169   1.928   .     S
O138   Zn167   1.953   .     S
O138   Zn168   1.945   .     S
O138   Zn170   1.945   .     S
O139   Zn168   1.910   .     S
O140   Zn170   1.917   .     S
O141   Zn169   1.918   .     S
O142   Zn167   1.913   .     S
O144   C874    1.223   .     S
O149   Zn167   1.940   .     S
O150   C367    1.223   .     S
O153   C368    1.399   .     S
O160   Zn170   1.937   .     S
O161   Zn168   1.941   .     S
O162   Zn169   1.947   .     S
O163   Zn170   1.941   .     S
O164   Zn167   1.935   .     S
O165   Zn168   1.944   .     S
O166   Zn169   1.945   .     S
C171   C181    1.431   .     S
C171   O248    1.274   .     A
C171   O246    1.263   .     A
C172   C205    1.409   .     A
C172   H217    1.082   .     S
C172   C173    1.389   .     A
C173   H215    1.081   .     S
C173   C940    1.405   .     S
C174   O249    1.273   .     A
C174   C180    1.466   .     S
C174   O247    1.277   .     A
C175   C176    1.419   .     A
C175   C177    1.423   .     A
C175   C938    1.405   1_554 S
C176   C179    1.402   .     A
C176   C206    1.427   .     A
C177   C178    1.420   .     A
C177   C194    1.489   .     S
C178   C190    1.414   .     A
C178   C199    1.490   .     S
C179   H209    1.082   .     S
C179   C190    1.391   .     A
C180   C11     1.362   1_655 S
C180   C25     1.501   1_655 S
C182   H216    1.084   .     S
C182   C191    1.400   .     A
C182   C189    1.397   .     A
C183   C186    1.466   .     S
C183   C439    1.360   .     S
C183   C452    1.496   .     S
C184   C185    1.433   .     S
C184   C198    1.486   .     S
C184   C693    1.360   1_545 S
C185   O234    1.264   .     A
C185   O250    1.277   .     A
C186   O245    1.269   .     A
C186   O251    1.277   .     A
C187   C190    1.465   .     S
C187   O226    1.280   .     A
C187   O224    1.277   .     A
C188   C189    1.478   .     S
C188   O227    1.292   .     A
C188   O225    1.288   .     A
C189   C193    1.408   .     A
C191   C204    1.427   .     A
C191   C200    1.487   .     S
C192   H218    1.083   .     S
C192   C208    1.492   .     S
C192   O228    1.221   .     D
C193   C203    1.424   .     A
C193   C201    1.499   .     S
C194   O230    1.398   .     S
C194   O994    1.223   1_554 S
C195   O231    1.223   .     D
C195   O232    1.398   .     S
C196   O233    1.222   .     D
C196   H221    1.085   .     S
C196   C11     1.488   1_655 S
C197   O236    1.399   .     S
C197   C693    1.496   1_545 S
C197   O745    1.223   1_545 S
C198   O237    1.223   .     D
C198   O748    1.399   1_545 S
C199   O239    1.223   .     D
C199   O240    1.399   .     S
C200   O241    1.222   .     D
C200   H977    1.084   .     S
C201   H213    1.084   .     S
C201   O242    1.221   .     D
C202   O244    1.397   .     S
C202   O243    1.223   .     D
C202   C207    1.489   .     S
C203   C204    1.427   .     A
C203   C205    1.419   .     A
C204   C973    1.427   .     S
C205   C971    1.410   .     S
C206   C207    1.424   .     A
C206   C970    1.410   1_554 S
C207   C208    1.419   .     A
C208   C969    1.427   1_554 S
H210   O238    1.014   .     S
H211   O240    1.013   .     S
H212   C965    1.084   1_554 S
H214   O244    1.014   .     S
H219   O230    1.014   .     S
H220   O232    1.014   .     S
H222   O236    1.013   .     S
O223   Zn254   1.928   .     S
O223   Zn252   1.953   .     S
O223   Zn253   1.945   .     S
O223   Zn255   1.945   .     S
O224   Zn253   1.910   .     S
O225   Zn255   1.917   .     S
O226   Zn254   1.918   .     S
O227   Zn252   1.913   .     S
O229   C959    1.223   .     S
O234   Zn252   1.940   .     S
O235   C452    1.223   .     S
O238   C453    1.399   .     S
O245   Zn255   1.937   .     S
O246   Zn253   1.941   .     S
O247   Zn254   1.947   .     S
O248   Zn255   1.941   .     S
O249   Zn252   1.935   .     S
O250   Zn253   1.944   .     S
O251   Zn254   1.945   .     S
C256   C266    1.431   .     S
C256   O333    1.274   .     A
C256   O331    1.263   .     A
C257   C290    1.409   .     A
C257   H302    1.082   .     S
C257   C258    1.389   .     A
C258   H300    1.081   .     S
C258   C1025   1.405   .     S
C259   O334    1.273   .     A
C259   C265    1.466   .     S
C259   O332    1.277   .     A
C260   C261    1.419   .     A
C260   C262    1.423   .     A
C260   C1023   1.405   1_554 S
C261   C264    1.402   .     A
C261   C291    1.427   .     A
C262   C263    1.420   .     A
C262   C279    1.489   .     S
C263   C275    1.414   .     A
C263   C284    1.490   .     S
C264   H294    1.082   .     S
C264   C275    1.391   .     A
C265   C351    1.362   .     S
C265   C365    1.501   .     S
C266   C435    1.362   1_455 S
C266   C451    1.488   1_455 S
C267   H301    1.084   .     S
C267   C276    1.400   .     A
C267   C274    1.397   .     A
C268   C271    1.466   .     S
C268   C524    1.360   .     S
C268   C537    1.496   .     S
C269   C270    1.433   .     S
C269   C283    1.486   .     S
C270   O319    1.264   .     A
C270   O335    1.277   .     A
C271   O330    1.269   .     A
C271   O336    1.277   .     A
C272   C275    1.465   .     S
C272   O311    1.280   .     A
C272   O309    1.277   .     A
C273   C274    1.478   .     S
C273   O312    1.292   .     A
C273   O310    1.288   .     A
C274   C278    1.408   .     A
C276   C289    1.427   .     A
C276   C285    1.487   .     S
C277   H303    1.083   .     S
C277   C293    1.492   .     S
C277   O313    1.221   .     D
C278   C288    1.424   .     A
C278   C286    1.499   .     S
C279   O315    1.398   .     S
C279   O1079   1.223   1_554 S
C280   O316    1.223   .     D
C280   O317    1.398   .     S
C280   C435    1.501   1_455 S
C281   O318    1.222   .     D
C281   H306    1.085   .     S
C281   C351    1.488   .     S
C282   O321    1.399   .     S
C283   O322    1.223   .     D
C284   O324    1.223   .     D
C284   O325    1.399   .     S
C285   O326    1.222   .     D
C285   H1062   1.084   .     S
C286   H298    1.084   .     S
C286   O327    1.221   .     D
C287   O329    1.397   .     S
C287   O328    1.223   .     D
C287   C292    1.489   .     S
C288   C289    1.427   .     A
C288   C290    1.419   .     A
C289   C1058   1.427   .     S
C290   C1056   1.410   .     S
C291   C292    1.424   .     A
C291   C1055   1.410   1_554 S
C292   C293    1.419   .     A
C293   C1054   1.427   1_554 S
H295   O323    1.014   .     S
H296   O325    1.013   .     S
H297   C1050   1.084   1_554 S
H299   O329    1.014   .     S
H304   O315    1.014   .     S
H305   O317    1.014   .     S
H307   O321    1.013   .     S
O308   Zn339   1.928   .     S
O308   Zn337   1.953   .     S
O308   Zn338   1.945   .     S
O308   Zn340   1.945   .     S
O309   Zn338   1.910   .     S
O310   Zn340   1.917   .     S
O311   Zn339   1.918   .     S
O312   Zn337   1.913   .     S
O314   C1044   1.223   .     S
O319   Zn337   1.940   .     S
O320   C537    1.223   .     S
O323   C538    1.399   .     S
O330   Zn340   1.937   .     S
O331   Zn338   1.941   .     S
O332   Zn339   1.947   .     S
O333   Zn340   1.941   .     S
O334   Zn337   1.935   .     S
O335   Zn338   1.944   .     S
O336   Zn339   1.945   .     S
C341   C351    1.431   .     S
C341   O418    1.274   .     A
C341   O416    1.263   .     A
C342   C375    1.409   .     A
C342   H387    1.082   .     S
C342   C343    1.389   .     A
C343   H385    1.081   .     S
C343   C1110   1.405   .     S
C344   O419    1.273   .     A
C344   C350    1.466   .     S
C344   O417    1.277   .     A
C345   C346    1.419   .     A
C345   C347    1.423   .     A
C345   C1108   1.405   1_554 S
C346   C349    1.402   .     A
C346   C376    1.427   .     A
C347   C348    1.420   .     A
C347   C364    1.489   .     S
C348   C360    1.414   .     A
C348   C369    1.490   .     S
C349   H379    1.082   .     S
C349   C360    1.391   .     A
C350   C436    1.362   .     S
C350   C450    1.501   .     S
C352   H386    1.084   .     S
C352   C361    1.400   .     A
C352   C359    1.397   .     A
C353   C356    1.466   .     S
C353   C609    1.360   .     S
C353   C622    1.496   .     S
C354   C355    1.433   .     S
C354   C368    1.486   .     S
C355   O404    1.264   .     A
C355   O420    1.277   .     A
C356   O415    1.269   .     A
C356   O421    1.277   .     A
C357   C360    1.465   .     S
C357   O396    1.280   .     A
C357   O394    1.277   .     A
C358   C359    1.478   .     S
C358   O397    1.292   .     A
C358   O395    1.288   .     A
C359   C363    1.408   .     A
C361   C374    1.427   .     A
C361   C370    1.487   .     S
C362   H388    1.083   .     S
C362   C378    1.492   .     S
C362   O398    1.221   .     D
C363   C373    1.424   .     A
C363   C371    1.499   .     S
C364   O400    1.398   .     S
C364   O1164   1.223   1_554 S
C365   O401    1.223   .     D
C365   O402    1.398   .     S
C366   O403    1.222   .     D
C366   H391    1.085   .     S
C366   C436    1.488   .     S
C367   O406    1.399   .     S
C368   O407    1.223   .     D
C369   O409    1.223   .     D
C369   O410    1.399   .     S
C370   O411    1.222   .     D
C370   H1147   1.084   .     S
C371   H383    1.084   .     S
C371   O412    1.221   .     D
C372   O414    1.397   .     S
C372   O413    1.223   .     D
C372   C377    1.489   .     S
C373   C374    1.427   .     A
C373   C375    1.419   .     A
C374   C1143   1.427   .     S
C375   C1141   1.410   .     S
C376   C377    1.424   .     A
C376   C1140   1.410   1_554 S
C377   C378    1.419   .     A
C378   C1139   1.427   1_554 S
H380   O408    1.014   .     S
H381   O410    1.013   .     S
H382   C1135   1.084   1_554 S
H384   O414    1.014   .     S
H389   O400    1.014   .     S
H390   O402    1.014   .     S
H392   O406    1.013   .     S
O393   Zn424   1.928   .     S
O393   Zn422   1.953   .     S
O393   Zn423   1.945   .     S
O393   Zn425   1.945   .     S
O394   Zn423   1.910   .     S
O395   Zn425   1.917   .     S
O396   Zn424   1.918   .     S
O397   Zn422   1.913   .     S
O399   C1129   1.223   .     S
O404   Zn422   1.940   .     S
O405   C622    1.223   .     S
O408   C623    1.399   .     S
O415   Zn425   1.937   .     S
O416   Zn423   1.941   .     S
O417   Zn424   1.947   .     S
O418   Zn425   1.941   .     S
O419   Zn422   1.935   .     S
O420   Zn423   1.944   .     S
O421   Zn424   1.945   .     S
C426   C436    1.431   .     S
C426   O503    1.274   .     A
C426   O501    1.263   .     A
C427   C460    1.409   .     A
C427   H472    1.082   .     S
C427   C428    1.389   .     A
C428   H470    1.081   .     S
C428   C1195   1.405   .     S
C429   O504    1.273   .     A
C429   C435    1.466   .     S
C429   O502    1.277   .     A
C430   C431    1.419   .     A
C430   C432    1.423   .     A
C430   C1193   1.405   1_554 S
C431   C434    1.402   .     A
C431   C461    1.427   .     A
C432   C433    1.420   .     A
C432   C449    1.489   .     S
C433   C445    1.414   .     A
C433   C454    1.490   .     S
C434   H464    1.082   .     S
C434   C445    1.391   .     A
C435   C266    1.362   1_655 S
C435   C280    1.501   1_655 S
C437   H471    1.084   .     S
C437   C446    1.400   .     A
C437   C444    1.397   .     A
C438   C441    1.466   .     S
C438   C694    1.360   .     S
C438   C707    1.496   .     S
C439   C440    1.433   .     S
C439   C453    1.486   .     S
C440   O489    1.264   .     A
C440   O505    1.277   .     A
C441   O500    1.269   .     A
C441   O506    1.277   .     A
C442   C445    1.465   .     S
C442   O481    1.280   .     A
C442   O479    1.277   .     A
C443   C444    1.478   .     S
C443   O482    1.292   .     A
C443   O480    1.288   .     A
C444   C448    1.408   .     A
C446   C459    1.427   .     A
C446   C455    1.487   .     S
C447   H473    1.083   .     S
C447   C463    1.492   .     S
C447   O483    1.221   .     D
C448   C458    1.424   .     A
C448   C456    1.499   .     S
C449   O485    1.398   .     S
C449   O1249   1.223   1_554 S
C450   O486    1.223   .     D
C450   O487    1.398   .     S
C451   O488    1.222   .     D
C451   H476    1.085   .     S
C451   C266    1.488   1_655 S
C452   O491    1.399   .     S
C453   O492    1.223   .     D
C454   O494    1.223   .     D
C454   O495    1.399   .     S
C455   O496    1.222   .     D
C455   H1232   1.084   .     S
C456   H468    1.084   .     S
C456   O497    1.221   .     D
C457   O499    1.397   .     S
C457   O498    1.223   .     D
C457   C462    1.489   .     S
C458   C459    1.427   .     A
C458   C460    1.419   .     A
C459   C1228   1.427   .     S
C460   C1226   1.410   .     S
C461   C462    1.424   .     A
C461   C1225   1.410   1_554 S
C462   C463    1.419   .     A
C463   C1224   1.427   1_554 S
H465   O493    1.014   .     S
H466   O495    1.013   .     S
H467   C1220   1.084   1_554 S
H469   O499    1.014   .     S
H474   O485    1.014   .     S
H475   O487    1.014   .     S
H477   O491    1.013   .     S
O478   Zn509   1.928   .     S
O478   Zn507   1.953   .     S
O478   Zn508   1.945   .     S
O478   Zn510   1.945   .     S
O479   Zn508   1.910   .     S
O480   Zn510   1.917   .     S
O481   Zn509   1.918   .     S
O482   Zn507   1.913   .     S
O484   C1214   1.223   .     S
O489   Zn507   1.940   .     S
O490   C707    1.223   .     S
O493   C708    1.399   .     S
O500   Zn510   1.937   .     S
O501   Zn508   1.941   .     S
O502   Zn509   1.947   .     S
O503   Zn510   1.941   .     S
O504   Zn507   1.935   .     S
O505   Zn508   1.944   .     S
O506   Zn509   1.945   .     S
C511   C521    1.431   .     S
C511   O588    1.274   .     A
C511   O586    1.263   .     A
C512   C545    1.409   .     A
C512   H557    1.082   .     S
C512   C513    1.389   .     A
C513   H555    1.081   .     S
C513   C1280   1.405   .     S
C514   O589    1.273   .     A
C514   C520    1.466   .     S
C514   O587    1.277   .     A
C515   C516    1.419   .     A
C515   C517    1.423   .     A
C515   C1278   1.405   1_554 S
C516   C519    1.402   .     A
C516   C546    1.427   .     A
C517   C518    1.420   .     A
C517   C534    1.489   .     S
C518   C530    1.414   .     A
C518   C539    1.490   .     S
C519   H549    1.082   .     S
C519   C530    1.391   .     A
C520   C606    1.362   .     S
C520   C620    1.501   .     S
C521   C690    1.362   1_455 S
C521   C706    1.488   1_455 S
C522   H556    1.084   .     S
C522   C531    1.400   .     A
C522   C529    1.397   .     A
C523   C526    1.466   .     S
C523   C14     1.360   1_565 S
C523   C27     1.496   1_565 S
C524   C525    1.433   .     S
C524   C538    1.486   .     S
C525   O574    1.264   .     A
C525   O590    1.277   .     A
C526   O585    1.269   .     A
C526   O591    1.277   .     A
C527   C530    1.465   .     S
C527   O566    1.280   .     A
C527   O564    1.277   .     A
C528   C529    1.478   .     S
C528   O567    1.292   .     A
C528   O565    1.288   .     A
C529   C533    1.408   .     A
C531   C544    1.427   .     A
C531   C540    1.487   .     S
C532   H558    1.083   .     S
C532   C548    1.492   .     S
C532   O568    1.221   .     D
C533   C543    1.424   .     A
C533   C541    1.499   .     S
C534   O570    1.398   .     S
C534   O1334   1.223   1_554 S
C535   O571    1.223   .     D
C535   O572    1.398   .     S
C535   C690    1.501   1_455 S
C536   O573    1.222   .     D
C536   H561    1.085   .     S
C536   C606    1.488   .     S
C537   O576    1.399   .     S
C538   O577    1.223   .     D
C539   O579    1.223   .     D
C539   O580    1.399   .     S
C540   O581    1.222   .     D
C540   H1317   1.084   .     S
C541   H553    1.084   .     S
C541   O582    1.221   .     D
C542   O584    1.397   .     S
C542   O583    1.223   .     D
C542   C547    1.489   .     S
C543   C544    1.427   .     A
C543   C545    1.419   .     A
C544   C1313   1.427   .     S
C545   C1311   1.410   .     S
C546   C547    1.424   .     A
C546   C1310   1.410   1_554 S
C547   C548    1.419   .     A
C548   C1309   1.427   1_554 S
H550   O578    1.014   .     S
H551   O580    1.013   .     S
H552   C1305   1.084   1_554 S
H554   O584    1.014   .     S
H559   O570    1.014   .     S
H560   O572    1.014   .     S
H562   O576    1.013   .     S
O563   Zn594   1.928   .     S
O563   Zn592   1.953   .     S
O563   Zn593   1.945   .     S
O563   Zn595   1.945   .     S
O564   Zn593   1.910   .     S
O565   Zn595   1.917   .     S
O566   Zn594   1.918   .     S
O567   Zn592   1.913   .     S
O569   C1299   1.223   .     S
O574   Zn592   1.940   .     S
O575   C27     1.223   1_565 S
O578   C28     1.399   1_565 S
O585   Zn595   1.937   .     S
O586   Zn593   1.941   .     S
O587   Zn594   1.947   .     S
O588   Zn595   1.941   .     S
O589   Zn592   1.935   .     S
O590   Zn593   1.944   .     S
O591   Zn594   1.945   .     S
C596   C606    1.431   .     S
C596   O673    1.274   .     A
C596   O671    1.263   .     A
C597   C630    1.409   .     A
C597   H642    1.082   .     S
C597   C598    1.389   .     A
C598   H640    1.081   .     S
C598   C1365   1.405   .     S
C599   O674    1.273   .     A
C599   C605    1.466   .     S
C599   O672    1.277   .     A
C600   C601    1.419   .     A
C600   C602    1.423   .     A
C600   C1363   1.405   1_554 S
C601   C604    1.402   .     A
C601   C631    1.427   .     A
C602   C603    1.420   .     A
C602   C619    1.489   .     S
C603   C615    1.414   .     A
C603   C624    1.490   .     S
C604   H634    1.082   .     S
C604   C615    1.391   .     A
C605   C691    1.362   .     S
C605   C705    1.501   .     S
C607   H641    1.084   .     S
C607   C616    1.400   .     A
C607   C614    1.397   .     A
C608   C611    1.466   .     S
C608   C99     1.360   1_565 S
C608   C112    1.496   1_565 S
C609   C610    1.433   .     S
C609   C623    1.486   .     S
C610   O659    1.264   .     A
C610   O675    1.277   .     A
C611   O670    1.269   .     A
C611   O676    1.277   .     A
C612   C615    1.465   .     S
C612   O651    1.280   .     A
C612   O649    1.277   .     A
C613   C614    1.478   .     S
C613   O652    1.292   .     A
C613   O650    1.288   .     A
C614   C618    1.408   .     A
C616   C629    1.427   .     A
C616   C625    1.487   .     S
C617   H643    1.083   .     S
C617   C633    1.492   .     S
C617   O653    1.221   .     D
C618   C628    1.424   .     A
C618   C626    1.499   .     S
C619   O655    1.398   .     S
C619   O1419   1.223   1_554 S
C620   O656    1.223   .     D
C620   O657    1.398   .     S
C621   O658    1.222   .     D
C621   H646    1.085   .     S
C621   C691    1.488   .     S
C622   O661    1.399   .     S
C623   O662    1.223   .     D
C624   O664    1.223   .     D
C624   O665    1.399   .     S
C625   O666    1.222   .     D
C625   H1402   1.084   .     S
C626   H638    1.084   .     S
C626   O667    1.221   .     D
C627   O669    1.397   .     S
C627   O668    1.223   .     D
C627   C632    1.489   .     S
C628   C629    1.427   .     A
C628   C630    1.419   .     A
C629   C1398   1.427   .     S
C630   C1396   1.410   .     S
C631   C632    1.424   .     A
C631   C1395   1.410   1_554 S
C632   C633    1.419   .     A
C633   C1394   1.427   1_554 S
H635   O663    1.014   .     S
H636   O665    1.013   .     S
H637   C1390   1.084   1_554 S
H639   O669    1.014   .     S
H644   O655    1.014   .     S
H645   O657    1.014   .     S
H647   O661    1.013   .     S
O648   Zn679   1.928   .     S
O648   Zn677   1.953   .     S
O648   Zn678   1.945   .     S
O648   Zn680   1.945   .     S
O649   Zn678   1.910   .     S
O650   Zn680   1.917   .     S
O651   Zn679   1.918   .     S
O652   Zn677   1.913   .     S
O654   C1384   1.223   .     S
O659   Zn677   1.940   .     S
O660   C112    1.223   1_565 S
O663   C113    1.399   1_565 S
O670   Zn680   1.937   .     S
O671   Zn678   1.941   .     S
O672   Zn679   1.947   .     S
O673   Zn680   1.941   .     S
O674   Zn677   1.935   .     S
O675   Zn678   1.944   .     S
O676   Zn679   1.945   .     S
C681   C691    1.431   .     S
C681   O758    1.274   .     A
C681   O756    1.263   .     A
C682   C715    1.409   .     A
C682   H727    1.082   .     S
C682   C683    1.389   .     A
C683   H725    1.081   .     S
C683   C1450   1.405   .     S
C684   O759    1.273   .     A
C684   C690    1.466   .     S
C684   O757    1.277   .     A
C685   C686    1.419   .     A
C685   C687    1.423   .     A
C685   C1448   1.405   1_554 S
C686   C689    1.402   .     A
C686   C716    1.427   .     A
C687   C688    1.420   .     A
C687   C704    1.489   .     S
C688   C700    1.414   .     A
C688   C709    1.490   .     S
C689   H719    1.082   .     S
C689   C700    1.391   .     A
C690   C521    1.362   1_655 S
C690   C535    1.501   1_655 S
C692   H726    1.084   .     S
C692   C701    1.400   .     A
C692   C699    1.397   .     A
C693   C696    1.466   .     S
C693   C184    1.360   1_565 S
C693   C197    1.496   1_565 S
C694   C695    1.433   .     S
C694   C708    1.486   .     S
C695   O744    1.264   .     A
C695   O760    1.277   .     A
C696   O755    1.269   .     A
C696   O761    1.277   .     A
C697   C700    1.465   .     S
C697   O736    1.280   .     A
C697   O734    1.277   .     A
C698   C699    1.478   .     S
C698   O737    1.292   .     A
C698   O735    1.288   .     A
C699   C703    1.408   .     A
C701   C714    1.427   .     A
C701   C710    1.487   .     S
C702   H728    1.083   .     S
C702   C718    1.492   .     S
C702   O738    1.221   .     D
C703   C713    1.424   .     A
C703   C711    1.499   .     S
C704   O740    1.398   .     S
C704   O1504   1.223   1_554 S
C705   O741    1.223   .     D
C705   O742    1.398   .     S
C706   O743    1.222   .     D
C706   H731    1.085   .     S
C706   C521    1.488   1_655 S
C707   O746    1.399   .     S
C708   O747    1.223   .     D
C709   O749    1.223   .     D
C709   O750    1.399   .     S
C710   O751    1.222   .     D
C710   H1487   1.084   .     S
C711   H723    1.084   .     S
C711   O752    1.221   .     D
C712   O754    1.397   .     S
C712   O753    1.223   .     D
C712   C717    1.489   .     S
C713   C714    1.427   .     A
C713   C715    1.419   .     A
C714   C1483   1.427   .     S
C715   C1481   1.410   .     S
C716   C717    1.424   .     A
C716   C1480   1.410   1_554 S
C717   C718    1.419   .     A
C718   C1479   1.427   1_554 S
H720   O748    1.014   .     S
H721   O750    1.013   .     S
H722   C1475   1.084   1_554 S
H724   O754    1.014   .     S
H729   O740    1.014   .     S
H730   O742    1.014   .     S
H732   O746    1.013   .     S
O733   Zn764   1.928   .     S
O733   Zn762   1.953   .     S
O733   Zn763   1.945   .     S
O733   Zn765   1.945   .     S
O734   Zn763   1.910   .     S
O735   Zn765   1.917   .     S
O736   Zn764   1.918   .     S
O737   Zn762   1.913   .     S
O739   C1469   1.223   .     S
O744   Zn762   1.940   .     S
O745   C197    1.223   1_565 S
O748   C198    1.399   1_565 S
O755   Zn765   1.937   .     S
O756   Zn763   1.941   .     S
O757   Zn764   1.947   .     S
O758   Zn765   1.941   .     S
O759   Zn762   1.935   .     S
O760   Zn763   1.944   .     S
O761   Zn764   1.945   .     S
C766   C776    1.431   .     S
C766   O843    1.274   .     A
C766   O841    1.263   .     A
C767   C800    1.409   .     A
C767   H812    1.082   .     S
C767   C768    1.389   .     A
C768   H810    1.081   .     S
C768   C5      1.405   1_556 S
C769   O844    1.273   .     A
C769   C775    1.466   .     S
C769   O842    1.277   .     A
C770   C771    1.419   .     A
C770   C772    1.423   .     A
C771   C774    1.402   .     A
C771   C801    1.427   .     A
C772   C773    1.420   .     A
C772   C789    1.489   .     S
C773   C785    1.414   .     A
C773   C794    1.490   .     S
C774   H804    1.082   .     S
C774   C785    1.391   .     A
C775   C861    1.362   .     S
C775   C875    1.501   .     S
C776   C945    1.362   1_455 S
C776   C961    1.488   1_455 S
C777   H811    1.084   .     S
C777   C786    1.400   .     A
C777   C784    1.397   .     A
C778   C781    1.466   .     S
C778   C1034   1.360   .     S
C778   C1047   1.496   .     S
C779   C780    1.433   .     S
C779   C793    1.486   .     S
C779   C1288   1.360   1_545 S
C780   O829    1.264   .     A
C780   O845    1.277   .     A
C781   O840    1.269   .     A
C781   O846    1.277   .     A
C782   C785    1.465   .     S
C782   O821    1.280   .     A
C782   O819    1.277   .     A
C783   C784    1.478   .     S
C783   O822    1.292   .     A
C783   O820    1.288   .     A
C784   C788    1.408   .     A
C786   C799    1.427   .     A
C786   C795    1.487   .     S
C787   H813    1.083   .     S
C787   C803    1.492   .     S
C787   O823    1.221   .     D
C788   C798    1.424   .     A
C788   C796    1.499   .     S
C789   O825    1.398   .     S
C790   O826    1.223   .     D
C790   O827    1.398   .     S
C790   C945    1.501   1_455 S
C791   O828    1.222   .     D
C791   H816    1.085   .     S
C791   C861    1.488   .     S
C792   O831    1.399   .     S
C792   C1288   1.496   1_545 S
C792   O1340   1.223   1_545 S
C793   O832    1.223   .     D
C793   O1343   1.399   1_545 S
C794   O834    1.223   .     D
C794   O835    1.399   .     S
C795   O836    1.222   .     D
C795   H42     1.084   1_556 S
C796   H808    1.084   .     S
C796   O837    1.221   .     D
C797   O839    1.397   .     S
C797   O838    1.223   .     D
C797   C802    1.489   .     S
C798   C799    1.427   .     A
C798   C800    1.419   .     A
C799   C38     1.427   1_556 S
C800   C36     1.410   1_556 S
C801   C802    1.424   .     A
C802   C803    1.419   .     A
H805   O833    1.014   .     S
H806   O835    1.013   .     S
H809   O839    1.014   .     S
H814   O825    1.014   .     S
H815   O827    1.014   .     S
H817   O831    1.013   .     S
O818   Zn849   1.928   .     S
O818   Zn847   1.953   .     S
O818   Zn848   1.945   .     S
O818   Zn850   1.945   .     S
O819   Zn848   1.910   .     S
O820   Zn850   1.917   .     S
O821   Zn849   1.918   .     S
O822   Zn847   1.913   .     S
O824   C24     1.223   1_556 S
O829   Zn847   1.940   .     S
O830   C1047   1.223   .     S
O833   C1048   1.399   .     S
O840   Zn850   1.937   .     S
O841   Zn848   1.941   .     S
O842   Zn849   1.947   .     S
O843   Zn850   1.941   .     S
O844   Zn847   1.935   .     S
O845   Zn848   1.944   .     S
O846   Zn849   1.945   .     S
C851   C861    1.431   .     S
C851   O928    1.274   .     A
C851   O926    1.263   .     A
C852   C885    1.409   .     A
C852   H897    1.082   .     S
C852   C853    1.389   .     A
C853   H895    1.081   .     S
C853   C90     1.405   1_556 S
C854   O929    1.273   .     A
C854   C860    1.466   .     S
C854   O927    1.277   .     A
C855   C856    1.419   .     A
C855   C857    1.423   .     A
C856   C859    1.402   .     A
C856   C886    1.427   .     A
C857   C858    1.420   .     A
C857   C874    1.489   .     S
C858   C870    1.414   .     A
C858   C879    1.490   .     S
C859   H889    1.082   .     S
C859   C870    1.391   .     A
C860   C946    1.362   .     S
C860   C960    1.501   .     S
C862   H896    1.084   .     S
C862   C871    1.400   .     A
C862   C869    1.397   .     A
C863   C866    1.466   .     S
C863   C1119   1.360   .     S
C863   C1132   1.496   .     S
C864   C865    1.433   .     S
C864   C878    1.486   .     S
C864   C1373   1.360   1_545 S
C865   O914    1.264   .     A
C865   O930    1.277   .     A
C866   O925    1.269   .     A
C866   O931    1.277   .     A
C867   C870    1.465   .     S
C867   O906    1.280   .     A
C867   O904    1.277   .     A
C868   C869    1.478   .     S
C868   O907    1.292   .     A
C868   O905    1.288   .     A
C869   C873    1.408   .     A
C871   C884    1.427   .     A
C871   C880    1.487   .     S
C872   H898    1.083   .     S
C872   C888    1.492   .     S
C872   O908    1.221   .     D
C873   C883    1.424   .     A
C873   C881    1.499   .     S
C874   O910    1.398   .     S
C875   O911    1.223   .     D
C875   O912    1.398   .     S
C876   O913    1.222   .     D
C876   H901    1.085   .     S
C876   C946    1.488   .     S
C877   O916    1.399   .     S
C877   C1373   1.496   1_545 S
C877   O1425   1.223   1_545 S
C878   O917    1.223   .     D
C878   O1428   1.399   1_545 S
C879   O919    1.223   .     D
C879   O920    1.399   .     S
C880   O921    1.222   .     D
C880   H127    1.084   1_556 S
C881   H893    1.084   .     S
C881   O922    1.221   .     D
C882   O924    1.397   .     S
C882   O923    1.223   .     D
C882   C887    1.489   .     S
C883   C884    1.427   .     A
C883   C885    1.419   .     A
C884   C123    1.427   1_556 S
C885   C121    1.410   1_556 S
C886   C887    1.424   .     A
C887   C888    1.419   .     A
H890   O918    1.014   .     S
H891   O920    1.013   .     S
H894   O924    1.014   .     S
H899   O910    1.014   .     S
H900   O912    1.014   .     S
H902   O916    1.013   .     S
O903   Zn934   1.928   .     S
O903   Zn932   1.953   .     S
O903   Zn933   1.945   .     S
O903   Zn935   1.945   .     S
O904   Zn933   1.910   .     S
O905   Zn935   1.917   .     S
O906   Zn934   1.918   .     S
O907   Zn932   1.913   .     S
O909   C109    1.223   1_556 S
O914   Zn932   1.940   .     S
O915   C1132   1.223   .     S
O918   C1133   1.399   .     S
O925   Zn935   1.937   .     S
O926   Zn933   1.941   .     S
O927   Zn934   1.947   .     S
O928   Zn935   1.941   .     S
O929   Zn932   1.935   .     S
O930   Zn933   1.944   .     S
O931   Zn934   1.945   .     S
C936   C946    1.431   .     S
C936   O1013   1.274   .     A
C936   O1011   1.263   .     A
C937   C970    1.409   .     A
C937   H982    1.082   .     S
C937   C938    1.389   .     A
C938   H980    1.081   .     S
C938   C175    1.405   1_556 S
C939   O1014   1.273   .     A
C939   C945    1.466   .     S
C939   O1012   1.277   .     A
C940   C941    1.419   .     A
C940   C942    1.423   .     A
C941   C944    1.402   .     A
C941   C971    1.427   .     A
C942   C943    1.420   .     A
C942   C959    1.489   .     S
C943   C955    1.414   .     A
C943   C964    1.490   .     S
C944   H974    1.082   .     S
C944   C955    1.391   .     A
C945   C776    1.362   1_655 S
C945   C790    1.501   1_655 S
C947   H981    1.084   .     S
C947   C956    1.400   .     A
C947   C954    1.397   .     A
C948   C951    1.466   .     S
C948   C1204   1.360   .     S
C948   C1217   1.496   .     S
C949   C950    1.433   .     S
C949   C963    1.486   .     S
C949   C1458   1.360   1_545 S
C950   O999    1.264   .     A
C950   O1015   1.277   .     A
C951   O1010   1.269   .     A
C951   O1016   1.277   .     A
C952   C955    1.465   .     S
C952   O991    1.280   .     A
C952   O989    1.277   .     A
C953   C954    1.478   .     S
C953   O992    1.292   .     A
C953   O990    1.288   .     A
C954   C958    1.408   .     A
C956   C969    1.427   .     A
C956   C965    1.487   .     S
C957   H983    1.083   .     S
C957   C973    1.492   .     S
C957   O993    1.221   .     D
C958   C968    1.424   .     A
C958   C966    1.499   .     S
C959   O995    1.398   .     S
C960   O996    1.223   .     D
C960   O997    1.398   .     S
C961   O998    1.222   .     D
C961   H986    1.085   .     S
C961   C776    1.488   1_655 S
C962   O1001   1.399   .     S
C962   C1458   1.496   1_545 S
C962   O1510   1.223   1_545 S
C963   O1002   1.223   .     D
C963   O1513   1.399   1_545 S
C964   O1004   1.223   .     D
C964   O1005   1.399   .     S
C965   O1006   1.222   .     D
C965   H212    1.084   1_556 S
C966   H978    1.084   .     S
C966   O1007   1.221   .     D
C967   O1009   1.397   .     S
C967   O1008   1.223   .     D
C967   C972    1.489   .     S
C968   C969    1.427   .     A
C968   C970    1.419   .     A
C969   C208    1.427   1_556 S
C970   C206    1.410   1_556 S
C971   C972    1.424   .     A
C972   C973    1.419   .     A
H975   O1003   1.014   .     S
H976   O1005   1.013   .     S
H979   O1009   1.014   .     S
H984   O995    1.014   .     S
H985   O997    1.014   .     S
H987   O1001   1.013   .     S
O988   Zn1019  1.928   .     S
O988   Zn1017  1.953   .     S
O988   Zn1018  1.945   .     S
O988   Zn1020  1.945   .     S
O989   Zn1018  1.910   .     S
O990   Zn1020  1.917   .     S
O991   Zn1019  1.918   .     S
O992   Zn1017  1.913   .     S
O994   C194    1.223   1_556 S
O999   Zn1017  1.940   .     S
O1000  C1217   1.223   .     S
O1003  C1218   1.399   .     S
O1010  Zn1020  1.937   .     S
O1011  Zn1018  1.941   .     S
O1012  Zn1019  1.947   .     S
O1013  Zn1020  1.941   .     S
O1014  Zn1017  1.935   .     S
O1015  Zn1018  1.944   .     S
O1016  Zn1019  1.945   .     S
C1021  C1031   1.431   .     S
C1021  O1098   1.274   .     A
C1021  O1096   1.263   .     A
C1022  C1055   1.409   .     A
C1022  H1067   1.082   .     S
C1022  C1023   1.389   .     A
C1023  H1065   1.081   .     S
C1023  C260    1.405   1_556 S
C1024  O1099   1.273   .     A
C1024  C1030   1.466   .     S
C1024  O1097   1.277   .     A
C1025  C1026   1.419   .     A
C1025  C1027   1.423   .     A
C1026  C1029   1.402   .     A
C1026  C1056   1.427   .     A
C1027  C1028   1.420   .     A
C1027  C1044   1.489   .     S
C1028  C1040   1.414   .     A
C1028  C1049   1.490   .     S
C1029  H1059   1.082   .     S
C1029  C1040   1.391   .     A
C1030  C1116   1.362   .     S
C1030  C1130   1.501   .     S
C1031  C1200   1.362   1_455 S
C1031  C1216   1.488   1_455 S
C1032  H1066   1.084   .     S
C1032  C1041   1.400   .     A
C1032  C1039   1.397   .     A
C1033  C1036   1.466   .     S
C1033  C1289   1.360   .     S
C1033  C1302   1.496   .     S
C1034  C1035   1.433   .     S
C1034  C1048   1.486   .     S
C1035  O1084   1.264   .     A
C1035  O1100   1.277   .     A
C1036  O1095   1.269   .     A
C1036  O1101   1.277   .     A
C1037  C1040   1.465   .     S
C1037  O1076   1.280   .     A
C1037  O1074   1.277   .     A
C1038  C1039   1.478   .     S
C1038  O1077   1.292   .     A
C1038  O1075   1.288   .     A
C1039  C1043   1.408   .     A
C1041  C1054   1.427   .     A
C1041  C1050   1.487   .     S
C1042  H1068   1.083   .     S
C1042  C1058   1.492   .     S
C1042  O1078   1.221   .     D
C1043  C1053   1.424   .     A
C1043  C1051   1.499   .     S
C1044  O1080   1.398   .     S
C1045  O1081   1.223   .     D
C1045  O1082   1.398   .     S
C1045  C1200   1.501   1_455 S
C1046  O1083   1.222   .     D
C1046  H1071   1.085   .     S
C1046  C1116   1.488   .     S
C1047  O1086   1.399   .     S
C1048  O1087   1.223   .     D
C1049  O1089   1.223   .     D
C1049  O1090   1.399   .     S
C1050  O1091   1.222   .     D
C1050  H297    1.084   1_556 S
C1051  H1063   1.084   .     S
C1051  O1092   1.221   .     D
C1052  O1094   1.397   .     S
C1052  O1093   1.223   .     D
C1052  C1057   1.489   .     S
C1053  C1054   1.427   .     A
C1053  C1055   1.419   .     A
C1054  C293    1.427   1_556 S
C1055  C291    1.410   1_556 S
C1056  C1057   1.424   .     A
C1057  C1058   1.419   .     A
H1060  O1088   1.014   .     S
H1061  O1090   1.013   .     S
H1064  O1094   1.014   .     S
H1069  O1080   1.014   .     S
H1070  O1082   1.014   .     S
H1072  O1086   1.013   .     S
O1073  Zn1104  1.928   .     S
O1073  Zn1102  1.953   .     S
O1073  Zn1103  1.945   .     S
O1073  Zn1105  1.945   .     S
O1074  Zn1103  1.910   .     S
O1075  Zn1105  1.917   .     S
O1076  Zn1104  1.918   .     S
O1077  Zn1102  1.913   .     S
O1079  C279    1.223   1_556 S
O1084  Zn1102  1.940   .     S
O1085  C1302   1.223   .     S
O1088  C1303   1.399   .     S
O1095  Zn1105  1.937   .     S
O1096  Zn1103  1.941   .     S
O1097  Zn1104  1.947   .     S
O1098  Zn1105  1.941   .     S
O1099  Zn1102  1.935   .     S
O1100  Zn1103  1.944   .     S
O1101  Zn1104  1.945   .     S
C1106  C1116   1.431   .     S
C1106  O1183   1.274   .     A
C1106  O1181   1.263   .     A
C1107  C1140   1.409   .     A
C1107  H1152   1.082   .     S
C1107  C1108   1.389   .     A
C1108  H1150   1.081   .     S
C1108  C345    1.405   1_556 S
C1109  O1184   1.273   .     A
C1109  C1115   1.466   .     S
C1109  O1182   1.277   .     A
C1110  C1111   1.419   .     A
C1110  C1112   1.423   .     A
C1111  C1114   1.402   .     A
C1111  C1141   1.427   .     A
C1112  C1113   1.420   .     A
C1112  C1129   1.489   .     S
C1113  C1125   1.414   .     A
C1113  C1134   1.490   .     S
C1114  H1144   1.082   .     S
C1114  C1125   1.391   .     A
C1115  C1201   1.362   .     S
C1115  C1215   1.501   .     S
C1117  H1151   1.084   .     S
C1117  C1126   1.400   .     A
C1117  C1124   1.397   .     A
C1118  C1121   1.466   .     S
C1118  C1374   1.360   .     S
C1118  C1387   1.496   .     S
C1119  C1120   1.433   .     S
C1119  C1133   1.486   .     S
C1120  O1169   1.264   .     A
C1120  O1185   1.277   .     A
C1121  O1180   1.269   .     A
C1121  O1186   1.277   .     A
C1122  C1125   1.465   .     S
C1122  O1161   1.280   .     A
C1122  O1159   1.277   .     A
C1123  C1124   1.478   .     S
C1123  O1162   1.292   .     A
C1123  O1160   1.288   .     A
C1124  C1128   1.408   .     A
C1126  C1139   1.427   .     A
C1126  C1135   1.487   .     S
C1127  H1153   1.083   .     S
C1127  C1143   1.492   .     S
C1127  O1163   1.221   .     D
C1128  C1138   1.424   .     A
C1128  C1136   1.499   .     S
C1129  O1165   1.398   .     S
C1130  O1166   1.223   .     D
C1130  O1167   1.398   .     S
C1131  O1168   1.222   .     D
C1131  H1156   1.085   .     S
C1131  C1201   1.488   .     S
C1132  O1171   1.399   .     S
C1133  O1172   1.223   .     D
C1134  O1174   1.223   .     D
C1134  O1175   1.399   .     S
C1135  O1176   1.222   .     D
C1135  H382    1.084   1_556 S
C1136  H1148   1.084   .     S
C1136  O1177   1.221   .     D
C1137  O1179   1.397   .     S
C1137  O1178   1.223   .     D
C1137  C1142   1.489   .     S
C1138  C1139   1.427   .     A
C1138  C1140   1.419   .     A
C1139  C378    1.427   1_556 S
C1140  C376    1.410   1_556 S
C1141  C1142   1.424   .     A
C1142  C1143   1.419   .     A
H1145  O1173   1.014   .     S
H1146  O1175   1.013   .     S
H1149  O1179   1.014   .     S
H1154  O1165   1.014   .     S
H1155  O1167   1.014   .     S
H1157  O1171   1.013   .     S
O1158  Zn1189  1.928   .     S
O1158  Zn1187  1.953   .     S
O1158  Zn1188  1.945   .     S
O1158  Zn1190  1.945   .     S
O1159  Zn1188  1.910   .     S
O1160  Zn1190  1.917   .     S
O1161  Zn1189  1.918   .     S
O1162  Zn1187  1.913   .     S
O1164  C364    1.223   1_556 S
O1169  Zn1187  1.940   .     S
O1170  C1387   1.223   .     S
O1173  C1388   1.399   .     S
O1180  Zn1190  1.937   .     S
O1181  Zn1188  1.941   .     S
O1182  Zn1189  1.947   .     S
O1183  Zn1190  1.941   .     S
O1184  Zn1187  1.935   .     S
O1185  Zn1188  1.944   .     S
O1186  Zn1189  1.945   .     S
C1191  C1201   1.431   .     S
C1191  O1268   1.274   .     A
C1191  O1266   1.263   .     A
C1192  C1225   1.409   .     A
C1192  H1237   1.082   .     S
C1192  C1193   1.389   .     A
C1193  H1235   1.081   .     S
C1193  C430    1.405   1_556 S
C1194  O1269   1.273   .     A
C1194  C1200   1.466   .     S
C1194  O1267   1.277   .     A
C1195  C1196   1.419   .     A
C1195  C1197   1.423   .     A
C1196  C1199   1.402   .     A
C1196  C1226   1.427   .     A
C1197  C1198   1.420   .     A
C1197  C1214   1.489   .     S
C1198  C1210   1.414   .     A
C1198  C1219   1.490   .     S
C1199  H1229   1.082   .     S
C1199  C1210   1.391   .     A
C1200  C1031   1.362   1_655 S
C1200  C1045   1.501   1_655 S
C1202  H1236   1.084   .     S
C1202  C1211   1.400   .     A
C1202  C1209   1.397   .     A
C1203  C1206   1.466   .     S
C1203  C1459   1.360   .     S
C1203  C1472   1.496   .     S
C1204  C1205   1.433   .     S
C1204  C1218   1.486   .     S
C1205  O1254   1.264   .     A
C1205  O1270   1.277   .     A
C1206  O1265   1.269   .     A
C1206  O1271   1.277   .     A
C1207  C1210   1.465   .     S
C1207  O1246   1.280   .     A
C1207  O1244   1.277   .     A
C1208  C1209   1.478   .     S
C1208  O1247   1.292   .     A
C1208  O1245   1.288   .     A
C1209  C1213   1.408   .     A
C1211  C1224   1.427   .     A
C1211  C1220   1.487   .     S
C1212  H1238   1.083   .     S
C1212  C1228   1.492   .     S
C1212  O1248   1.221   .     D
C1213  C1223   1.424   .     A
C1213  C1221   1.499   .     S
C1214  O1250   1.398   .     S
C1215  O1251   1.223   .     D
C1215  O1252   1.398   .     S
C1216  O1253   1.222   .     D
C1216  H1241   1.085   .     S
C1216  C1031   1.488   1_655 S
C1217  O1256   1.399   .     S
C1218  O1257   1.223   .     D
C1219  O1259   1.223   .     D
C1219  O1260   1.399   .     S
C1220  O1261   1.222   .     D
C1220  H467    1.084   1_556 S
C1221  H1233   1.084   .     S
C1221  O1262   1.221   .     D
C1222  O1264   1.397   .     S
C1222  O1263   1.223   .     D
C1222  C1227   1.489   .     S
C1223  C1224   1.427   .     A
C1223  C1225   1.419   .     A
C1224  C463    1.427   1_556 S
C1225  C461    1.410   1_556 S
C1226  C1227   1.424   .     A
C1227  C1228   1.419   .     A
H1230  O1258   1.014   .     S
H1231  O1260   1.013   .     S
H1234  O1264   1.014   .     S
H1239  O1250   1.014   .     S
H1240  O1252   1.014   .     S
H1242  O1256   1.013   .     S
O1243  Zn1274  1.928   .     S
O1243  Zn1272  1.953   .     S
O1243  Zn1273  1.945   .     S
O1243  Zn1275  1.945   .     S
O1244  Zn1273  1.910   .     S
O1245  Zn1275  1.917   .     S
O1246  Zn1274  1.918   .     S
O1247  Zn1272  1.913   .     S
O1249  C449    1.223   1_556 S
O1254  Zn1272  1.940   .     S
O1255  C1472   1.223   .     S
O1258  C1473   1.399   .     S
O1265  Zn1275  1.937   .     S
O1266  Zn1273  1.941   .     S
O1267  Zn1274  1.947   .     S
O1268  Zn1275  1.941   .     S
O1269  Zn1272  1.935   .     S
O1270  Zn1273  1.944   .     S
O1271  Zn1274  1.945   .     S
C1276  C1286   1.431   .     S
C1276  O1353   1.274   .     A
C1276  O1351   1.263   .     A
C1277  C1310   1.409   .     A
C1277  H1322   1.082   .     S
C1277  C1278   1.389   .     A
C1278  H1320   1.081   .     S
C1278  C515    1.405   1_556 S
C1279  O1354   1.273   .     A
C1279  C1285   1.466   .     S
C1279  O1352   1.277   .     A
C1280  C1281   1.419   .     A
C1280  C1282   1.423   .     A
C1281  C1284   1.402   .     A
C1281  C1311   1.427   .     A
C1282  C1283   1.420   .     A
C1282  C1299   1.489   .     S
C1283  C1295   1.414   .     A
C1283  C1304   1.490   .     S
C1284  H1314   1.082   .     S
C1284  C1295   1.391   .     A
C1285  C1371   1.362   .     S
C1285  C1385   1.501   .     S
C1286  C1455   1.362   1_455 S
C1286  C1471   1.488   1_455 S
C1287  H1321   1.084   .     S
C1287  C1296   1.400   .     A
C1287  C1294   1.397   .     A
C1288  C1291   1.466   .     S
C1288  C779    1.360   1_565 S
C1288  C792    1.496   1_565 S
C1289  C1290   1.433   .     S
C1289  C1303   1.486   .     S
C1290  O1339   1.264   .     A
C1290  O1355   1.277   .     A
C1291  O1350   1.269   .     A
C1291  O1356   1.277   .     A
C1292  C1295   1.465   .     S
C1292  O1331   1.280   .     A
C1292  O1329   1.277   .     A
C1293  C1294   1.478   .     S
C1293  O1332   1.292   .     A
C1293  O1330   1.288   .     A
C1294  C1298   1.408   .     A
C1296  C1309   1.427   .     A
C1296  C1305   1.487   .     S
C1297  H1323   1.083   .     S
C1297  C1313   1.492   .     S
C1297  O1333   1.221   .     D
C1298  C1308   1.424   .     A
C1298  C1306   1.499   .     S
C1299  O1335   1.398   .     S
C1300  O1336   1.223   .     D
C1300  O1337   1.398   .     S
C1300  C1455   1.501   1_455 S
C1301  O1338   1.222   .     D
C1301  H1326   1.085   .     S
C1301  C1371   1.488   .     S
C1302  O1341   1.399   .     S
C1303  O1342   1.223   .     D
C1304  O1344   1.223   .     D
C1304  O1345   1.399   .     S
C1305  O1346   1.222   .     D
C1305  H552    1.084   1_556 S
C1306  H1318   1.084   .     S
C1306  O1347   1.221   .     D
C1307  O1349   1.397   .     S
C1307  O1348   1.223   .     D
C1307  C1312   1.489   .     S
C1308  C1309   1.427   .     A
C1308  C1310   1.419   .     A
C1309  C548    1.427   1_556 S
C1310  C546    1.410   1_556 S
C1311  C1312   1.424   .     A
C1312  C1313   1.419   .     A
H1315  O1343   1.014   .     S
H1316  O1345   1.013   .     S
H1319  O1349   1.014   .     S
H1324  O1335   1.014   .     S
H1325  O1337   1.014   .     S
H1327  O1341   1.013   .     S
O1328  Zn1359  1.928   .     S
O1328  Zn1357  1.953   .     S
O1328  Zn1358  1.945   .     S
O1328  Zn1360  1.945   .     S
O1329  Zn1358  1.910   .     S
O1330  Zn1360  1.917   .     S
O1331  Zn1359  1.918   .     S
O1332  Zn1357  1.913   .     S
O1334  C534    1.223   1_556 S
O1339  Zn1357  1.940   .     S
O1340  C792    1.223   1_565 S
O1343  C793    1.399   1_565 S
O1350  Zn1360  1.937   .     S
O1351  Zn1358  1.941   .     S
O1352  Zn1359  1.947   .     S
O1353  Zn1360  1.941   .     S
O1354  Zn1357  1.935   .     S
O1355  Zn1358  1.944   .     S
O1356  Zn1359  1.945   .     S
C1361  C1371   1.431   .     S
C1361  O1438   1.274   .     A
C1361  O1436   1.263   .     A
C1362  C1395   1.409   .     A
C1362  H1407   1.082   .     S
C1362  C1363   1.389   .     A
C1363  H1405   1.081   .     S
C1363  C600    1.405   1_556 S
C1364  O1439   1.273   .     A
C1364  C1370   1.466   .     S
C1364  O1437   1.277   .     A
C1365  C1366   1.419   .     A
C1365  C1367   1.423   .     A
C1366  C1369   1.402   .     A
C1366  C1396   1.427   .     A
C1367  C1368   1.420   .     A
C1367  C1384   1.489   .     S
C1368  C1380   1.414   .     A
C1368  C1389   1.490   .     S
C1369  H1399   1.082   .     S
C1369  C1380   1.391   .     A
C1370  C1456   1.362   .     S
C1370  C1470   1.501   .     S
C1372  H1406   1.084   .     S
C1372  C1381   1.400   .     A
C1372  C1379   1.397   .     A
C1373  C1376   1.466   .     S
C1373  C864    1.360   1_565 S
C1373  C877    1.496   1_565 S
C1374  C1375   1.433   .     S
C1374  C1388   1.486   .     S
C1375  O1424   1.264   .     A
C1375  O1440   1.277   .     A
C1376  O1435   1.269   .     A
C1376  O1441   1.277   .     A
C1377  C1380   1.465   .     S
C1377  O1416   1.280   .     A
C1377  O1414   1.277   .     A
C1378  C1379   1.478   .     S
C1378  O1417   1.292   .     A
C1378  O1415   1.288   .     A
C1379  C1383   1.408   .     A
C1381  C1394   1.427   .     A
C1381  C1390   1.487   .     S
C1382  H1408   1.083   .     S
C1382  C1398   1.492   .     S
C1382  O1418   1.221   .     D
C1383  C1393   1.424   .     A
C1383  C1391   1.499   .     S
C1384  O1420   1.398   .     S
C1385  O1421   1.223   .     D
C1385  O1422   1.398   .     S
C1386  O1423   1.222   .     D
C1386  H1411   1.085   .     S
C1386  C1456   1.488   .     S
C1387  O1426   1.399   .     S
C1388  O1427   1.223   .     D
C1389  O1429   1.223   .     D
C1389  O1430   1.399   .     S
C1390  O1431   1.222   .     D
C1390  H637    1.084   1_556 S
C1391  H1403   1.084   .     S
C1391  O1432   1.221   .     D
C1392  O1434   1.397   .     S
C1392  O1433   1.223   .     D
C1392  C1397   1.489   .     S
C1393  C1394   1.427   .     A
C1393  C1395   1.419   .     A
C1394  C633    1.427   1_556 S
C1395  C631    1.410   1_556 S
C1396  C1397   1.424   .     A
C1397  C1398   1.419   .     A
H1400  O1428   1.014   .     S
H1401  O1430   1.013   .     S
H1404  O1434   1.014   .     S
H1409  O1420   1.014   .     S
H1410  O1422   1.014   .     S
H1412  O1426   1.013   .     S
O1413  Zn1444  1.928   .     S
O1413  Zn1442  1.953   .     S
O1413  Zn1443  1.945   .     S
O1413  Zn1445  1.945   .     S
O1414  Zn1443  1.910   .     S
O1415  Zn1445  1.917   .     S
O1416  Zn1444  1.918   .     S
O1417  Zn1442  1.913   .     S
O1419  C619    1.223   1_556 S
O1424  Zn1442  1.940   .     S
O1425  C877    1.223   1_565 S
O1428  C878    1.399   1_565 S
O1435  Zn1445  1.937   .     S
O1436  Zn1443  1.941   .     S
O1437  Zn1444  1.947   .     S
O1438  Zn1445  1.941   .     S
O1439  Zn1442  1.935   .     S
O1440  Zn1443  1.944   .     S
O1441  Zn1444  1.945   .     S
C1446  C1456   1.431   .     S
C1446  O1523   1.274   .     A
C1446  O1521   1.263   .     A
C1447  C1480   1.409   .     A
C1447  H1492   1.082   .     S
C1447  C1448   1.389   .     A
C1448  H1490   1.081   .     S
C1448  C685    1.405   1_556 S
C1449  O1524   1.273   .     A
C1449  C1455   1.466   .     S
C1449  O1522   1.277   .     A
C1450  C1451   1.419   .     A
C1450  C1452   1.423   .     A
C1451  C1454   1.402   .     A
C1451  C1481   1.427   .     A
C1452  C1453   1.420   .     A
C1452  C1469   1.489   .     S
C1453  C1465   1.414   .     A
C1453  C1474   1.490   .     S
C1454  H1484   1.082   .     S
C1454  C1465   1.391   .     A
C1455  C1286   1.362   1_655 S
C1455  C1300   1.501   1_655 S
C1457  H1491   1.084   .     S
C1457  C1466   1.400   .     A
C1457  C1464   1.397   .     A
C1458  C1461   1.466   .     S
C1458  C949    1.360   1_565 S
C1458  C962    1.496   1_565 S
C1459  C1460   1.433   .     S
C1459  C1473   1.486   .     S
C1460  O1509   1.264   .     A
C1460  O1525   1.277   .     A
C1461  O1520   1.269   .     A
C1461  O1526   1.277   .     A
C1462  C1465   1.465   .     S
C1462  O1501   1.280   .     A
C1462  O1499   1.277   .     A
C1463  C1464   1.478   .     S
C1463  O1502   1.292   .     A
C1463  O1500   1.288   .     A
C1464  C1468   1.408   .     A
C1466  C1479   1.427   .     A
C1466  C1475   1.487   .     S
C1467  H1493   1.083   .     S
C1467  C1483   1.492   .     S
C1467  O1503   1.221   .     D
C1468  C1478   1.424   .     A
C1468  C1476   1.499   .     S
C1469  O1505   1.398   .     S
C1470  O1506   1.223   .     D
C1470  O1507   1.398   .     S
C1471  O1508   1.222   .     D
C1471  H1496   1.085   .     S
C1471  C1286   1.488   1_655 S
C1472  O1511   1.399   .     S
C1473  O1512   1.223   .     D
C1474  O1514   1.223   .     D
C1474  O1515   1.399   .     S
C1475  O1516   1.222   .     D
C1475  H722    1.084   1_556 S
C1476  H1488   1.084   .     S
C1476  O1517   1.221   .     D
C1477  O1519   1.397   .     S
C1477  O1518   1.223   .     D
C1477  C1482   1.489   .     S
C1478  C1479   1.427   .     A
C1478  C1480   1.419   .     A
C1479  C718    1.427   1_556 S
C1480  C716    1.410   1_556 S
C1481  C1482   1.424   .     A
C1482  C1483   1.419   .     A
H1485  O1513   1.014   .     S
H1486  O1515   1.013   .     S
H1489  O1519   1.014   .     S
H1494  O1505   1.014   .     S
H1495  O1507   1.014   .     S
H1497  O1511   1.013   .     S
O1498  Zn1529  1.928   .     S
O1498  Zn1527  1.953   .     S
O1498  Zn1528  1.945   .     S
O1498  Zn1530  1.945   .     S
O1499  Zn1528  1.910   .     S
O1500  Zn1530  1.917   .     S
O1501  Zn1529  1.918   .     S
O1502  Zn1527  1.913   .     S
O1504  C704    1.223   1_556 S
O1509  Zn1527  1.940   .     S
O1510  C962    1.223   1_565 S
O1513  C963    1.399   1_565 S
O1520  Zn1530  1.937   .     S
O1521  Zn1528  1.941   .     S
O1522  Zn1529  1.947   .     S
O1523  Zn1530  1.941   .     S
O1524  Zn1527  1.935   .     S
O1525  Zn1528  1.944   .     S
O1526  Zn1529  1.945   .     S
