data_str_m3_o1_o17_pcu_sym.175
_audit_creation_date              2020-01-03
_audit_creation_method            'Materials Studio'
_symmetry_space_group_name_H-M    'P1'
_symmetry_Int_Tables_number       1
_symmetry_cell_setting            triclinic
loop_
_symmetry_equiv_pos_as_xyz
  x,y,z
_cell_length_a                    32.6450
_cell_length_b                    29.3922
_cell_length_c                    30.0124
_cell_angle_alpha                 90.0053
_cell_angle_beta                  89.7292
_cell_angle_gamma                 90.0006
loop_
_atom_site_label
_atom_site_type_symbol
_atom_site_fract_x
_atom_site_fract_y
_atom_site_fract_z
_atom_site_U_iso_or_equiv
_atom_site_adp_type
_atom_site_occupancy
C1     C     0.08653   0.16729   0.24718   0.00000  Uiso   1.00
C2     C     0.24678   0.16731   0.25293   0.00000  Uiso   1.00
C3     C     0.16549   0.24970   0.02315   0.00000  Uiso   1.00
C4     C     0.16864   0.08354   0.47683   0.00000  Uiso   1.00
C5     C     0.01975   0.12926   0.24208   0.00000  Uiso   1.00
C6     C     0.31186   0.21321   0.25282   0.00000  Uiso   1.00
C7     C     0.31349   0.12938   0.25901   0.00000  Uiso   1.00
C8     C     0.02143   0.21318   0.24760   0.00000  Uiso   1.00
C9     C     0.29115   0.17021   0.25641   0.00000  Uiso   1.00
C10    C     0.04212   0.17014   0.24410   0.00000  Uiso   1.00
C11    C     0.17489   0.02401   0.28810   0.00000  Uiso   1.00
C12    C     0.15819   0.30933   0.21195   0.00000  Uiso   1.00
C13    C     0.15841   0.02401   0.21191   0.00000  Uiso   1.00
C14    C     0.17510   0.30934   0.28806   0.00000  Uiso   1.00
C15    C     0.16654   0.16666   0.16323   0.00000  Uiso   1.00
C16    C     0.16685   0.16666   0.33677   0.00000  Uiso   1.00
C17    C     0.16828   0.12519   0.40756   0.00000  Uiso   1.00
C18    C     0.16584   0.20806   0.09241   0.00000  Uiso   1.00
C19    C     0.16727   0.16664   0.38470   0.00000  Uiso   1.00
C20    C     0.16635   0.16662   0.11530   0.00000  Uiso   1.00
C21    C     0.16653   0.20808   0.40759   0.00000  Uiso   1.00
C22    C     0.16687   0.12516   0.09241   0.00000  Uiso   1.00
C23    C     0.16651   0.20839   0.45366   0.00000  Uiso   1.00
C24    C     0.16723   0.12484   0.04633   0.00000  Uiso   1.00
C25    C     0.16716   0.16662   0.47682   0.00000  Uiso   1.00
C26    C     0.16680   0.16661   0.02317   0.00000  Uiso   1.00
C27    C     0.16809   0.12486   0.45364   0.00000  Uiso   1.00
C28    C     0.16601   0.20838   0.04634   0.00000  Uiso   1.00
C29    C     0.16570   0.24971   0.47687   0.00000  Uiso   1.00
C30    C     0.16813   0.08353   0.02313   0.00000  Uiso   1.00
H31    H     0.16903   0.09317   0.38962   0.00000  Uiso   1.00
H32    H     0.16537   0.24010   0.11034   0.00000  Uiso   1.00
H33    H     0.16581   0.24011   0.38968   0.00000  Uiso   1.00
H34    H     0.16718   0.09313   0.11035   0.00000  Uiso   1.00
H35    H     0.16522   0.28189   0.45925   0.00000  Uiso   1.00
H36    H     0.16848   0.05134   0.04075   0.00000  Uiso   1.00
H37    H     0.16489   0.28189   0.04078   0.00000  Uiso   1.00
H38    H     0.16936   0.05136   0.45920   0.00000  Uiso   1.00
H39    H     0.18130   0.04215   0.31857   0.00000  Uiso   1.00
H40    H     0.15127   0.29124   0.18157   0.00000  Uiso   1.00
H41    H     0.15197   0.04214   0.18145   0.00000  Uiso   1.00
H42    H     0.18201   0.29125   0.31844   0.00000  Uiso   1.00
N43    N     0.16667   0.28573   0.25000   0.00000  Uiso   1.00
N44    N     0.16667   0.04760   0.25000   0.00000  Uiso   1.00
O45    O     0.10559   0.20487   0.25000   0.00000  Uiso   1.00
O46    O     0.22774   0.12846   0.25001   0.00000  Uiso   1.00
O47    O     0.22774   0.20487   0.25001   0.00000  Uiso   1.00
O48    O     0.10559   0.12846   0.25000   0.00000  Uiso   1.00
O49    O     0.16666   0.20489   0.18393   0.00000  Uiso   1.00
O50    O     0.16667   0.12844   0.31608   0.00000  Uiso   1.00
O51    O     0.16667   0.20489   0.31608   0.00000  Uiso   1.00
O52    O     0.16666   0.12844   0.18393   0.00000  Uiso   1.00
Zn53   Zn    0.16667   0.21771   0.25000   0.00000  Uiso   1.00
Zn54   Zn    0.16667   0.11563   0.25000   0.00000  Uiso   1.00
C55    C     0.03536   0.08687   0.21782   0.00000  Uiso   1.00
C56    C     0.04850   0.09738   0.16965   0.00000  Uiso   1.00
C57    C     0.05725   0.05374   0.14368   0.00000  Uiso   1.00
H58    H     0.08053   0.03287   0.16110   0.00000  Uiso   1.00
H59    H     0.02876   0.03343   0.14009   0.00000  Uiso   1.00
H60    H     0.06901   0.06240   0.10995   0.00000  Uiso   1.00
H61    H     0.02370   0.11637   0.15248   0.00000  Uiso   1.00
H62    H     0.07651   0.11877   0.16922   0.00000  Uiso   1.00
H63    H     0.06031   0.06995   0.23625   0.00000  Uiso   1.00
H64    H     0.01069   0.06130   0.21557   0.00000  Uiso   1.00
C65    C     0.28953   0.25956   0.25487   0.00000  Uiso   1.00
C66    C     0.27735   0.27541   0.20760   0.00000  Uiso   1.00
C67    C     0.26538   0.32537   0.20686   0.00000  Uiso   1.00
H68    H     0.24298   0.33288   0.23362   0.00000  Uiso   1.00
H69    H     0.29291   0.01311   0.21192   0.00000  Uiso   1.00
H70    H     0.25177   0.00087   0.17414   0.00000  Uiso   1.00
H71    H     0.30326   0.27044   0.18395   0.00000  Uiso   1.00
H72    H     0.25142   0.25525   0.19444   0.00000  Uiso   1.00
H73    H     0.26375   0.26035   0.27892   0.00000  Uiso   1.00
H74    H     0.30790   0.28614   0.27147   0.00000  Uiso   1.00
C75    C     0.29779   0.08737   0.28384   0.00000  Uiso   1.00
C76    C     0.28417   0.09872   0.33169   0.00000  Uiso   1.00
C77    C     0.27520   0.05556   0.35831   0.00000  Uiso   1.00
H78    H     0.25208   0.03437   0.34100   0.00000  Uiso   1.00
H79    H     0.30366   0.03534   0.36256   0.00000  Uiso   1.00
H80    H     0.26313   0.06483   0.39176   0.00000  Uiso   1.00
H81    H     0.30878   0.11807   0.34881   0.00000  Uiso   1.00
H82    H     0.25614   0.12007   0.33144   0.00000  Uiso   1.00
H83    H     0.27303   0.07006   0.26544   0.00000  Uiso   1.00
H84    H     0.32255   0.06197   0.28683   0.00000  Uiso   1.00
C85    C     0.04377   0.25953   0.24559   0.00000  Uiso   1.00
C86    C     0.05607   0.27523   0.29288   0.00000  Uiso   1.00
C87    C     0.06779   0.32526   0.29379   0.00000  Uiso   1.00
H88    H     0.09019   0.33296   0.26708   0.00000  Uiso   1.00
H89    H     0.04013   0.01283   0.28879   0.00000  Uiso   1.00
H90    H     0.08133   0.00072   0.32654   0.00000  Uiso   1.00
H91    H     0.03026   0.27000   0.31661   0.00000  Uiso   1.00
H92    H     0.08216   0.25516   0.30582   0.00000  Uiso   1.00
H93    H     0.06948   0.26041   0.22144   0.00000  Uiso   1.00
H94    H     0.02538   0.28618   0.22915   0.00000  Uiso   1.00
C95    C     0.41987   0.16729   0.24718   0.00000  Uiso   1.00
C96    C     0.58011   0.16731   0.25293   0.00000  Uiso   1.00
C97    C     0.49882   0.24970   0.02315   0.00000  Uiso   1.00
C98    C     0.50197   0.08354   0.47683   0.00000  Uiso   1.00
C99    C     0.35308   0.12926   0.24208   0.00000  Uiso   1.00
C100   C     0.64519   0.21321   0.25282   0.00000  Uiso   1.00
C101   C     0.64682   0.12938   0.25901   0.00000  Uiso   1.00
C102   C     0.35476   0.21318   0.24760   0.00000  Uiso   1.00
C103   C     0.62449   0.17021   0.25641   0.00000  Uiso   1.00
C104   C     0.37545   0.17014   0.24410   0.00000  Uiso   1.00
C105   C     0.50822   0.02401   0.28810   0.00000  Uiso   1.00
C106   C     0.49153   0.30933   0.21195   0.00000  Uiso   1.00
C107   C     0.49175   0.02401   0.21191   0.00000  Uiso   1.00
C108   C     0.50844   0.30934   0.28806   0.00000  Uiso   1.00
C109   C     0.49987   0.16666   0.16323   0.00000  Uiso   1.00
C110   C     0.50018   0.16666   0.33677   0.00000  Uiso   1.00
C111   C     0.50161   0.12519   0.40756   0.00000  Uiso   1.00
C112   C     0.49917   0.20806   0.09241   0.00000  Uiso   1.00
C113   C     0.50060   0.16664   0.38470   0.00000  Uiso   1.00
C114   C     0.49969   0.16662   0.11530   0.00000  Uiso   1.00
C115   C     0.49986   0.20808   0.40759   0.00000  Uiso   1.00
C116   C     0.50020   0.12516   0.09241   0.00000  Uiso   1.00
C117   C     0.49984   0.20839   0.45366   0.00000  Uiso   1.00
C118   C     0.50056   0.12484   0.04633   0.00000  Uiso   1.00
C119   C     0.50049   0.16662   0.47682   0.00000  Uiso   1.00
C120   C     0.50014   0.16661   0.02317   0.00000  Uiso   1.00
C121   C     0.50142   0.12486   0.45364   0.00000  Uiso   1.00
C122   C     0.49935   0.20838   0.04634   0.00000  Uiso   1.00
C123   C     0.49903   0.24971   0.47687   0.00000  Uiso   1.00
C124   C     0.50146   0.08353   0.02313   0.00000  Uiso   1.00
H125   H     0.50237   0.09317   0.38962   0.00000  Uiso   1.00
H126   H     0.49870   0.24010   0.11034   0.00000  Uiso   1.00
H127   H     0.49915   0.24011   0.38968   0.00000  Uiso   1.00
H128   H     0.50051   0.09313   0.11035   0.00000  Uiso   1.00
H129   H     0.49855   0.28189   0.45925   0.00000  Uiso   1.00
H130   H     0.50181   0.05134   0.04075   0.00000  Uiso   1.00
H131   H     0.49822   0.28189   0.04078   0.00000  Uiso   1.00
H132   H     0.50269   0.05136   0.45920   0.00000  Uiso   1.00
H133   H     0.51464   0.04215   0.31857   0.00000  Uiso   1.00
H134   H     0.48460   0.29124   0.18157   0.00000  Uiso   1.00
H135   H     0.48530   0.04214   0.18145   0.00000  Uiso   1.00
H136   H     0.51534   0.29125   0.31844   0.00000  Uiso   1.00
N137   N     0.50000   0.28573   0.25000   0.00000  Uiso   1.00
N138   N     0.50000   0.04760   0.25000   0.00000  Uiso   1.00
O139   O     0.43892   0.20487   0.25000   0.00000  Uiso   1.00
O140   O     0.56108   0.12846   0.25001   0.00000  Uiso   1.00
O141   O     0.56108   0.20487   0.25001   0.00000  Uiso   1.00
O142   O     0.43892   0.12846   0.25000   0.00000  Uiso   1.00
O143   O     0.49999   0.20489   0.18393   0.00000  Uiso   1.00
O144   O     0.50001   0.12844   0.31608   0.00000  Uiso   1.00
O145   O     0.50001   0.20489   0.31608   0.00000  Uiso   1.00
O146   O     0.49999   0.12844   0.18393   0.00000  Uiso   1.00
Zn147  Zn    0.50000   0.21771   0.25000   0.00000  Uiso   1.00
Zn148  Zn    0.50000   0.11563   0.25000   0.00000  Uiso   1.00
C149   C     0.36869   0.08687   0.21782   0.00000  Uiso   1.00
C150   C     0.38183   0.09738   0.16965   0.00000  Uiso   1.00
C151   C     0.39059   0.05374   0.14368   0.00000  Uiso   1.00
H152   H     0.41386   0.03287   0.16110   0.00000  Uiso   1.00
H153   H     0.36209   0.03343   0.14009   0.00000  Uiso   1.00
H154   H     0.40235   0.06240   0.10995   0.00000  Uiso   1.00
H155   H     0.35704   0.11637   0.15248   0.00000  Uiso   1.00
H156   H     0.40985   0.11877   0.16922   0.00000  Uiso   1.00
H157   H     0.39364   0.06995   0.23625   0.00000  Uiso   1.00
H158   H     0.34402   0.06130   0.21557   0.00000  Uiso   1.00
C159   C     0.62287   0.25956   0.25487   0.00000  Uiso   1.00
C160   C     0.61068   0.27541   0.20760   0.00000  Uiso   1.00
C161   C     0.59871   0.32537   0.20686   0.00000  Uiso   1.00
H162   H     0.57632   0.33288   0.23362   0.00000  Uiso   1.00
H163   H     0.62624   0.01311   0.21192   0.00000  Uiso   1.00
H164   H     0.58511   0.00087   0.17414   0.00000  Uiso   1.00
H165   H     0.63659   0.27044   0.18395   0.00000  Uiso   1.00
H166   H     0.58475   0.25525   0.19444   0.00000  Uiso   1.00
H167   H     0.59708   0.26035   0.27892   0.00000  Uiso   1.00
H168   H     0.64123   0.28614   0.27147   0.00000  Uiso   1.00
C169   C     0.63112   0.08737   0.28384   0.00000  Uiso   1.00
C170   C     0.61751   0.09872   0.33169   0.00000  Uiso   1.00
C171   C     0.60853   0.05556   0.35831   0.00000  Uiso   1.00
H172   H     0.58542   0.03437   0.34100   0.00000  Uiso   1.00
H173   H     0.63700   0.03534   0.36256   0.00000  Uiso   1.00
H174   H     0.59646   0.06483   0.39176   0.00000  Uiso   1.00
H175   H     0.64212   0.11807   0.34881   0.00000  Uiso   1.00
H176   H     0.58947   0.12007   0.33144   0.00000  Uiso   1.00
H177   H     0.60636   0.07006   0.26544   0.00000  Uiso   1.00
H178   H     0.65589   0.06197   0.28683   0.00000  Uiso   1.00
C179   C     0.37710   0.25953   0.24559   0.00000  Uiso   1.00
C180   C     0.38940   0.27523   0.29288   0.00000  Uiso   1.00
C181   C     0.40112   0.32526   0.29379   0.00000  Uiso   1.00
H182   H     0.42352   0.33296   0.26708   0.00000  Uiso   1.00
H183   H     0.37346   0.01283   0.28879   0.00000  Uiso   1.00
H184   H     0.41466   0.00072   0.32654   0.00000  Uiso   1.00
H185   H     0.36360   0.27000   0.31661   0.00000  Uiso   1.00
H186   H     0.41549   0.25516   0.30582   0.00000  Uiso   1.00
H187   H     0.40281   0.26041   0.22144   0.00000  Uiso   1.00
H188   H     0.35872   0.28618   0.22915   0.00000  Uiso   1.00
C189   C     0.75320   0.16729   0.24718   0.00000  Uiso   1.00
C190   C     0.91344   0.16731   0.25293   0.00000  Uiso   1.00
C191   C     0.83216   0.24970   0.02315   0.00000  Uiso   1.00
C192   C     0.83530   0.08354   0.47683   0.00000  Uiso   1.00
C193   C     0.68642   0.12926   0.24208   0.00000  Uiso   1.00
C194   C     0.97853   0.21321   0.25282   0.00000  Uiso   1.00
C195   C     0.98015   0.12938   0.25901   0.00000  Uiso   1.00
C196   C     0.68810   0.21318   0.24760   0.00000  Uiso   1.00
C197   C     0.95782   0.17021   0.25641   0.00000  Uiso   1.00
C198   C     0.70878   0.17014   0.24410   0.00000  Uiso   1.00
C199   C     0.84155   0.02401   0.28810   0.00000  Uiso   1.00
C200   C     0.82486   0.30933   0.21195   0.00000  Uiso   1.00
C201   C     0.82508   0.02401   0.21191   0.00000  Uiso   1.00
C202   C     0.84177   0.30934   0.28806   0.00000  Uiso   1.00
C203   C     0.83321   0.16666   0.16323   0.00000  Uiso   1.00
C204   C     0.83351   0.16666   0.33677   0.00000  Uiso   1.00
C205   C     0.83495   0.12519   0.40756   0.00000  Uiso   1.00
C206   C     0.83250   0.20806   0.09241   0.00000  Uiso   1.00
C207   C     0.83393   0.16664   0.38470   0.00000  Uiso   1.00
C208   C     0.83302   0.16662   0.11530   0.00000  Uiso   1.00
C209   C     0.83320   0.20808   0.40759   0.00000  Uiso   1.00
C210   C     0.83353   0.12516   0.09241   0.00000  Uiso   1.00
C211   C     0.83317   0.20839   0.45366   0.00000  Uiso   1.00
C212   C     0.83389   0.12484   0.04633   0.00000  Uiso   1.00
C213   C     0.83382   0.16662   0.47682   0.00000  Uiso   1.00
C214   C     0.83347   0.16661   0.02317   0.00000  Uiso   1.00
C215   C     0.83476   0.12486   0.45364   0.00000  Uiso   1.00
C216   C     0.83268   0.20838   0.04634   0.00000  Uiso   1.00
C217   C     0.83237   0.24971   0.47687   0.00000  Uiso   1.00
C218   C     0.83479   0.08353   0.02313   0.00000  Uiso   1.00
H219   H     0.83570   0.09317   0.38962   0.00000  Uiso   1.00
H220   H     0.83203   0.24010   0.11034   0.00000  Uiso   1.00
H221   H     0.83248   0.24011   0.38968   0.00000  Uiso   1.00
H222   H     0.83385   0.09313   0.11035   0.00000  Uiso   1.00
H223   H     0.83189   0.28189   0.45925   0.00000  Uiso   1.00
H224   H     0.83514   0.05134   0.04075   0.00000  Uiso   1.00
H225   H     0.83155   0.28189   0.04078   0.00000  Uiso   1.00
H226   H     0.83602   0.05136   0.45920   0.00000  Uiso   1.00
H227   H     0.84797   0.04215   0.31857   0.00000  Uiso   1.00
H228   H     0.81793   0.29124   0.18157   0.00000  Uiso   1.00
H229   H     0.81863   0.04214   0.18145   0.00000  Uiso   1.00
H230   H     0.84868   0.29125   0.31844   0.00000  Uiso   1.00
N231   N     0.83333   0.28573   0.25000   0.00000  Uiso   1.00
N232   N     0.83333   0.04760   0.25000   0.00000  Uiso   1.00
O233   O     0.77226   0.20487   0.25000   0.00000  Uiso   1.00
O234   O     0.89441   0.12846   0.25001   0.00000  Uiso   1.00
O235   O     0.89441   0.20487   0.25001   0.00000  Uiso   1.00
O236   O     0.77226   0.12846   0.25000   0.00000  Uiso   1.00
O237   O     0.83333   0.20489   0.18393   0.00000  Uiso   1.00
O238   O     0.83334   0.12844   0.31608   0.00000  Uiso   1.00
O239   O     0.83334   0.20489   0.31608   0.00000  Uiso   1.00
O240   O     0.83333   0.12844   0.18393   0.00000  Uiso   1.00
Zn241  Zn    0.83333   0.21771   0.25000   0.00000  Uiso   1.00
Zn242  Zn    0.83333   0.11563   0.25000   0.00000  Uiso   1.00
C243   C     0.70203   0.08687   0.21782   0.00000  Uiso   1.00
C244   C     0.71517   0.09738   0.16965   0.00000  Uiso   1.00
C245   C     0.72392   0.05374   0.14368   0.00000  Uiso   1.00
H246   H     0.74719   0.03287   0.16110   0.00000  Uiso   1.00
H247   H     0.69542   0.03343   0.14009   0.00000  Uiso   1.00
H248   H     0.73568   0.06240   0.10995   0.00000  Uiso   1.00
H249   H     0.69037   0.11637   0.15248   0.00000  Uiso   1.00
H250   H     0.74318   0.11877   0.16922   0.00000  Uiso   1.00
H251   H     0.72697   0.06995   0.23625   0.00000  Uiso   1.00
H252   H     0.67735   0.06130   0.21557   0.00000  Uiso   1.00
C253   C     0.95620   0.25956   0.25487   0.00000  Uiso   1.00
C254   C     0.94402   0.27541   0.20760   0.00000  Uiso   1.00
C255   C     0.93205   0.32537   0.20686   0.00000  Uiso   1.00
H256   H     0.90965   0.33288   0.23362   0.00000  Uiso   1.00
H257   H     0.95958   0.01311   0.21192   0.00000  Uiso   1.00
H258   H     0.91844   0.00087   0.17414   0.00000  Uiso   1.00
H259   H     0.96993   0.27044   0.18395   0.00000  Uiso   1.00
H260   H     0.91808   0.25525   0.19444   0.00000  Uiso   1.00
H261   H     0.93041   0.26035   0.27892   0.00000  Uiso   1.00
H262   H     0.97457   0.28614   0.27147   0.00000  Uiso   1.00
C263   C     0.96445   0.08737   0.28384   0.00000  Uiso   1.00
C264   C     0.95084   0.09872   0.33169   0.00000  Uiso   1.00
C265   C     0.94186   0.05556   0.35831   0.00000  Uiso   1.00
H266   H     0.91875   0.03437   0.34100   0.00000  Uiso   1.00
H267   H     0.97033   0.03534   0.36256   0.00000  Uiso   1.00
H268   H     0.92979   0.06483   0.39176   0.00000  Uiso   1.00
H269   H     0.97545   0.11807   0.34881   0.00000  Uiso   1.00
H270   H     0.92281   0.12007   0.33144   0.00000  Uiso   1.00
H271   H     0.93969   0.07006   0.26544   0.00000  Uiso   1.00
H272   H     0.98922   0.06197   0.28683   0.00000  Uiso   1.00
C273   C     0.71044   0.25953   0.24559   0.00000  Uiso   1.00
C274   C     0.72274   0.27523   0.29288   0.00000  Uiso   1.00
C275   C     0.73446   0.32526   0.29379   0.00000  Uiso   1.00
H276   H     0.75686   0.33296   0.26708   0.00000  Uiso   1.00
H277   H     0.70679   0.01283   0.28879   0.00000  Uiso   1.00
H278   H     0.74800   0.00072   0.32654   0.00000  Uiso   1.00
H279   H     0.69693   0.27000   0.31661   0.00000  Uiso   1.00
H280   H     0.74882   0.25516   0.30582   0.00000  Uiso   1.00
H281   H     0.73614   0.26041   0.22144   0.00000  Uiso   1.00
H282   H     0.69205   0.28618   0.22915   0.00000  Uiso   1.00
C283   C     0.08653   0.50062   0.24718   0.00000  Uiso   1.00
C284   C     0.24678   0.50064   0.25293   0.00000  Uiso   1.00
C285   C     0.16549   0.58303   0.02315   0.00000  Uiso   1.00
C286   C     0.16864   0.41687   0.47683   0.00000  Uiso   1.00
C287   C     0.01975   0.46259   0.24208   0.00000  Uiso   1.00
C288   C     0.31186   0.54654   0.25282   0.00000  Uiso   1.00
C289   C     0.31349   0.46271   0.25901   0.00000  Uiso   1.00
C290   C     0.02143   0.54652   0.24760   0.00000  Uiso   1.00
C291   C     0.29115   0.50354   0.25641   0.00000  Uiso   1.00
C292   C     0.04212   0.50348   0.24410   0.00000  Uiso   1.00
C293   C     0.17489   0.35735   0.28810   0.00000  Uiso   1.00
C294   C     0.15819   0.64266   0.21195   0.00000  Uiso   1.00
C295   C     0.15841   0.35734   0.21191   0.00000  Uiso   1.00
C296   C     0.17510   0.64267   0.28806   0.00000  Uiso   1.00
C297   C     0.16654   0.49999   0.16323   0.00000  Uiso   1.00
C298   C     0.16685   0.50000   0.33677   0.00000  Uiso   1.00
C299   C     0.16828   0.45853   0.40756   0.00000  Uiso   1.00
C300   C     0.16584   0.54140   0.09241   0.00000  Uiso   1.00
C301   C     0.16727   0.49998   0.38470   0.00000  Uiso   1.00
C302   C     0.16635   0.49996   0.11530   0.00000  Uiso   1.00
C303   C     0.16653   0.54141   0.40759   0.00000  Uiso   1.00
C304   C     0.16687   0.45850   0.09241   0.00000  Uiso   1.00
C305   C     0.16651   0.54172   0.45366   0.00000  Uiso   1.00
C306   C     0.16723   0.45818   0.04633   0.00000  Uiso   1.00
C307   C     0.16716   0.49995   0.47682   0.00000  Uiso   1.00
C308   C     0.16680   0.49995   0.02317   0.00000  Uiso   1.00
C309   C     0.16809   0.45820   0.45364   0.00000  Uiso   1.00
C310   C     0.16601   0.54171   0.04634   0.00000  Uiso   1.00
C311   C     0.16570   0.58304   0.47687   0.00000  Uiso   1.00
C312   C     0.16813   0.41686   0.02313   0.00000  Uiso   1.00
H313   H     0.16903   0.42651   0.38962   0.00000  Uiso   1.00
H314   H     0.16537   0.57343   0.11034   0.00000  Uiso   1.00
H315   H     0.16581   0.57344   0.38968   0.00000  Uiso   1.00
H316   H     0.16718   0.42647   0.11035   0.00000  Uiso   1.00
H317   H     0.16522   0.61523   0.45925   0.00000  Uiso   1.00
H318   H     0.16848   0.38467   0.04075   0.00000  Uiso   1.00
H319   H     0.16489   0.61522   0.04078   0.00000  Uiso   1.00
H320   H     0.16936   0.38469   0.45920   0.00000  Uiso   1.00
H321   H     0.18130   0.37548   0.31857   0.00000  Uiso   1.00
H322   H     0.15127   0.62457   0.18157   0.00000  Uiso   1.00
H323   H     0.15197   0.37547   0.18145   0.00000  Uiso   1.00
H324   H     0.18201   0.62458   0.31844   0.00000  Uiso   1.00
N325   N     0.16667   0.61907   0.25000   0.00000  Uiso   1.00
N326   N     0.16667   0.38093   0.25000   0.00000  Uiso   1.00
O327   O     0.10559   0.53821   0.25000   0.00000  Uiso   1.00
O328   O     0.22774   0.46179   0.25001   0.00000  Uiso   1.00
O329   O     0.22774   0.53821   0.25001   0.00000  Uiso   1.00
O330   O     0.10559   0.46179   0.25000   0.00000  Uiso   1.00
O331   O     0.16666   0.53823   0.18393   0.00000  Uiso   1.00
O332   O     0.16667   0.46177   0.31608   0.00000  Uiso   1.00
O333   O     0.16667   0.53823   0.31608   0.00000  Uiso   1.00
O334   O     0.16666   0.46177   0.18393   0.00000  Uiso   1.00
Zn335  Zn    0.16667   0.55104   0.25000   0.00000  Uiso   1.00
Zn336  Zn    0.16667   0.44896   0.25000   0.00000  Uiso   1.00
C337   C     0.03536   0.42020   0.21782   0.00000  Uiso   1.00
C338   C     0.04850   0.43071   0.16965   0.00000  Uiso   1.00
C339   C     0.05725   0.38708   0.14368   0.00000  Uiso   1.00
H340   H     0.08053   0.36621   0.16110   0.00000  Uiso   1.00
H341   H     0.02876   0.36677   0.14009   0.00000  Uiso   1.00
H342   H     0.06901   0.39573   0.10995   0.00000  Uiso   1.00
H343   H     0.02370   0.44971   0.15248   0.00000  Uiso   1.00
H344   H     0.07651   0.45210   0.16922   0.00000  Uiso   1.00
H345   H     0.06031   0.40329   0.23625   0.00000  Uiso   1.00
H346   H     0.01069   0.39464   0.21557   0.00000  Uiso   1.00
C347   C     0.28953   0.59289   0.25487   0.00000  Uiso   1.00
C348   C     0.27735   0.60874   0.20760   0.00000  Uiso   1.00
C349   C     0.26538   0.65871   0.20686   0.00000  Uiso   1.00
H350   H     0.24298   0.66621   0.23362   0.00000  Uiso   1.00
H351   H     0.29291   0.34645   0.21192   0.00000  Uiso   1.00
H352   H     0.25177   0.33420   0.17414   0.00000  Uiso   1.00
H353   H     0.30326   0.60377   0.18395   0.00000  Uiso   1.00
H354   H     0.25142   0.58859   0.19444   0.00000  Uiso   1.00
H355   H     0.26375   0.59368   0.27892   0.00000  Uiso   1.00
H356   H     0.30790   0.61947   0.27147   0.00000  Uiso   1.00
C357   C     0.29779   0.42070   0.28384   0.00000  Uiso   1.00
C358   C     0.28417   0.43206   0.33169   0.00000  Uiso   1.00
C359   C     0.27520   0.38890   0.35831   0.00000  Uiso   1.00
H360   H     0.25208   0.36771   0.34100   0.00000  Uiso   1.00
H361   H     0.30366   0.36868   0.36256   0.00000  Uiso   1.00
H362   H     0.26313   0.39816   0.39176   0.00000  Uiso   1.00
H363   H     0.30878   0.45140   0.34881   0.00000  Uiso   1.00
H364   H     0.25614   0.45340   0.33144   0.00000  Uiso   1.00
H365   H     0.27303   0.40339   0.26544   0.00000  Uiso   1.00
H366   H     0.32255   0.39531   0.28683   0.00000  Uiso   1.00
C367   C     0.04377   0.59286   0.24559   0.00000  Uiso   1.00
C368   C     0.05607   0.60856   0.29288   0.00000  Uiso   1.00
C369   C     0.06779   0.65859   0.29379   0.00000  Uiso   1.00
H370   H     0.09019   0.66629   0.26708   0.00000  Uiso   1.00
H371   H     0.04013   0.34616   0.28879   0.00000  Uiso   1.00
H372   H     0.08133   0.33406   0.32654   0.00000  Uiso   1.00
H373   H     0.03026   0.60334   0.31661   0.00000  Uiso   1.00
H374   H     0.08216   0.58850   0.30582   0.00000  Uiso   1.00
H375   H     0.06948   0.59374   0.22144   0.00000  Uiso   1.00
H376   H     0.02538   0.61951   0.22915   0.00000  Uiso   1.00
C377   C     0.41987   0.50062   0.24718   0.00000  Uiso   1.00
C378   C     0.58011   0.50064   0.25293   0.00000  Uiso   1.00
C379   C     0.49882   0.58303   0.02315   0.00000  Uiso   1.00
C380   C     0.50197   0.41687   0.47683   0.00000  Uiso   1.00
C381   C     0.35308   0.46259   0.24208   0.00000  Uiso   1.00
C382   C     0.64519   0.54654   0.25282   0.00000  Uiso   1.00
C383   C     0.64682   0.46271   0.25901   0.00000  Uiso   1.00
C384   C     0.35476   0.54652   0.24760   0.00000  Uiso   1.00
C385   C     0.62449   0.50354   0.25641   0.00000  Uiso   1.00
C386   C     0.37545   0.50348   0.24410   0.00000  Uiso   1.00
C387   C     0.50822   0.35735   0.28810   0.00000  Uiso   1.00
C388   C     0.49153   0.64266   0.21195   0.00000  Uiso   1.00
C389   C     0.49175   0.35734   0.21191   0.00000  Uiso   1.00
C390   C     0.50844   0.64267   0.28806   0.00000  Uiso   1.00
C391   C     0.49987   0.49999   0.16323   0.00000  Uiso   1.00
C392   C     0.50018   0.50000   0.33677   0.00000  Uiso   1.00
C393   C     0.50161   0.45853   0.40756   0.00000  Uiso   1.00
C394   C     0.49917   0.54140   0.09241   0.00000  Uiso   1.00
C395   C     0.50060   0.49998   0.38470   0.00000  Uiso   1.00
C396   C     0.49969   0.49996   0.11530   0.00000  Uiso   1.00
C397   C     0.49986   0.54141   0.40759   0.00000  Uiso   1.00
C398   C     0.50020   0.45850   0.09241   0.00000  Uiso   1.00
C399   C     0.49984   0.54172   0.45366   0.00000  Uiso   1.00
C400   C     0.50056   0.45818   0.04633   0.00000  Uiso   1.00
C401   C     0.50049   0.49995   0.47682   0.00000  Uiso   1.00
C402   C     0.50014   0.49995   0.02317   0.00000  Uiso   1.00
C403   C     0.50142   0.45820   0.45364   0.00000  Uiso   1.00
C404   C     0.49935   0.54171   0.04634   0.00000  Uiso   1.00
C405   C     0.49903   0.58304   0.47687   0.00000  Uiso   1.00
C406   C     0.50146   0.41686   0.02313   0.00000  Uiso   1.00
H407   H     0.50237   0.42651   0.38962   0.00000  Uiso   1.00
H408   H     0.49870   0.57343   0.11034   0.00000  Uiso   1.00
H409   H     0.49915   0.57344   0.38968   0.00000  Uiso   1.00
H410   H     0.50051   0.42647   0.11035   0.00000  Uiso   1.00
H411   H     0.49855   0.61523   0.45925   0.00000  Uiso   1.00
H412   H     0.50181   0.38467   0.04075   0.00000  Uiso   1.00
H413   H     0.49822   0.61522   0.04078   0.00000  Uiso   1.00
H414   H     0.50269   0.38469   0.45920   0.00000  Uiso   1.00
H415   H     0.51464   0.37548   0.31857   0.00000  Uiso   1.00
H416   H     0.48460   0.62457   0.18157   0.00000  Uiso   1.00
H417   H     0.48530   0.37547   0.18145   0.00000  Uiso   1.00
H418   H     0.51534   0.62458   0.31844   0.00000  Uiso   1.00
N419   N     0.50000   0.61907   0.25000   0.00000  Uiso   1.00
N420   N     0.50000   0.38093   0.25000   0.00000  Uiso   1.00
O421   O     0.43892   0.53821   0.25000   0.00000  Uiso   1.00
O422   O     0.56108   0.46179   0.25001   0.00000  Uiso   1.00
O423   O     0.56108   0.53821   0.25001   0.00000  Uiso   1.00
O424   O     0.43892   0.46179   0.25000   0.00000  Uiso   1.00
O425   O     0.49999   0.53823   0.18393   0.00000  Uiso   1.00
O426   O     0.50001   0.46177   0.31608   0.00000  Uiso   1.00
O427   O     0.50001   0.53823   0.31608   0.00000  Uiso   1.00
O428   O     0.49999   0.46177   0.18393   0.00000  Uiso   1.00
Zn429  Zn    0.50000   0.55104   0.25000   0.00000  Uiso   1.00
Zn430  Zn    0.50000   0.44896   0.25000   0.00000  Uiso   1.00
C431   C     0.36869   0.42020   0.21782   0.00000  Uiso   1.00
C432   C     0.38183   0.43071   0.16965   0.00000  Uiso   1.00
C433   C     0.39059   0.38708   0.14368   0.00000  Uiso   1.00
H434   H     0.41386   0.36621   0.16110   0.00000  Uiso   1.00
H435   H     0.36209   0.36677   0.14009   0.00000  Uiso   1.00
H436   H     0.40235   0.39573   0.10995   0.00000  Uiso   1.00
H437   H     0.35704   0.44971   0.15248   0.00000  Uiso   1.00
H438   H     0.40985   0.45210   0.16922   0.00000  Uiso   1.00
H439   H     0.39364   0.40329   0.23625   0.00000  Uiso   1.00
H440   H     0.34402   0.39464   0.21557   0.00000  Uiso   1.00
C441   C     0.62287   0.59289   0.25487   0.00000  Uiso   1.00
C442   C     0.61068   0.60874   0.20760   0.00000  Uiso   1.00
C443   C     0.59871   0.65871   0.20686   0.00000  Uiso   1.00
H444   H     0.57632   0.66621   0.23362   0.00000  Uiso   1.00
H445   H     0.62624   0.34645   0.21192   0.00000  Uiso   1.00
H446   H     0.58511   0.33420   0.17414   0.00000  Uiso   1.00
H447   H     0.63659   0.60377   0.18395   0.00000  Uiso   1.00
H448   H     0.58475   0.58859   0.19444   0.00000  Uiso   1.00
H449   H     0.59708   0.59368   0.27892   0.00000  Uiso   1.00
H450   H     0.64123   0.61947   0.27147   0.00000  Uiso   1.00
C451   C     0.63112   0.42070   0.28384   0.00000  Uiso   1.00
C452   C     0.61751   0.43206   0.33169   0.00000  Uiso   1.00
C453   C     0.60853   0.38890   0.35831   0.00000  Uiso   1.00
H454   H     0.58542   0.36771   0.34100   0.00000  Uiso   1.00
H455   H     0.63700   0.36868   0.36256   0.00000  Uiso   1.00
H456   H     0.59646   0.39816   0.39176   0.00000  Uiso   1.00
H457   H     0.64212   0.45140   0.34881   0.00000  Uiso   1.00
H458   H     0.58947   0.45340   0.33144   0.00000  Uiso   1.00
H459   H     0.60636   0.40339   0.26544   0.00000  Uiso   1.00
H460   H     0.65589   0.39531   0.28683   0.00000  Uiso   1.00
C461   C     0.37710   0.59286   0.24559   0.00000  Uiso   1.00
C462   C     0.38940   0.60856   0.29288   0.00000  Uiso   1.00
C463   C     0.40112   0.65859   0.29379   0.00000  Uiso   1.00
H464   H     0.42352   0.66629   0.26708   0.00000  Uiso   1.00
H465   H     0.37346   0.34616   0.28879   0.00000  Uiso   1.00
H466   H     0.41466   0.33406   0.32654   0.00000  Uiso   1.00
H467   H     0.36360   0.60334   0.31661   0.00000  Uiso   1.00
H468   H     0.41549   0.58850   0.30582   0.00000  Uiso   1.00
H469   H     0.40281   0.59374   0.22144   0.00000  Uiso   1.00
H470   H     0.35872   0.61951   0.22915   0.00000  Uiso   1.00
C471   C     0.75320   0.50062   0.24718   0.00000  Uiso   1.00
C472   C     0.91344   0.50064   0.25293   0.00000  Uiso   1.00
C473   C     0.83216   0.58303   0.02315   0.00000  Uiso   1.00
C474   C     0.83530   0.41687   0.47683   0.00000  Uiso   1.00
C475   C     0.68642   0.46259   0.24208   0.00000  Uiso   1.00
C476   C     0.97853   0.54654   0.25282   0.00000  Uiso   1.00
C477   C     0.98015   0.46271   0.25901   0.00000  Uiso   1.00
C478   C     0.68810   0.54652   0.24760   0.00000  Uiso   1.00
C479   C     0.95782   0.50354   0.25641   0.00000  Uiso   1.00
C480   C     0.70878   0.50348   0.24410   0.00000  Uiso   1.00
C481   C     0.84155   0.35735   0.28810   0.00000  Uiso   1.00
C482   C     0.82486   0.64266   0.21195   0.00000  Uiso   1.00
C483   C     0.82508   0.35734   0.21191   0.00000  Uiso   1.00
C484   C     0.84177   0.64267   0.28806   0.00000  Uiso   1.00
C485   C     0.83321   0.49999   0.16323   0.00000  Uiso   1.00
C486   C     0.83351   0.50000   0.33677   0.00000  Uiso   1.00
C487   C     0.83495   0.45853   0.40756   0.00000  Uiso   1.00
C488   C     0.83250   0.54140   0.09241   0.00000  Uiso   1.00
C489   C     0.83393   0.49998   0.38470   0.00000  Uiso   1.00
C490   C     0.83302   0.49996   0.11530   0.00000  Uiso   1.00
C491   C     0.83320   0.54141   0.40759   0.00000  Uiso   1.00
C492   C     0.83353   0.45850   0.09241   0.00000  Uiso   1.00
C493   C     0.83317   0.54172   0.45366   0.00000  Uiso   1.00
C494   C     0.83389   0.45818   0.04633   0.00000  Uiso   1.00
C495   C     0.83382   0.49995   0.47682   0.00000  Uiso   1.00
C496   C     0.83347   0.49995   0.02317   0.00000  Uiso   1.00
C497   C     0.83476   0.45820   0.45364   0.00000  Uiso   1.00
C498   C     0.83268   0.54171   0.04634   0.00000  Uiso   1.00
C499   C     0.83237   0.58304   0.47687   0.00000  Uiso   1.00
C500   C     0.83479   0.41686   0.02313   0.00000  Uiso   1.00
H501   H     0.83570   0.42651   0.38962   0.00000  Uiso   1.00
H502   H     0.83203   0.57343   0.11034   0.00000  Uiso   1.00
H503   H     0.83248   0.57344   0.38968   0.00000  Uiso   1.00
H504   H     0.83385   0.42647   0.11035   0.00000  Uiso   1.00
H505   H     0.83189   0.61523   0.45925   0.00000  Uiso   1.00
H506   H     0.83514   0.38467   0.04075   0.00000  Uiso   1.00
H507   H     0.83155   0.61522   0.04078   0.00000  Uiso   1.00
H508   H     0.83602   0.38469   0.45920   0.00000  Uiso   1.00
H509   H     0.84797   0.37548   0.31857   0.00000  Uiso   1.00
H510   H     0.81793   0.62457   0.18157   0.00000  Uiso   1.00
H511   H     0.81863   0.37547   0.18145   0.00000  Uiso   1.00
H512   H     0.84868   0.62458   0.31844   0.00000  Uiso   1.00
N513   N     0.83333   0.61907   0.25000   0.00000  Uiso   1.00
N514   N     0.83333   0.38093   0.25000   0.00000  Uiso   1.00
O515   O     0.77226   0.53821   0.25000   0.00000  Uiso   1.00
O516   O     0.89441   0.46179   0.25001   0.00000  Uiso   1.00
O517   O     0.89441   0.53821   0.25001   0.00000  Uiso   1.00
O518   O     0.77226   0.46179   0.25000   0.00000  Uiso   1.00
O519   O     0.83333   0.53823   0.18393   0.00000  Uiso   1.00
O520   O     0.83334   0.46177   0.31608   0.00000  Uiso   1.00
O521   O     0.83334   0.53823   0.31608   0.00000  Uiso   1.00
O522   O     0.83333   0.46177   0.18393   0.00000  Uiso   1.00
Zn523  Zn    0.83333   0.55104   0.25000   0.00000  Uiso   1.00
Zn524  Zn    0.83333   0.44896   0.25000   0.00000  Uiso   1.00
C525   C     0.70203   0.42020   0.21782   0.00000  Uiso   1.00
C526   C     0.71517   0.43071   0.16965   0.00000  Uiso   1.00
C527   C     0.72392   0.38708   0.14368   0.00000  Uiso   1.00
H528   H     0.74719   0.36621   0.16110   0.00000  Uiso   1.00
H529   H     0.69542   0.36677   0.14009   0.00000  Uiso   1.00
H530   H     0.73568   0.39573   0.10995   0.00000  Uiso   1.00
H531   H     0.69037   0.44971   0.15248   0.00000  Uiso   1.00
H532   H     0.74318   0.45210   0.16922   0.00000  Uiso   1.00
H533   H     0.72697   0.40329   0.23625   0.00000  Uiso   1.00
H534   H     0.67735   0.39464   0.21557   0.00000  Uiso   1.00
C535   C     0.95620   0.59289   0.25487   0.00000  Uiso   1.00
C536   C     0.94402   0.60874   0.20760   0.00000  Uiso   1.00
C537   C     0.93205   0.65871   0.20686   0.00000  Uiso   1.00
H538   H     0.90965   0.66621   0.23362   0.00000  Uiso   1.00
H539   H     0.95958   0.34645   0.21192   0.00000  Uiso   1.00
H540   H     0.91844   0.33420   0.17414   0.00000  Uiso   1.00
H541   H     0.96993   0.60377   0.18395   0.00000  Uiso   1.00
H542   H     0.91808   0.58859   0.19444   0.00000  Uiso   1.00
H543   H     0.93041   0.59368   0.27892   0.00000  Uiso   1.00
H544   H     0.97457   0.61947   0.27147   0.00000  Uiso   1.00
C545   C     0.96445   0.42070   0.28384   0.00000  Uiso   1.00
C546   C     0.95084   0.43206   0.33169   0.00000  Uiso   1.00
C547   C     0.94186   0.38890   0.35831   0.00000  Uiso   1.00
H548   H     0.91875   0.36771   0.34100   0.00000  Uiso   1.00
H549   H     0.97033   0.36868   0.36256   0.00000  Uiso   1.00
H550   H     0.92979   0.39816   0.39176   0.00000  Uiso   1.00
H551   H     0.97545   0.45140   0.34881   0.00000  Uiso   1.00
H552   H     0.92281   0.45340   0.33144   0.00000  Uiso   1.00
H553   H     0.93969   0.40339   0.26544   0.00000  Uiso   1.00
H554   H     0.98922   0.39531   0.28683   0.00000  Uiso   1.00
C555   C     0.71044   0.59286   0.24559   0.00000  Uiso   1.00
C556   C     0.72274   0.60856   0.29288   0.00000  Uiso   1.00
C557   C     0.73446   0.65859   0.29379   0.00000  Uiso   1.00
H558   H     0.75686   0.66629   0.26708   0.00000  Uiso   1.00
H559   H     0.70679   0.34616   0.28879   0.00000  Uiso   1.00
H560   H     0.74800   0.33406   0.32654   0.00000  Uiso   1.00
H561   H     0.69693   0.60334   0.31661   0.00000  Uiso   1.00
H562   H     0.74882   0.58850   0.30582   0.00000  Uiso   1.00
H563   H     0.73614   0.59374   0.22144   0.00000  Uiso   1.00
H564   H     0.69205   0.61951   0.22915   0.00000  Uiso   1.00
C565   C     0.08653   0.83396   0.24718   0.00000  Uiso   1.00
C566   C     0.24678   0.83397   0.25293   0.00000  Uiso   1.00
C567   C     0.16549   0.91637   0.02315   0.00000  Uiso   1.00
C568   C     0.16864   0.75021   0.47683   0.00000  Uiso   1.00
C569   C     0.01975   0.79593   0.24208   0.00000  Uiso   1.00
C570   C     0.31186   0.87988   0.25282   0.00000  Uiso   1.00
C571   C     0.31349   0.79605   0.25901   0.00000  Uiso   1.00
C572   C     0.02143   0.87985   0.24760   0.00000  Uiso   1.00
C573   C     0.29115   0.83688   0.25641   0.00000  Uiso   1.00
C574   C     0.04212   0.83681   0.24410   0.00000  Uiso   1.00
C575   C     0.17489   0.69068   0.28810   0.00000  Uiso   1.00
C576   C     0.15819   0.97600   0.21195   0.00000  Uiso   1.00
C577   C     0.15841   0.69067   0.21191   0.00000  Uiso   1.00
C578   C     0.17510   0.97600   0.28806   0.00000  Uiso   1.00
C579   C     0.16654   0.83332   0.16323   0.00000  Uiso   1.00
C580   C     0.16685   0.83333   0.33677   0.00000  Uiso   1.00
C581   C     0.16828   0.79186   0.40756   0.00000  Uiso   1.00
C582   C     0.16584   0.87473   0.09241   0.00000  Uiso   1.00
C583   C     0.16727   0.83331   0.38470   0.00000  Uiso   1.00
C584   C     0.16635   0.83329   0.11530   0.00000  Uiso   1.00
C585   C     0.16653   0.87475   0.40759   0.00000  Uiso   1.00
C586   C     0.16687   0.79183   0.09241   0.00000  Uiso   1.00
C587   C     0.16651   0.87505   0.45366   0.00000  Uiso   1.00
C588   C     0.16723   0.79151   0.04633   0.00000  Uiso   1.00
C589   C     0.16716   0.83329   0.47682   0.00000  Uiso   1.00
C590   C     0.16680   0.83328   0.02317   0.00000  Uiso   1.00
C591   C     0.16809   0.79153   0.45364   0.00000  Uiso   1.00
C592   C     0.16601   0.87504   0.04634   0.00000  Uiso   1.00
C593   C     0.16570   0.91637   0.47687   0.00000  Uiso   1.00
C594   C     0.16813   0.75020   0.02313   0.00000  Uiso   1.00
H595   H     0.16903   0.75984   0.38962   0.00000  Uiso   1.00
H596   H     0.16537   0.90677   0.11034   0.00000  Uiso   1.00
H597   H     0.16581   0.90678   0.38968   0.00000  Uiso   1.00
H598   H     0.16718   0.75980   0.11035   0.00000  Uiso   1.00
H599   H     0.16522   0.94856   0.45925   0.00000  Uiso   1.00
H600   H     0.16848   0.71801   0.04075   0.00000  Uiso   1.00
H601   H     0.16489   0.94855   0.04078   0.00000  Uiso   1.00
H602   H     0.16936   0.71802   0.45920   0.00000  Uiso   1.00
H603   H     0.18130   0.70882   0.31857   0.00000  Uiso   1.00
H604   H     0.15127   0.95790   0.18157   0.00000  Uiso   1.00
H605   H     0.15197   0.70881   0.18145   0.00000  Uiso   1.00
H606   H     0.18201   0.95791   0.31844   0.00000  Uiso   1.00
N607   N     0.16667   0.95240   0.25000   0.00000  Uiso   1.00
N608   N     0.16667   0.71427   0.25000   0.00000  Uiso   1.00
O609   O     0.10559   0.87154   0.25000   0.00000  Uiso   1.00
O610   O     0.22774   0.79513   0.25001   0.00000  Uiso   1.00
O611   O     0.22774   0.87154   0.25001   0.00000  Uiso   1.00
O612   O     0.10559   0.79513   0.25000   0.00000  Uiso   1.00
O613   O     0.16666   0.87156   0.18393   0.00000  Uiso   1.00
O614   O     0.16667   0.79511   0.31608   0.00000  Uiso   1.00
O615   O     0.16667   0.87156   0.31608   0.00000  Uiso   1.00
O616   O     0.16666   0.79511   0.18393   0.00000  Uiso   1.00
Zn617  Zn    0.16667   0.88437   0.25000   0.00000  Uiso   1.00
Zn618  Zn    0.16667   0.78229   0.25000   0.00000  Uiso   1.00
C619   C     0.03536   0.75353   0.21782   0.00000  Uiso   1.00
C620   C     0.04850   0.76404   0.16965   0.00000  Uiso   1.00
C621   C     0.05725   0.72041   0.14368   0.00000  Uiso   1.00
H622   H     0.08053   0.69954   0.16110   0.00000  Uiso   1.00
H623   H     0.02876   0.70010   0.14009   0.00000  Uiso   1.00
H624   H     0.06901   0.72906   0.10995   0.00000  Uiso   1.00
H625   H     0.02370   0.78304   0.15248   0.00000  Uiso   1.00
H626   H     0.07651   0.78543   0.16922   0.00000  Uiso   1.00
H627   H     0.06031   0.73662   0.23625   0.00000  Uiso   1.00
H628   H     0.01069   0.72797   0.21557   0.00000  Uiso   1.00
C629   C     0.28953   0.92623   0.25487   0.00000  Uiso   1.00
C630   C     0.27735   0.94208   0.20760   0.00000  Uiso   1.00
C631   C     0.26538   0.99204   0.20686   0.00000  Uiso   1.00
H632   H     0.24298   0.99955   0.23362   0.00000  Uiso   1.00
H633   H     0.29291   0.67978   0.21192   0.00000  Uiso   1.00
H634   H     0.25177   0.66753   0.17414   0.00000  Uiso   1.00
H635   H     0.30326   0.93710   0.18395   0.00000  Uiso   1.00
H636   H     0.25142   0.92192   0.19444   0.00000  Uiso   1.00
H637   H     0.26375   0.92702   0.27892   0.00000  Uiso   1.00
H638   H     0.30790   0.95281   0.27147   0.00000  Uiso   1.00
C639   C     0.29779   0.75404   0.28384   0.00000  Uiso   1.00
C640   C     0.28417   0.76539   0.33169   0.00000  Uiso   1.00
C641   C     0.27520   0.72223   0.35831   0.00000  Uiso   1.00
H642   H     0.25208   0.70104   0.34100   0.00000  Uiso   1.00
H643   H     0.30366   0.70201   0.36256   0.00000  Uiso   1.00
H644   H     0.26313   0.73149   0.39176   0.00000  Uiso   1.00
H645   H     0.30878   0.78473   0.34881   0.00000  Uiso   1.00
H646   H     0.25614   0.78674   0.33144   0.00000  Uiso   1.00
H647   H     0.27303   0.73672   0.26544   0.00000  Uiso   1.00
H648   H     0.32255   0.72864   0.28683   0.00000  Uiso   1.00
C649   C     0.04377   0.92620   0.24559   0.00000  Uiso   1.00
C650   C     0.05607   0.94189   0.29288   0.00000  Uiso   1.00
C651   C     0.06779   0.99192   0.29379   0.00000  Uiso   1.00
H652   H     0.09019   0.99963   0.26708   0.00000  Uiso   1.00
H653   H     0.04013   0.67949   0.28879   0.00000  Uiso   1.00
H654   H     0.08133   0.66739   0.32654   0.00000  Uiso   1.00
H655   H     0.03026   0.93667   0.31661   0.00000  Uiso   1.00
H656   H     0.08216   0.92183   0.30582   0.00000  Uiso   1.00
H657   H     0.06948   0.92707   0.22144   0.00000  Uiso   1.00
H658   H     0.02538   0.95285   0.22915   0.00000  Uiso   1.00
C659   C     0.41987   0.83396   0.24718   0.00000  Uiso   1.00
C660   C     0.58011   0.83397   0.25293   0.00000  Uiso   1.00
C661   C     0.49882   0.91637   0.02315   0.00000  Uiso   1.00
C662   C     0.50197   0.75021   0.47683   0.00000  Uiso   1.00
C663   C     0.35308   0.79593   0.24208   0.00000  Uiso   1.00
C664   C     0.64519   0.87988   0.25282   0.00000  Uiso   1.00
C665   C     0.64682   0.79605   0.25901   0.00000  Uiso   1.00
C666   C     0.35476   0.87985   0.24760   0.00000  Uiso   1.00
C667   C     0.62449   0.83688   0.25641   0.00000  Uiso   1.00
C668   C     0.37545   0.83681   0.24410   0.00000  Uiso   1.00
C669   C     0.50822   0.69068   0.28810   0.00000  Uiso   1.00
C670   C     0.49153   0.97600   0.21195   0.00000  Uiso   1.00
C671   C     0.49175   0.69067   0.21191   0.00000  Uiso   1.00
C672   C     0.50844   0.97600   0.28806   0.00000  Uiso   1.00
C673   C     0.49987   0.83332   0.16323   0.00000  Uiso   1.00
C674   C     0.50018   0.83333   0.33677   0.00000  Uiso   1.00
C675   C     0.50161   0.79186   0.40756   0.00000  Uiso   1.00
C676   C     0.49917   0.87473   0.09241   0.00000  Uiso   1.00
C677   C     0.50060   0.83331   0.38470   0.00000  Uiso   1.00
C678   C     0.49969   0.83329   0.11530   0.00000  Uiso   1.00
C679   C     0.49986   0.87475   0.40759   0.00000  Uiso   1.00
C680   C     0.50020   0.79183   0.09241   0.00000  Uiso   1.00
C681   C     0.49984   0.87505   0.45366   0.00000  Uiso   1.00
C682   C     0.50056   0.79151   0.04633   0.00000  Uiso   1.00
C683   C     0.50049   0.83329   0.47682   0.00000  Uiso   1.00
C684   C     0.50014   0.83328   0.02317   0.00000  Uiso   1.00
C685   C     0.50142   0.79153   0.45364   0.00000  Uiso   1.00
C686   C     0.49935   0.87504   0.04634   0.00000  Uiso   1.00
C687   C     0.49903   0.91637   0.47687   0.00000  Uiso   1.00
C688   C     0.50146   0.75020   0.02313   0.00000  Uiso   1.00
H689   H     0.50237   0.75984   0.38962   0.00000  Uiso   1.00
H690   H     0.49870   0.90677   0.11034   0.00000  Uiso   1.00
H691   H     0.49915   0.90678   0.38968   0.00000  Uiso   1.00
H692   H     0.50051   0.75980   0.11035   0.00000  Uiso   1.00
H693   H     0.49855   0.94856   0.45925   0.00000  Uiso   1.00
H694   H     0.50181   0.71801   0.04075   0.00000  Uiso   1.00
H695   H     0.49822   0.94855   0.04078   0.00000  Uiso   1.00
H696   H     0.50269   0.71802   0.45920   0.00000  Uiso   1.00
H697   H     0.51464   0.70882   0.31857   0.00000  Uiso   1.00
H698   H     0.48460   0.95790   0.18157   0.00000  Uiso   1.00
H699   H     0.48530   0.70881   0.18145   0.00000  Uiso   1.00
H700   H     0.51534   0.95791   0.31844   0.00000  Uiso   1.00
N701   N     0.50000   0.95240   0.25000   0.00000  Uiso   1.00
N702   N     0.50000   0.71427   0.25000   0.00000  Uiso   1.00
O703   O     0.43892   0.87154   0.25000   0.00000  Uiso   1.00
O704   O     0.56108   0.79513   0.25001   0.00000  Uiso   1.00
O705   O     0.56108   0.87154   0.25001   0.00000  Uiso   1.00
O706   O     0.43892   0.79513   0.25000   0.00000  Uiso   1.00
O707   O     0.49999   0.87156   0.18393   0.00000  Uiso   1.00
O708   O     0.50001   0.79511   0.31608   0.00000  Uiso   1.00
O709   O     0.50001   0.87156   0.31608   0.00000  Uiso   1.00
O710   O     0.49999   0.79511   0.18393   0.00000  Uiso   1.00
Zn711  Zn    0.50000   0.88437   0.25000   0.00000  Uiso   1.00
Zn712  Zn    0.50000   0.78229   0.25000   0.00000  Uiso   1.00
C713   C     0.36869   0.75353   0.21782   0.00000  Uiso   1.00
C714   C     0.38183   0.76404   0.16965   0.00000  Uiso   1.00
C715   C     0.39059   0.72041   0.14368   0.00000  Uiso   1.00
H716   H     0.41386   0.69954   0.16110   0.00000  Uiso   1.00
H717   H     0.36209   0.70010   0.14009   0.00000  Uiso   1.00
H718   H     0.40235   0.72906   0.10995   0.00000  Uiso   1.00
H719   H     0.35704   0.78304   0.15248   0.00000  Uiso   1.00
H720   H     0.40985   0.78543   0.16922   0.00000  Uiso   1.00
H721   H     0.39364   0.73662   0.23625   0.00000  Uiso   1.00
H722   H     0.34402   0.72797   0.21557   0.00000  Uiso   1.00
C723   C     0.62287   0.92623   0.25487   0.00000  Uiso   1.00
C724   C     0.61068   0.94208   0.20760   0.00000  Uiso   1.00
C725   C     0.59871   0.99204   0.20686   0.00000  Uiso   1.00
H726   H     0.57632   0.99955   0.23362   0.00000  Uiso   1.00
H727   H     0.62624   0.67978   0.21192   0.00000  Uiso   1.00
H728   H     0.58511   0.66753   0.17414   0.00000  Uiso   1.00
H729   H     0.63659   0.93710   0.18395   0.00000  Uiso   1.00
H730   H     0.58475   0.92192   0.19444   0.00000  Uiso   1.00
H731   H     0.59708   0.92702   0.27892   0.00000  Uiso   1.00
H732   H     0.64123   0.95281   0.27147   0.00000  Uiso   1.00
C733   C     0.63112   0.75404   0.28384   0.00000  Uiso   1.00
C734   C     0.61751   0.76539   0.33169   0.00000  Uiso   1.00
C735   C     0.60853   0.72223   0.35831   0.00000  Uiso   1.00
H736   H     0.58542   0.70104   0.34100   0.00000  Uiso   1.00
H737   H     0.63700   0.70201   0.36256   0.00000  Uiso   1.00
H738   H     0.59646   0.73149   0.39176   0.00000  Uiso   1.00
H739   H     0.64212   0.78473   0.34881   0.00000  Uiso   1.00
H740   H     0.58947   0.78674   0.33144   0.00000  Uiso   1.00
H741   H     0.60636   0.73672   0.26544   0.00000  Uiso   1.00
H742   H     0.65589   0.72864   0.28683   0.00000  Uiso   1.00
C743   C     0.37710   0.92620   0.24559   0.00000  Uiso   1.00
C744   C     0.38940   0.94189   0.29288   0.00000  Uiso   1.00
C745   C     0.40112   0.99192   0.29379   0.00000  Uiso   1.00
H746   H     0.42352   0.99963   0.26708   0.00000  Uiso   1.00
H747   H     0.37346   0.67949   0.28879   0.00000  Uiso   1.00
H748   H     0.41466   0.66739   0.32654   0.00000  Uiso   1.00
H749   H     0.36360   0.93667   0.31661   0.00000  Uiso   1.00
H750   H     0.41549   0.92183   0.30582   0.00000  Uiso   1.00
H751   H     0.40281   0.92707   0.22144   0.00000  Uiso   1.00
H752   H     0.35872   0.95285   0.22915   0.00000  Uiso   1.00
C753   C     0.75320   0.83396   0.24718   0.00000  Uiso   1.00
C754   C     0.91344   0.83397   0.25293   0.00000  Uiso   1.00
C755   C     0.83216   0.91637   0.02315   0.00000  Uiso   1.00
C756   C     0.83530   0.75021   0.47683   0.00000  Uiso   1.00
C757   C     0.68642   0.79593   0.24208   0.00000  Uiso   1.00
C758   C     0.97853   0.87988   0.25282   0.00000  Uiso   1.00
C759   C     0.98015   0.79605   0.25901   0.00000  Uiso   1.00
C760   C     0.68810   0.87985   0.24760   0.00000  Uiso   1.00
C761   C     0.95782   0.83688   0.25641   0.00000  Uiso   1.00
C762   C     0.70878   0.83681   0.24410   0.00000  Uiso   1.00
C763   C     0.84155   0.69068   0.28810   0.00000  Uiso   1.00
C764   C     0.82486   0.97600   0.21195   0.00000  Uiso   1.00
C765   C     0.82508   0.69067   0.21191   0.00000  Uiso   1.00
C766   C     0.84177   0.97600   0.28806   0.00000  Uiso   1.00
C767   C     0.83321   0.83332   0.16323   0.00000  Uiso   1.00
C768   C     0.83351   0.83333   0.33677   0.00000  Uiso   1.00
C769   C     0.83495   0.79186   0.40756   0.00000  Uiso   1.00
C770   C     0.83250   0.87473   0.09241   0.00000  Uiso   1.00
C771   C     0.83393   0.83331   0.38470   0.00000  Uiso   1.00
C772   C     0.83302   0.83329   0.11530   0.00000  Uiso   1.00
C773   C     0.83320   0.87475   0.40759   0.00000  Uiso   1.00
C774   C     0.83353   0.79183   0.09241   0.00000  Uiso   1.00
C775   C     0.83317   0.87505   0.45366   0.00000  Uiso   1.00
C776   C     0.83389   0.79151   0.04633   0.00000  Uiso   1.00
C777   C     0.83382   0.83329   0.47682   0.00000  Uiso   1.00
C778   C     0.83347   0.83328   0.02317   0.00000  Uiso   1.00
C779   C     0.83476   0.79153   0.45364   0.00000  Uiso   1.00
C780   C     0.83268   0.87504   0.04634   0.00000  Uiso   1.00
C781   C     0.83237   0.91637   0.47687   0.00000  Uiso   1.00
C782   C     0.83479   0.75020   0.02313   0.00000  Uiso   1.00
H783   H     0.83570   0.75984   0.38962   0.00000  Uiso   1.00
H784   H     0.83203   0.90677   0.11034   0.00000  Uiso   1.00
H785   H     0.83248   0.90678   0.38968   0.00000  Uiso   1.00
H786   H     0.83385   0.75980   0.11035   0.00000  Uiso   1.00
H787   H     0.83189   0.94856   0.45925   0.00000  Uiso   1.00
H788   H     0.83514   0.71801   0.04075   0.00000  Uiso   1.00
H789   H     0.83155   0.94855   0.04078   0.00000  Uiso   1.00
H790   H     0.83602   0.71802   0.45920   0.00000  Uiso   1.00
H791   H     0.84797   0.70882   0.31857   0.00000  Uiso   1.00
H792   H     0.81793   0.95790   0.18157   0.00000  Uiso   1.00
H793   H     0.81863   0.70881   0.18145   0.00000  Uiso   1.00
H794   H     0.84868   0.95791   0.31844   0.00000  Uiso   1.00
N795   N     0.83333   0.95240   0.25000   0.00000  Uiso   1.00
N796   N     0.83333   0.71427   0.25000   0.00000  Uiso   1.00
O797   O     0.77226   0.87154   0.25000   0.00000  Uiso   1.00
O798   O     0.89441   0.79513   0.25001   0.00000  Uiso   1.00
O799   O     0.89441   0.87154   0.25001   0.00000  Uiso   1.00
O800   O     0.77226   0.79513   0.25000   0.00000  Uiso   1.00
O801   O     0.83333   0.87156   0.18393   0.00000  Uiso   1.00
O802   O     0.83334   0.79511   0.31608   0.00000  Uiso   1.00
O803   O     0.83334   0.87156   0.31608   0.00000  Uiso   1.00
O804   O     0.83333   0.79511   0.18393   0.00000  Uiso   1.00
Zn805  Zn    0.83333   0.88437   0.25000   0.00000  Uiso   1.00
Zn806  Zn    0.83333   0.78229   0.25000   0.00000  Uiso   1.00
C807   C     0.70203   0.75353   0.21782   0.00000  Uiso   1.00
C808   C     0.71517   0.76404   0.16965   0.00000  Uiso   1.00
C809   C     0.72392   0.72041   0.14368   0.00000  Uiso   1.00
H810   H     0.74719   0.69954   0.16110   0.00000  Uiso   1.00
H811   H     0.69542   0.70010   0.14009   0.00000  Uiso   1.00
H812   H     0.73568   0.72906   0.10995   0.00000  Uiso   1.00
H813   H     0.69037   0.78304   0.15248   0.00000  Uiso   1.00
H814   H     0.74318   0.78543   0.16922   0.00000  Uiso   1.00
H815   H     0.72697   0.73662   0.23625   0.00000  Uiso   1.00
H816   H     0.67735   0.72797   0.21557   0.00000  Uiso   1.00
C817   C     0.95620   0.92623   0.25487   0.00000  Uiso   1.00
C818   C     0.94402   0.94208   0.20760   0.00000  Uiso   1.00
C819   C     0.93205   0.99204   0.20686   0.00000  Uiso   1.00
H820   H     0.90965   0.99955   0.23362   0.00000  Uiso   1.00
H821   H     0.95958   0.67978   0.21192   0.00000  Uiso   1.00
H822   H     0.91844   0.66753   0.17414   0.00000  Uiso   1.00
H823   H     0.96993   0.93710   0.18395   0.00000  Uiso   1.00
H824   H     0.91808   0.92192   0.19444   0.00000  Uiso   1.00
H825   H     0.93041   0.92702   0.27892   0.00000  Uiso   1.00
H826   H     0.97457   0.95281   0.27147   0.00000  Uiso   1.00
C827   C     0.96445   0.75404   0.28384   0.00000  Uiso   1.00
C828   C     0.95084   0.76539   0.33169   0.00000  Uiso   1.00
C829   C     0.94186   0.72223   0.35831   0.00000  Uiso   1.00
H830   H     0.91875   0.70104   0.34100   0.00000  Uiso   1.00
H831   H     0.97033   0.70201   0.36256   0.00000  Uiso   1.00
H832   H     0.92979   0.73149   0.39176   0.00000  Uiso   1.00
H833   H     0.97545   0.78473   0.34881   0.00000  Uiso   1.00
H834   H     0.92281   0.78674   0.33144   0.00000  Uiso   1.00
H835   H     0.93969   0.73672   0.26544   0.00000  Uiso   1.00
H836   H     0.98922   0.72864   0.28683   0.00000  Uiso   1.00
C837   C     0.71044   0.92620   0.24559   0.00000  Uiso   1.00
C838   C     0.72274   0.94189   0.29288   0.00000  Uiso   1.00
C839   C     0.73446   0.99192   0.29379   0.00000  Uiso   1.00
H840   H     0.75686   0.99963   0.26708   0.00000  Uiso   1.00
H841   H     0.70679   0.67949   0.28879   0.00000  Uiso   1.00
H842   H     0.74800   0.66739   0.32654   0.00000  Uiso   1.00
H843   H     0.69693   0.93667   0.31661   0.00000  Uiso   1.00
H844   H     0.74882   0.92183   0.30582   0.00000  Uiso   1.00
H845   H     0.73614   0.92707   0.22144   0.00000  Uiso   1.00
H846   H     0.69205   0.95285   0.22915   0.00000  Uiso   1.00
C847   C     0.08653   0.16729   0.74718   0.00000  Uiso   1.00
C848   C     0.24678   0.16731   0.75293   0.00000  Uiso   1.00
C849   C     0.16549   0.24970   0.52315   0.00000  Uiso   1.00
C850   C     0.16864   0.08354   0.97683   0.00000  Uiso   1.00
C851   C     0.01975   0.12926   0.74208   0.00000  Uiso   1.00
C852   C     0.31186   0.21321   0.75282   0.00000  Uiso   1.00
C853   C     0.31349   0.12938   0.75901   0.00000  Uiso   1.00
C854   C     0.02143   0.21318   0.74760   0.00000  Uiso   1.00
C855   C     0.29115   0.17021   0.75641   0.00000  Uiso   1.00
C856   C     0.04212   0.17014   0.74410   0.00000  Uiso   1.00
C857   C     0.17489   0.02401   0.78810   0.00000  Uiso   1.00
C858   C     0.15819   0.30933   0.71195   0.00000  Uiso   1.00
C859   C     0.15841   0.02401   0.71191   0.00000  Uiso   1.00
C860   C     0.17510   0.30934   0.78806   0.00000  Uiso   1.00
C861   C     0.16654   0.16666   0.66323   0.00000  Uiso   1.00
C862   C     0.16685   0.16666   0.83677   0.00000  Uiso   1.00
C863   C     0.16828   0.12519   0.90756   0.00000  Uiso   1.00
C864   C     0.16584   0.20806   0.59241   0.00000  Uiso   1.00
C865   C     0.16727   0.16664   0.88470   0.00000  Uiso   1.00
C866   C     0.16635   0.16662   0.61530   0.00000  Uiso   1.00
C867   C     0.16653   0.20808   0.90759   0.00000  Uiso   1.00
C868   C     0.16687   0.12516   0.59241   0.00000  Uiso   1.00
C869   C     0.16651   0.20839   0.95366   0.00000  Uiso   1.00
C870   C     0.16723   0.12484   0.54633   0.00000  Uiso   1.00
C871   C     0.16716   0.16662   0.97682   0.00000  Uiso   1.00
C872   C     0.16680   0.16661   0.52317   0.00000  Uiso   1.00
C873   C     0.16809   0.12486   0.95364   0.00000  Uiso   1.00
C874   C     0.16601   0.20838   0.54634   0.00000  Uiso   1.00
C875   C     0.16570   0.24971   0.97687   0.00000  Uiso   1.00
C876   C     0.16813   0.08353   0.52313   0.00000  Uiso   1.00
H877   H     0.16903   0.09317   0.88962   0.00000  Uiso   1.00
H878   H     0.16537   0.24010   0.61034   0.00000  Uiso   1.00
H879   H     0.16581   0.24011   0.88968   0.00000  Uiso   1.00
H880   H     0.16718   0.09313   0.61035   0.00000  Uiso   1.00
H881   H     0.16522   0.28189   0.95925   0.00000  Uiso   1.00
H882   H     0.16848   0.05134   0.54075   0.00000  Uiso   1.00
H883   H     0.16489   0.28189   0.54078   0.00000  Uiso   1.00
H884   H     0.16936   0.05136   0.95920   0.00000  Uiso   1.00
H885   H     0.18130   0.04215   0.81857   0.00000  Uiso   1.00
H886   H     0.15127   0.29124   0.68157   0.00000  Uiso   1.00
H887   H     0.15197   0.04214   0.68145   0.00000  Uiso   1.00
H888   H     0.18201   0.29125   0.81844   0.00000  Uiso   1.00
N889   N     0.16667   0.28573   0.75000   0.00000  Uiso   1.00
N890   N     0.16667   0.04760   0.75000   0.00000  Uiso   1.00
O891   O     0.10559   0.20487   0.75000   0.00000  Uiso   1.00
O892   O     0.22774   0.12846   0.75001   0.00000  Uiso   1.00
O893   O     0.22774   0.20487   0.75001   0.00000  Uiso   1.00
O894   O     0.10559   0.12846   0.75000   0.00000  Uiso   1.00
O895   O     0.16666   0.20489   0.68393   0.00000  Uiso   1.00
O896   O     0.16667   0.12844   0.81608   0.00000  Uiso   1.00
O897   O     0.16667   0.20489   0.81608   0.00000  Uiso   1.00
O898   O     0.16666   0.12844   0.68393   0.00000  Uiso   1.00
Zn899  Zn    0.16667   0.21771   0.75000   0.00000  Uiso   1.00
Zn900  Zn    0.16667   0.11563   0.75000   0.00000  Uiso   1.00
C901   C     0.03536   0.08687   0.71782   0.00000  Uiso   1.00
C902   C     0.04850   0.09738   0.66965   0.00000  Uiso   1.00
C903   C     0.05725   0.05374   0.64368   0.00000  Uiso   1.00
H904   H     0.08053   0.03287   0.66110   0.00000  Uiso   1.00
H905   H     0.02876   0.03343   0.64009   0.00000  Uiso   1.00
H906   H     0.06901   0.06240   0.60995   0.00000  Uiso   1.00
H907   H     0.02370   0.11637   0.65248   0.00000  Uiso   1.00
H908   H     0.07651   0.11877   0.66922   0.00000  Uiso   1.00
H909   H     0.06031   0.06995   0.73625   0.00000  Uiso   1.00
H910   H     0.01069   0.06130   0.71557   0.00000  Uiso   1.00
C911   C     0.28953   0.25956   0.75487   0.00000  Uiso   1.00
C912   C     0.27735   0.27541   0.70760   0.00000  Uiso   1.00
C913   C     0.26538   0.32537   0.70686   0.00000  Uiso   1.00
H914   H     0.24298   0.33288   0.73362   0.00000  Uiso   1.00
H915   H     0.29291   0.01311   0.71192   0.00000  Uiso   1.00
H916   H     0.25177   0.00087   0.67414   0.00000  Uiso   1.00
H917   H     0.30326   0.27044   0.68395   0.00000  Uiso   1.00
H918   H     0.25142   0.25525   0.69444   0.00000  Uiso   1.00
H919   H     0.26375   0.26035   0.77892   0.00000  Uiso   1.00
H920   H     0.30790   0.28614   0.77147   0.00000  Uiso   1.00
C921   C     0.29779   0.08737   0.78384   0.00000  Uiso   1.00
C922   C     0.28417   0.09872   0.83169   0.00000  Uiso   1.00
C923   C     0.27520   0.05556   0.85831   0.00000  Uiso   1.00
H924   H     0.25208   0.03437   0.84100   0.00000  Uiso   1.00
H925   H     0.30366   0.03534   0.86256   0.00000  Uiso   1.00
H926   H     0.26313   0.06483   0.89176   0.00000  Uiso   1.00
H927   H     0.30878   0.11807   0.84881   0.00000  Uiso   1.00
H928   H     0.25614   0.12007   0.83144   0.00000  Uiso   1.00
H929   H     0.27303   0.07006   0.76544   0.00000  Uiso   1.00
H930   H     0.32255   0.06197   0.78683   0.00000  Uiso   1.00
C931   C     0.04377   0.25953   0.74559   0.00000  Uiso   1.00
C932   C     0.05607   0.27523   0.79288   0.00000  Uiso   1.00
C933   C     0.06779   0.32526   0.79379   0.00000  Uiso   1.00
H934   H     0.09019   0.33296   0.76708   0.00000  Uiso   1.00
H935   H     0.04013   0.01283   0.78879   0.00000  Uiso   1.00
H936   H     0.08133   0.00072   0.82654   0.00000  Uiso   1.00
H937   H     0.03026   0.27000   0.81661   0.00000  Uiso   1.00
H938   H     0.08216   0.25516   0.80582   0.00000  Uiso   1.00
H939   H     0.06948   0.26041   0.72144   0.00000  Uiso   1.00
H940   H     0.02538   0.28618   0.72915   0.00000  Uiso   1.00
C941   C     0.41987   0.16729   0.74718   0.00000  Uiso   1.00
C942   C     0.58011   0.16731   0.75293   0.00000  Uiso   1.00
C943   C     0.49882   0.24970   0.52315   0.00000  Uiso   1.00
C944   C     0.50197   0.08354   0.97683   0.00000  Uiso   1.00
C945   C     0.35308   0.12926   0.74208   0.00000  Uiso   1.00
C946   C     0.64519   0.21321   0.75282   0.00000  Uiso   1.00
C947   C     0.64682   0.12938   0.75901   0.00000  Uiso   1.00
C948   C     0.35476   0.21318   0.74760   0.00000  Uiso   1.00
C949   C     0.62449   0.17021   0.75641   0.00000  Uiso   1.00
C950   C     0.37545   0.17014   0.74410   0.00000  Uiso   1.00
C951   C     0.50822   0.02401   0.78810   0.00000  Uiso   1.00
C952   C     0.49153   0.30933   0.71195   0.00000  Uiso   1.00
C953   C     0.49175   0.02401   0.71191   0.00000  Uiso   1.00
C954   C     0.50844   0.30934   0.78806   0.00000  Uiso   1.00
C955   C     0.49987   0.16666   0.66323   0.00000  Uiso   1.00
C956   C     0.50018   0.16666   0.83677   0.00000  Uiso   1.00
C957   C     0.50161   0.12519   0.90756   0.00000  Uiso   1.00
C958   C     0.49917   0.20806   0.59241   0.00000  Uiso   1.00
C959   C     0.50060   0.16664   0.88470   0.00000  Uiso   1.00
C960   C     0.49969   0.16662   0.61530   0.00000  Uiso   1.00
C961   C     0.49986   0.20808   0.90759   0.00000  Uiso   1.00
C962   C     0.50020   0.12516   0.59241   0.00000  Uiso   1.00
C963   C     0.49984   0.20839   0.95366   0.00000  Uiso   1.00
C964   C     0.50056   0.12484   0.54633   0.00000  Uiso   1.00
C965   C     0.50049   0.16662   0.97682   0.00000  Uiso   1.00
C966   C     0.50014   0.16661   0.52317   0.00000  Uiso   1.00
C967   C     0.50142   0.12486   0.95364   0.00000  Uiso   1.00
C968   C     0.49935   0.20838   0.54634   0.00000  Uiso   1.00
C969   C     0.49903   0.24971   0.97687   0.00000  Uiso   1.00
C970   C     0.50146   0.08353   0.52313   0.00000  Uiso   1.00
H971   H     0.50237   0.09317   0.88962   0.00000  Uiso   1.00
H972   H     0.49870   0.24010   0.61034   0.00000  Uiso   1.00
H973   H     0.49915   0.24011   0.88968   0.00000  Uiso   1.00
H974   H     0.50051   0.09313   0.61035   0.00000  Uiso   1.00
H975   H     0.49855   0.28189   0.95925   0.00000  Uiso   1.00
H976   H     0.50181   0.05134   0.54075   0.00000  Uiso   1.00
H977   H     0.49822   0.28189   0.54078   0.00000  Uiso   1.00
H978   H     0.50269   0.05136   0.95920   0.00000  Uiso   1.00
H979   H     0.51464   0.04215   0.81857   0.00000  Uiso   1.00
H980   H     0.48460   0.29124   0.68157   0.00000  Uiso   1.00
H981   H     0.48530   0.04214   0.68145   0.00000  Uiso   1.00
H982   H     0.51534   0.29125   0.81844   0.00000  Uiso   1.00
N983   N     0.50000   0.28573   0.75000   0.00000  Uiso   1.00
N984   N     0.50000   0.04760   0.75000   0.00000  Uiso   1.00
O985   O     0.43892   0.20487   0.75000   0.00000  Uiso   1.00
O986   O     0.56108   0.12846   0.75001   0.00000  Uiso   1.00
O987   O     0.56108   0.20487   0.75001   0.00000  Uiso   1.00
O988   O     0.43892   0.12846   0.75000   0.00000  Uiso   1.00
O989   O     0.49999   0.20489   0.68393   0.00000  Uiso   1.00
O990   O     0.50001   0.12844   0.81608   0.00000  Uiso   1.00
O991   O     0.50001   0.20489   0.81608   0.00000  Uiso   1.00
O992   O     0.49999   0.12844   0.68393   0.00000  Uiso   1.00
Zn993  Zn    0.50000   0.21771   0.75000   0.00000  Uiso   1.00
Zn994  Zn    0.50000   0.11563   0.75000   0.00000  Uiso   1.00
C995   C     0.36869   0.08687   0.71782   0.00000  Uiso   1.00
C996   C     0.38183   0.09738   0.66965   0.00000  Uiso   1.00
C997   C     0.39059   0.05374   0.64368   0.00000  Uiso   1.00
H998   H     0.41386   0.03287   0.66110   0.00000  Uiso   1.00
H999   H     0.36209   0.03343   0.64009   0.00000  Uiso   1.00
H1000  H     0.40235   0.06240   0.60995   0.00000  Uiso   1.00
H1001  H     0.35704   0.11637   0.65248   0.00000  Uiso   1.00
H1002  H     0.40985   0.11877   0.66922   0.00000  Uiso   1.00
H1003  H     0.39364   0.06995   0.73625   0.00000  Uiso   1.00
H1004  H     0.34402   0.06130   0.71557   0.00000  Uiso   1.00
C1005  C     0.62287   0.25956   0.75487   0.00000  Uiso   1.00
C1006  C     0.61068   0.27541   0.70760   0.00000  Uiso   1.00
C1007  C     0.59871   0.32537   0.70686   0.00000  Uiso   1.00
H1008  H     0.57632   0.33288   0.73362   0.00000  Uiso   1.00
H1009  H     0.62624   0.01311   0.71192   0.00000  Uiso   1.00
H1010  H     0.58511   0.00087   0.67414   0.00000  Uiso   1.00
H1011  H     0.63659   0.27044   0.68395   0.00000  Uiso   1.00
H1012  H     0.58475   0.25525   0.69444   0.00000  Uiso   1.00
H1013  H     0.59708   0.26035   0.77892   0.00000  Uiso   1.00
H1014  H     0.64123   0.28614   0.77147   0.00000  Uiso   1.00
C1015  C     0.63112   0.08737   0.78384   0.00000  Uiso   1.00
C1016  C     0.61751   0.09872   0.83169   0.00000  Uiso   1.00
C1017  C     0.60853   0.05556   0.85831   0.00000  Uiso   1.00
H1018  H     0.58542   0.03437   0.84100   0.00000  Uiso   1.00
H1019  H     0.63700   0.03534   0.86256   0.00000  Uiso   1.00
H1020  H     0.59646   0.06483   0.89176   0.00000  Uiso   1.00
H1021  H     0.64212   0.11807   0.84881   0.00000  Uiso   1.00
H1022  H     0.58947   0.12007   0.83144   0.00000  Uiso   1.00
H1023  H     0.60636   0.07006   0.76544   0.00000  Uiso   1.00
H1024  H     0.65589   0.06197   0.78683   0.00000  Uiso   1.00
C1025  C     0.37710   0.25953   0.74559   0.00000  Uiso   1.00
C1026  C     0.38940   0.27523   0.79288   0.00000  Uiso   1.00
C1027  C     0.40112   0.32526   0.79379   0.00000  Uiso   1.00
H1028  H     0.42352   0.33296   0.76708   0.00000  Uiso   1.00
H1029  H     0.37346   0.01283   0.78879   0.00000  Uiso   1.00
H1030  H     0.41466   0.00072   0.82654   0.00000  Uiso   1.00
H1031  H     0.36360   0.27000   0.81661   0.00000  Uiso   1.00
H1032  H     0.41549   0.25516   0.80582   0.00000  Uiso   1.00
H1033  H     0.40281   0.26041   0.72144   0.00000  Uiso   1.00
H1034  H     0.35872   0.28618   0.72915   0.00000  Uiso   1.00
C1035  C     0.75320   0.16729   0.74718   0.00000  Uiso   1.00
C1036  C     0.91344   0.16731   0.75293   0.00000  Uiso   1.00
C1037  C     0.83216   0.24970   0.52315   0.00000  Uiso   1.00
C1038  C     0.83530   0.08354   0.97683   0.00000  Uiso   1.00
C1039  C     0.68642   0.12926   0.74208   0.00000  Uiso   1.00
C1040  C     0.97853   0.21321   0.75282   0.00000  Uiso   1.00
C1041  C     0.98015   0.12938   0.75901   0.00000  Uiso   1.00
C1042  C     0.68810   0.21318   0.74760   0.00000  Uiso   1.00
C1043  C     0.95782   0.17021   0.75641   0.00000  Uiso   1.00
C1044  C     0.70878   0.17014   0.74410   0.00000  Uiso   1.00
C1045  C     0.84155   0.02401   0.78810   0.00000  Uiso   1.00
C1046  C     0.82486   0.30933   0.71195   0.00000  Uiso   1.00
C1047  C     0.82508   0.02401   0.71191   0.00000  Uiso   1.00
C1048  C     0.84177   0.30934   0.78806   0.00000  Uiso   1.00
C1049  C     0.83321   0.16666   0.66323   0.00000  Uiso   1.00
C1050  C     0.83351   0.16666   0.83677   0.00000  Uiso   1.00
C1051  C     0.83495   0.12519   0.90756   0.00000  Uiso   1.00
C1052  C     0.83250   0.20806   0.59241   0.00000  Uiso   1.00
C1053  C     0.83393   0.16664   0.88470   0.00000  Uiso   1.00
C1054  C     0.83302   0.16662   0.61530   0.00000  Uiso   1.00
C1055  C     0.83320   0.20808   0.90759   0.00000  Uiso   1.00
C1056  C     0.83353   0.12516   0.59241   0.00000  Uiso   1.00
C1057  C     0.83317   0.20839   0.95366   0.00000  Uiso   1.00
C1058  C     0.83389   0.12484   0.54633   0.00000  Uiso   1.00
C1059  C     0.83382   0.16662   0.97682   0.00000  Uiso   1.00
C1060  C     0.83347   0.16661   0.52317   0.00000  Uiso   1.00
C1061  C     0.83476   0.12486   0.95364   0.00000  Uiso   1.00
C1062  C     0.83268   0.20838   0.54634   0.00000  Uiso   1.00
C1063  C     0.83237   0.24971   0.97687   0.00000  Uiso   1.00
C1064  C     0.83479   0.08353   0.52313   0.00000  Uiso   1.00
H1065  H     0.83570   0.09317   0.88962   0.00000  Uiso   1.00
H1066  H     0.83203   0.24010   0.61034   0.00000  Uiso   1.00
H1067  H     0.83248   0.24011   0.88968   0.00000  Uiso   1.00
H1068  H     0.83385   0.09313   0.61035   0.00000  Uiso   1.00
H1069  H     0.83189   0.28189   0.95925   0.00000  Uiso   1.00
H1070  H     0.83514   0.05134   0.54075   0.00000  Uiso   1.00
H1071  H     0.83155   0.28189   0.54078   0.00000  Uiso   1.00
H1072  H     0.83602   0.05136   0.95920   0.00000  Uiso   1.00
H1073  H     0.84797   0.04215   0.81857   0.00000  Uiso   1.00
H1074  H     0.81793   0.29124   0.68157   0.00000  Uiso   1.00
H1075  H     0.81863   0.04214   0.68145   0.00000  Uiso   1.00
H1076  H     0.84868   0.29125   0.81844   0.00000  Uiso   1.00
N1077  N     0.83333   0.28573   0.75000   0.00000  Uiso   1.00
N1078  N     0.83333   0.04760   0.75000   0.00000  Uiso   1.00
O1079  O     0.77226   0.20487   0.75000   0.00000  Uiso   1.00
O1080  O     0.89441   0.12846   0.75001   0.00000  Uiso   1.00
O1081  O     0.89441   0.20487   0.75001   0.00000  Uiso   1.00
O1082  O     0.77226   0.12846   0.75000   0.00000  Uiso   1.00
O1083  O     0.83333   0.20489   0.68393   0.00000  Uiso   1.00
O1084  O     0.83334   0.12844   0.81608   0.00000  Uiso   1.00
O1085  O     0.83334   0.20489   0.81608   0.00000  Uiso   1.00
O1086  O     0.83333   0.12844   0.68393   0.00000  Uiso   1.00
Zn1087 Zn    0.83333   0.21771   0.75000   0.00000  Uiso   1.00
Zn1088 Zn    0.83333   0.11563   0.75000   0.00000  Uiso   1.00
C1089  C     0.70203   0.08687   0.71782   0.00000  Uiso   1.00
C1090  C     0.71517   0.09738   0.66965   0.00000  Uiso   1.00
C1091  C     0.72392   0.05374   0.64368   0.00000  Uiso   1.00
H1092  H     0.74719   0.03287   0.66110   0.00000  Uiso   1.00
H1093  H     0.69542   0.03343   0.64009   0.00000  Uiso   1.00
H1094  H     0.73568   0.06240   0.60995   0.00000  Uiso   1.00
H1095  H     0.69037   0.11637   0.65248   0.00000  Uiso   1.00
H1096  H     0.74318   0.11877   0.66922   0.00000  Uiso   1.00
H1097  H     0.72697   0.06995   0.73625   0.00000  Uiso   1.00
H1098  H     0.67735   0.06130   0.71557   0.00000  Uiso   1.00
C1099  C     0.95620   0.25956   0.75487   0.00000  Uiso   1.00
C1100  C     0.94402   0.27541   0.70760   0.00000  Uiso   1.00
C1101  C     0.93205   0.32537   0.70686   0.00000  Uiso   1.00
H1102  H     0.90965   0.33288   0.73362   0.00000  Uiso   1.00
H1103  H     0.95958   0.01311   0.71192   0.00000  Uiso   1.00
H1104  H     0.91844   0.00087   0.67414   0.00000  Uiso   1.00
H1105  H     0.96993   0.27044   0.68395   0.00000  Uiso   1.00
H1106  H     0.91808   0.25525   0.69444   0.00000  Uiso   1.00
H1107  H     0.93041   0.26035   0.77892   0.00000  Uiso   1.00
H1108  H     0.97457   0.28614   0.77147   0.00000  Uiso   1.00
C1109  C     0.96445   0.08737   0.78384   0.00000  Uiso   1.00
C1110  C     0.95084   0.09872   0.83169   0.00000  Uiso   1.00
C1111  C     0.94186   0.05556   0.85831   0.00000  Uiso   1.00
H1112  H     0.91875   0.03437   0.84100   0.00000  Uiso   1.00
H1113  H     0.97033   0.03534   0.86256   0.00000  Uiso   1.00
H1114  H     0.92979   0.06483   0.89176   0.00000  Uiso   1.00
H1115  H     0.97545   0.11807   0.84881   0.00000  Uiso   1.00
H1116  H     0.92281   0.12007   0.83144   0.00000  Uiso   1.00
H1117  H     0.93969   0.07006   0.76544   0.00000  Uiso   1.00
H1118  H     0.98922   0.06197   0.78683   0.00000  Uiso   1.00
C1119  C     0.71044   0.25953   0.74559   0.00000  Uiso   1.00
C1120  C     0.72274   0.27523   0.79288   0.00000  Uiso   1.00
C1121  C     0.73446   0.32526   0.79379   0.00000  Uiso   1.00
H1122  H     0.75686   0.33296   0.76708   0.00000  Uiso   1.00
H1123  H     0.70679   0.01283   0.78879   0.00000  Uiso   1.00
H1124  H     0.74800   0.00072   0.82654   0.00000  Uiso   1.00
H1125  H     0.69693   0.27000   0.81661   0.00000  Uiso   1.00
H1126  H     0.74882   0.25516   0.80582   0.00000  Uiso   1.00
H1127  H     0.73614   0.26041   0.72144   0.00000  Uiso   1.00
H1128  H     0.69205   0.28618   0.72915   0.00000  Uiso   1.00
C1129  C     0.08653   0.50062   0.74718   0.00000  Uiso   1.00
C1130  C     0.24678   0.50064   0.75293   0.00000  Uiso   1.00
C1131  C     0.16549   0.58303   0.52315   0.00000  Uiso   1.00
C1132  C     0.16864   0.41687   0.97683   0.00000  Uiso   1.00
C1133  C     0.01975   0.46259   0.74208   0.00000  Uiso   1.00
C1134  C     0.31186   0.54654   0.75282   0.00000  Uiso   1.00
C1135  C     0.31349   0.46271   0.75901   0.00000  Uiso   1.00
C1136  C     0.02143   0.54652   0.74760   0.00000  Uiso   1.00
C1137  C     0.29115   0.50354   0.75641   0.00000  Uiso   1.00
C1138  C     0.04212   0.50348   0.74410   0.00000  Uiso   1.00
C1139  C     0.17489   0.35735   0.78810   0.00000  Uiso   1.00
C1140  C     0.15819   0.64266   0.71195   0.00000  Uiso   1.00
C1141  C     0.15841   0.35734   0.71191   0.00000  Uiso   1.00
C1142  C     0.17510   0.64267   0.78806   0.00000  Uiso   1.00
C1143  C     0.16654   0.49999   0.66323   0.00000  Uiso   1.00
C1144  C     0.16685   0.50000   0.83677   0.00000  Uiso   1.00
C1145  C     0.16828   0.45853   0.90756   0.00000  Uiso   1.00
C1146  C     0.16584   0.54140   0.59241   0.00000  Uiso   1.00
C1147  C     0.16727   0.49998   0.88470   0.00000  Uiso   1.00
C1148  C     0.16635   0.49996   0.61530   0.00000  Uiso   1.00
C1149  C     0.16653   0.54141   0.90759   0.00000  Uiso   1.00
C1150  C     0.16687   0.45850   0.59241   0.00000  Uiso   1.00
C1151  C     0.16651   0.54172   0.95366   0.00000  Uiso   1.00
C1152  C     0.16723   0.45818   0.54633   0.00000  Uiso   1.00
C1153  C     0.16716   0.49995   0.97682   0.00000  Uiso   1.00
C1154  C     0.16680   0.49995   0.52317   0.00000  Uiso   1.00
C1155  C     0.16809   0.45820   0.95364   0.00000  Uiso   1.00
C1156  C     0.16601   0.54171   0.54634   0.00000  Uiso   1.00
C1157  C     0.16570   0.58304   0.97687   0.00000  Uiso   1.00
C1158  C     0.16813   0.41686   0.52313   0.00000  Uiso   1.00
H1159  H     0.16903   0.42651   0.88962   0.00000  Uiso   1.00
H1160  H     0.16537   0.57343   0.61034   0.00000  Uiso   1.00
H1161  H     0.16581   0.57344   0.88968   0.00000  Uiso   1.00
H1162  H     0.16718   0.42647   0.61035   0.00000  Uiso   1.00
H1163  H     0.16522   0.61523   0.95925   0.00000  Uiso   1.00
H1164  H     0.16848   0.38467   0.54075   0.00000  Uiso   1.00
H1165  H     0.16489   0.61522   0.54078   0.00000  Uiso   1.00
H1166  H     0.16936   0.38469   0.95920   0.00000  Uiso   1.00
H1167  H     0.18130   0.37548   0.81857   0.00000  Uiso   1.00
H1168  H     0.15127   0.62457   0.68157   0.00000  Uiso   1.00
H1169  H     0.15197   0.37547   0.68145   0.00000  Uiso   1.00
H1170  H     0.18201   0.62458   0.81844   0.00000  Uiso   1.00
N1171  N     0.16667   0.61907   0.75000   0.00000  Uiso   1.00
N1172  N     0.16667   0.38093   0.75000   0.00000  Uiso   1.00
O1173  O     0.10559   0.53821   0.75000   0.00000  Uiso   1.00
O1174  O     0.22774   0.46179   0.75001   0.00000  Uiso   1.00
O1175  O     0.22774   0.53821   0.75001   0.00000  Uiso   1.00
O1176  O     0.10559   0.46179   0.75000   0.00000  Uiso   1.00
O1177  O     0.16666   0.53823   0.68393   0.00000  Uiso   1.00
O1178  O     0.16667   0.46177   0.81608   0.00000  Uiso   1.00
O1179  O     0.16667   0.53823   0.81608   0.00000  Uiso   1.00
O1180  O     0.16666   0.46177   0.68393   0.00000  Uiso   1.00
Zn1181 Zn    0.16667   0.55104   0.75000   0.00000  Uiso   1.00
Zn1182 Zn    0.16667   0.44896   0.75000   0.00000  Uiso   1.00
C1183  C     0.03536   0.42020   0.71782   0.00000  Uiso   1.00
C1184  C     0.04850   0.43071   0.66965   0.00000  Uiso   1.00
C1185  C     0.05725   0.38708   0.64368   0.00000  Uiso   1.00
H1186  H     0.08053   0.36621   0.66110   0.00000  Uiso   1.00
H1187  H     0.02876   0.36677   0.64009   0.00000  Uiso   1.00
H1188  H     0.06901   0.39573   0.60995   0.00000  Uiso   1.00
H1189  H     0.02370   0.44971   0.65248   0.00000  Uiso   1.00
H1190  H     0.07651   0.45210   0.66922   0.00000  Uiso   1.00
H1191  H     0.06031   0.40329   0.73625   0.00000  Uiso   1.00
H1192  H     0.01069   0.39464   0.71557   0.00000  Uiso   1.00
C1193  C     0.28953   0.59289   0.75487   0.00000  Uiso   1.00
C1194  C     0.27735   0.60874   0.70760   0.00000  Uiso   1.00
C1195  C     0.26538   0.65871   0.70686   0.00000  Uiso   1.00
H1196  H     0.24298   0.66621   0.73362   0.00000  Uiso   1.00
H1197  H     0.29291   0.34645   0.71192   0.00000  Uiso   1.00
H1198  H     0.25177   0.33420   0.67414   0.00000  Uiso   1.00
H1199  H     0.30326   0.60377   0.68395   0.00000  Uiso   1.00
H1200  H     0.25142   0.58859   0.69444   0.00000  Uiso   1.00
H1201  H     0.26375   0.59368   0.77892   0.00000  Uiso   1.00
H1202  H     0.30790   0.61947   0.77147   0.00000  Uiso   1.00
C1203  C     0.29779   0.42070   0.78384   0.00000  Uiso   1.00
C1204  C     0.28417   0.43206   0.83169   0.00000  Uiso   1.00
C1205  C     0.27520   0.38890   0.85831   0.00000  Uiso   1.00
H1206  H     0.25208   0.36771   0.84100   0.00000  Uiso   1.00
H1207  H     0.30366   0.36868   0.86256   0.00000  Uiso   1.00
H1208  H     0.26313   0.39816   0.89176   0.00000  Uiso   1.00
H1209  H     0.30878   0.45140   0.84881   0.00000  Uiso   1.00
H1210  H     0.25614   0.45340   0.83144   0.00000  Uiso   1.00
H1211  H     0.27303   0.40339   0.76544   0.00000  Uiso   1.00
H1212  H     0.32255   0.39531   0.78683   0.00000  Uiso   1.00
C1213  C     0.04377   0.59286   0.74559   0.00000  Uiso   1.00
C1214  C     0.05607   0.60856   0.79288   0.00000  Uiso   1.00
C1215  C     0.06779   0.65859   0.79379   0.00000  Uiso   1.00
H1216  H     0.09019   0.66629   0.76708   0.00000  Uiso   1.00
H1217  H     0.04013   0.34616   0.78879   0.00000  Uiso   1.00
H1218  H     0.08133   0.33406   0.82654   0.00000  Uiso   1.00
H1219  H     0.03026   0.60334   0.81661   0.00000  Uiso   1.00
H1220  H     0.08216   0.58850   0.80582   0.00000  Uiso   1.00
H1221  H     0.06948   0.59374   0.72144   0.00000  Uiso   1.00
H1222  H     0.02538   0.61951   0.72915   0.00000  Uiso   1.00
C1223  C     0.41987   0.50062   0.74718   0.00000  Uiso   1.00
C1224  C     0.58011   0.50064   0.75293   0.00000  Uiso   1.00
C1225  C     0.49882   0.58303   0.52315   0.00000  Uiso   1.00
C1226  C     0.50197   0.41687   0.97683   0.00000  Uiso   1.00
C1227  C     0.35308   0.46259   0.74208   0.00000  Uiso   1.00
C1228  C     0.64519   0.54654   0.75282   0.00000  Uiso   1.00
C1229  C     0.64682   0.46271   0.75901   0.00000  Uiso   1.00
C1230  C     0.35476   0.54652   0.74760   0.00000  Uiso   1.00
C1231  C     0.62449   0.50354   0.75641   0.00000  Uiso   1.00
C1232  C     0.37545   0.50348   0.74410   0.00000  Uiso   1.00
C1233  C     0.50822   0.35735   0.78810   0.00000  Uiso   1.00
C1234  C     0.49153   0.64266   0.71195   0.00000  Uiso   1.00
C1235  C     0.49175   0.35734   0.71191   0.00000  Uiso   1.00
C1236  C     0.50844   0.64267   0.78806   0.00000  Uiso   1.00
C1237  C     0.49987   0.49999   0.66323   0.00000  Uiso   1.00
C1238  C     0.50018   0.50000   0.83677   0.00000  Uiso   1.00
C1239  C     0.50161   0.45853   0.90756   0.00000  Uiso   1.00
C1240  C     0.49917   0.54140   0.59241   0.00000  Uiso   1.00
C1241  C     0.50060   0.49998   0.88470   0.00000  Uiso   1.00
C1242  C     0.49969   0.49996   0.61530   0.00000  Uiso   1.00
C1243  C     0.49986   0.54141   0.90759   0.00000  Uiso   1.00
C1244  C     0.50020   0.45850   0.59241   0.00000  Uiso   1.00
C1245  C     0.49984   0.54172   0.95366   0.00000  Uiso   1.00
C1246  C     0.50056   0.45818   0.54633   0.00000  Uiso   1.00
C1247  C     0.50049   0.49995   0.97682   0.00000  Uiso   1.00
C1248  C     0.50014   0.49995   0.52317   0.00000  Uiso   1.00
C1249  C     0.50142   0.45820   0.95364   0.00000  Uiso   1.00
C1250  C     0.49935   0.54171   0.54634   0.00000  Uiso   1.00
C1251  C     0.49903   0.58304   0.97687   0.00000  Uiso   1.00
C1252  C     0.50146   0.41686   0.52313   0.00000  Uiso   1.00
H1253  H     0.50237   0.42651   0.88962   0.00000  Uiso   1.00
H1254  H     0.49870   0.57343   0.61034   0.00000  Uiso   1.00
H1255  H     0.49915   0.57344   0.88968   0.00000  Uiso   1.00
H1256  H     0.50051   0.42647   0.61035   0.00000  Uiso   1.00
H1257  H     0.49855   0.61523   0.95925   0.00000  Uiso   1.00
H1258  H     0.50181   0.38467   0.54075   0.00000  Uiso   1.00
H1259  H     0.49822   0.61522   0.54078   0.00000  Uiso   1.00
H1260  H     0.50269   0.38469   0.95920   0.00000  Uiso   1.00
H1261  H     0.51464   0.37548   0.81857   0.00000  Uiso   1.00
H1262  H     0.48460   0.62457   0.68157   0.00000  Uiso   1.00
H1263  H     0.48530   0.37547   0.68145   0.00000  Uiso   1.00
H1264  H     0.51534   0.62458   0.81844   0.00000  Uiso   1.00
N1265  N     0.50000   0.61907   0.75000   0.00000  Uiso   1.00
N1266  N     0.50000   0.38093   0.75000   0.00000  Uiso   1.00
O1267  O     0.43892   0.53821   0.75000   0.00000  Uiso   1.00
O1268  O     0.56108   0.46179   0.75001   0.00000  Uiso   1.00
O1269  O     0.56108   0.53821   0.75001   0.00000  Uiso   1.00
O1270  O     0.43892   0.46179   0.75000   0.00000  Uiso   1.00
O1271  O     0.49999   0.53823   0.68393   0.00000  Uiso   1.00
O1272  O     0.50001   0.46177   0.81608   0.00000  Uiso   1.00
O1273  O     0.50001   0.53823   0.81608   0.00000  Uiso   1.00
O1274  O     0.49999   0.46177   0.68393   0.00000  Uiso   1.00
Zn1275 Zn    0.50000   0.55104   0.75000   0.00000  Uiso   1.00
Zn1276 Zn    0.50000   0.44896   0.75000   0.00000  Uiso   1.00
C1277  C     0.36869   0.42020   0.71782   0.00000  Uiso   1.00
C1278  C     0.38183   0.43071   0.66965   0.00000  Uiso   1.00
C1279  C     0.39059   0.38708   0.64368   0.00000  Uiso   1.00
H1280  H     0.41386   0.36621   0.66110   0.00000  Uiso   1.00
H1281  H     0.36209   0.36677   0.64009   0.00000  Uiso   1.00
H1282  H     0.40235   0.39573   0.60995   0.00000  Uiso   1.00
H1283  H     0.35704   0.44971   0.65248   0.00000  Uiso   1.00
H1284  H     0.40985   0.45210   0.66922   0.00000  Uiso   1.00
H1285  H     0.39364   0.40329   0.73625   0.00000  Uiso   1.00
H1286  H     0.34402   0.39464   0.71557   0.00000  Uiso   1.00
C1287  C     0.62287   0.59289   0.75487   0.00000  Uiso   1.00
C1288  C     0.61068   0.60874   0.70760   0.00000  Uiso   1.00
C1289  C     0.59871   0.65871   0.70686   0.00000  Uiso   1.00
H1290  H     0.57632   0.66621   0.73362   0.00000  Uiso   1.00
H1291  H     0.62624   0.34645   0.71192   0.00000  Uiso   1.00
H1292  H     0.58511   0.33420   0.67414   0.00000  Uiso   1.00
H1293  H     0.63659   0.60377   0.68395   0.00000  Uiso   1.00
H1294  H     0.58475   0.58859   0.69444   0.00000  Uiso   1.00
H1295  H     0.59708   0.59368   0.77892   0.00000  Uiso   1.00
H1296  H     0.64123   0.61947   0.77147   0.00000  Uiso   1.00
C1297  C     0.63112   0.42070   0.78384   0.00000  Uiso   1.00
C1298  C     0.61751   0.43206   0.83169   0.00000  Uiso   1.00
C1299  C     0.60853   0.38890   0.85831   0.00000  Uiso   1.00
H1300  H     0.58542   0.36771   0.84100   0.00000  Uiso   1.00
H1301  H     0.63700   0.36868   0.86256   0.00000  Uiso   1.00
H1302  H     0.59646   0.39816   0.89176   0.00000  Uiso   1.00
H1303  H     0.64212   0.45140   0.84881   0.00000  Uiso   1.00
H1304  H     0.58947   0.45340   0.83144   0.00000  Uiso   1.00
H1305  H     0.60636   0.40339   0.76544   0.00000  Uiso   1.00
H1306  H     0.65589   0.39531   0.78683   0.00000  Uiso   1.00
C1307  C     0.37710   0.59286   0.74559   0.00000  Uiso   1.00
C1308  C     0.38940   0.60856   0.79288   0.00000  Uiso   1.00
C1309  C     0.40112   0.65859   0.79379   0.00000  Uiso   1.00
H1310  H     0.42352   0.66629   0.76708   0.00000  Uiso   1.00
H1311  H     0.37346   0.34616   0.78879   0.00000  Uiso   1.00
H1312  H     0.41466   0.33406   0.82654   0.00000  Uiso   1.00
H1313  H     0.36360   0.60334   0.81661   0.00000  Uiso   1.00
H1314  H     0.41549   0.58850   0.80582   0.00000  Uiso   1.00
H1315  H     0.40281   0.59374   0.72144   0.00000  Uiso   1.00
H1316  H     0.35872   0.61951   0.72915   0.00000  Uiso   1.00
C1317  C     0.75320   0.50062   0.74718   0.00000  Uiso   1.00
C1318  C     0.91344   0.50064   0.75293   0.00000  Uiso   1.00
C1319  C     0.83216   0.58303   0.52315   0.00000  Uiso   1.00
C1320  C     0.83530   0.41687   0.97683   0.00000  Uiso   1.00
C1321  C     0.68642   0.46259   0.74208   0.00000  Uiso   1.00
C1322  C     0.97853   0.54654   0.75282   0.00000  Uiso   1.00
C1323  C     0.98015   0.46271   0.75901   0.00000  Uiso   1.00
C1324  C     0.68810   0.54652   0.74760   0.00000  Uiso   1.00
C1325  C     0.95782   0.50354   0.75641   0.00000  Uiso   1.00
C1326  C     0.70878   0.50348   0.74410   0.00000  Uiso   1.00
C1327  C     0.84155   0.35735   0.78810   0.00000  Uiso   1.00
C1328  C     0.82486   0.64266   0.71195   0.00000  Uiso   1.00
C1329  C     0.82508   0.35734   0.71191   0.00000  Uiso   1.00
C1330  C     0.84177   0.64267   0.78806   0.00000  Uiso   1.00
C1331  C     0.83321   0.49999   0.66323   0.00000  Uiso   1.00
C1332  C     0.83351   0.50000   0.83677   0.00000  Uiso   1.00
C1333  C     0.83495   0.45853   0.90756   0.00000  Uiso   1.00
C1334  C     0.83250   0.54140   0.59241   0.00000  Uiso   1.00
C1335  C     0.83393   0.49998   0.88470   0.00000  Uiso   1.00
C1336  C     0.83302   0.49996   0.61530   0.00000  Uiso   1.00
C1337  C     0.83320   0.54141   0.90759   0.00000  Uiso   1.00
C1338  C     0.83353   0.45850   0.59241   0.00000  Uiso   1.00
C1339  C     0.83317   0.54172   0.95366   0.00000  Uiso   1.00
C1340  C     0.83389   0.45818   0.54633   0.00000  Uiso   1.00
C1341  C     0.83382   0.49995   0.97682   0.00000  Uiso   1.00
C1342  C     0.83347   0.49995   0.52317   0.00000  Uiso   1.00
C1343  C     0.83476   0.45820   0.95364   0.00000  Uiso   1.00
C1344  C     0.83268   0.54171   0.54634   0.00000  Uiso   1.00
C1345  C     0.83237   0.58304   0.97687   0.00000  Uiso   1.00
C1346  C     0.83479   0.41686   0.52313   0.00000  Uiso   1.00
H1347  H     0.83570   0.42651   0.88962   0.00000  Uiso   1.00
H1348  H     0.83203   0.57343   0.61034   0.00000  Uiso   1.00
H1349  H     0.83248   0.57344   0.88968   0.00000  Uiso   1.00
H1350  H     0.83385   0.42647   0.61035   0.00000  Uiso   1.00
H1351  H     0.83189   0.61523   0.95925   0.00000  Uiso   1.00
H1352  H     0.83514   0.38467   0.54075   0.00000  Uiso   1.00
H1353  H     0.83155   0.61522   0.54078   0.00000  Uiso   1.00
H1354  H     0.83602   0.38469   0.95920   0.00000  Uiso   1.00
H1355  H     0.84797   0.37548   0.81857   0.00000  Uiso   1.00
H1356  H     0.81793   0.62457   0.68157   0.00000  Uiso   1.00
H1357  H     0.81863   0.37547   0.68145   0.00000  Uiso   1.00
H1358  H     0.84868   0.62458   0.81844   0.00000  Uiso   1.00
N1359  N     0.83333   0.61907   0.75000   0.00000  Uiso   1.00
N1360  N     0.83333   0.38093   0.75000   0.00000  Uiso   1.00
O1361  O     0.77226   0.53821   0.75000   0.00000  Uiso   1.00
O1362  O     0.89441   0.46179   0.75001   0.00000  Uiso   1.00
O1363  O     0.89441   0.53821   0.75001   0.00000  Uiso   1.00
O1364  O     0.77226   0.46179   0.75000   0.00000  Uiso   1.00
O1365  O     0.83333   0.53823   0.68393   0.00000  Uiso   1.00
O1366  O     0.83334   0.46177   0.81608   0.00000  Uiso   1.00
O1367  O     0.83334   0.53823   0.81608   0.00000  Uiso   1.00
O1368  O     0.83333   0.46177   0.68393   0.00000  Uiso   1.00
Zn1369 Zn    0.83333   0.55104   0.75000   0.00000  Uiso   1.00
Zn1370 Zn    0.83333   0.44896   0.75000   0.00000  Uiso   1.00
C1371  C     0.70203   0.42020   0.71782   0.00000  Uiso   1.00
C1372  C     0.71517   0.43071   0.66965   0.00000  Uiso   1.00
C1373  C     0.72392   0.38708   0.64368   0.00000  Uiso   1.00
H1374  H     0.74719   0.36621   0.66110   0.00000  Uiso   1.00
H1375  H     0.69542   0.36677   0.64009   0.00000  Uiso   1.00
H1376  H     0.73568   0.39573   0.60995   0.00000  Uiso   1.00
H1377  H     0.69037   0.44971   0.65248   0.00000  Uiso   1.00
H1378  H     0.74318   0.45210   0.66922   0.00000  Uiso   1.00
H1379  H     0.72697   0.40329   0.73625   0.00000  Uiso   1.00
H1380  H     0.67735   0.39464   0.71557   0.00000  Uiso   1.00
C1381  C     0.95620   0.59289   0.75487   0.00000  Uiso   1.00
C1382  C     0.94402   0.60874   0.70760   0.00000  Uiso   1.00
C1383  C     0.93205   0.65871   0.70686   0.00000  Uiso   1.00
H1384  H     0.90965   0.66621   0.73362   0.00000  Uiso   1.00
H1385  H     0.95958   0.34645   0.71192   0.00000  Uiso   1.00
H1386  H     0.91844   0.33420   0.67414   0.00000  Uiso   1.00
H1387  H     0.96993   0.60377   0.68395   0.00000  Uiso   1.00
H1388  H     0.91808   0.58859   0.69444   0.00000  Uiso   1.00
H1389  H     0.93041   0.59368   0.77892   0.00000  Uiso   1.00
H1390  H     0.97457   0.61947   0.77147   0.00000  Uiso   1.00
C1391  C     0.96445   0.42070   0.78384   0.00000  Uiso   1.00
C1392  C     0.95084   0.43206   0.83169   0.00000  Uiso   1.00
C1393  C     0.94186   0.38890   0.85831   0.00000  Uiso   1.00
H1394  H     0.91875   0.36771   0.84100   0.00000  Uiso   1.00
H1395  H     0.97033   0.36868   0.86256   0.00000  Uiso   1.00
H1396  H     0.92979   0.39816   0.89176   0.00000  Uiso   1.00
H1397  H     0.97545   0.45140   0.84881   0.00000  Uiso   1.00
H1398  H     0.92281   0.45340   0.83144   0.00000  Uiso   1.00
H1399  H     0.93969   0.40339   0.76544   0.00000  Uiso   1.00
H1400  H     0.98922   0.39531   0.78683   0.00000  Uiso   1.00
C1401  C     0.71044   0.59286   0.74559   0.00000  Uiso   1.00
C1402  C     0.72274   0.60856   0.79288   0.00000  Uiso   1.00
C1403  C     0.73446   0.65859   0.79379   0.00000  Uiso   1.00
H1404  H     0.75686   0.66629   0.76708   0.00000  Uiso   1.00
H1405  H     0.70679   0.34616   0.78879   0.00000  Uiso   1.00
H1406  H     0.74800   0.33406   0.82654   0.00000  Uiso   1.00
H1407  H     0.69693   0.60334   0.81661   0.00000  Uiso   1.00
H1408  H     0.74882   0.58850   0.80582   0.00000  Uiso   1.00
H1409  H     0.73614   0.59374   0.72144   0.00000  Uiso   1.00
H1410  H     0.69205   0.61951   0.72915   0.00000  Uiso   1.00
C1411  C     0.08653   0.83396   0.74718   0.00000  Uiso   1.00
C1412  C     0.24678   0.83397   0.75293   0.00000  Uiso   1.00
C1413  C     0.16549   0.91637   0.52315   0.00000  Uiso   1.00
C1414  C     0.16864   0.75021   0.97683   0.00000  Uiso   1.00
C1415  C     0.01975   0.79593   0.74208   0.00000  Uiso   1.00
C1416  C     0.31186   0.87988   0.75282   0.00000  Uiso   1.00
C1417  C     0.31349   0.79605   0.75901   0.00000  Uiso   1.00
C1418  C     0.02143   0.87985   0.74760   0.00000  Uiso   1.00
C1419  C     0.29115   0.83688   0.75641   0.00000  Uiso   1.00
C1420  C     0.04212   0.83681   0.74410   0.00000  Uiso   1.00
C1421  C     0.17489   0.69068   0.78810   0.00000  Uiso   1.00
C1422  C     0.15819   0.97600   0.71195   0.00000  Uiso   1.00
C1423  C     0.15841   0.69067   0.71191   0.00000  Uiso   1.00
C1424  C     0.17510   0.97600   0.78806   0.00000  Uiso   1.00
C1425  C     0.16654   0.83332   0.66323   0.00000  Uiso   1.00
C1426  C     0.16685   0.83333   0.83677   0.00000  Uiso   1.00
C1427  C     0.16828   0.79186   0.90756   0.00000  Uiso   1.00
C1428  C     0.16584   0.87473   0.59241   0.00000  Uiso   1.00
C1429  C     0.16727   0.83331   0.88470   0.00000  Uiso   1.00
C1430  C     0.16635   0.83329   0.61530   0.00000  Uiso   1.00
C1431  C     0.16653   0.87475   0.90759   0.00000  Uiso   1.00
C1432  C     0.16687   0.79183   0.59241   0.00000  Uiso   1.00
C1433  C     0.16651   0.87505   0.95366   0.00000  Uiso   1.00
C1434  C     0.16723   0.79151   0.54633   0.00000  Uiso   1.00
C1435  C     0.16716   0.83329   0.97682   0.00000  Uiso   1.00
C1436  C     0.16680   0.83328   0.52317   0.00000  Uiso   1.00
C1437  C     0.16809   0.79153   0.95364   0.00000  Uiso   1.00
C1438  C     0.16601   0.87504   0.54634   0.00000  Uiso   1.00
C1439  C     0.16570   0.91637   0.97687   0.00000  Uiso   1.00
C1440  C     0.16813   0.75020   0.52313   0.00000  Uiso   1.00
H1441  H     0.16903   0.75984   0.88962   0.00000  Uiso   1.00
H1442  H     0.16537   0.90677   0.61034   0.00000  Uiso   1.00
H1443  H     0.16581   0.90678   0.88968   0.00000  Uiso   1.00
H1444  H     0.16718   0.75980   0.61035   0.00000  Uiso   1.00
H1445  H     0.16522   0.94856   0.95925   0.00000  Uiso   1.00
H1446  H     0.16848   0.71801   0.54075   0.00000  Uiso   1.00
H1447  H     0.16489   0.94855   0.54078   0.00000  Uiso   1.00
H1448  H     0.16936   0.71802   0.95920   0.00000  Uiso   1.00
H1449  H     0.18130   0.70882   0.81857   0.00000  Uiso   1.00
H1450  H     0.15127   0.95790   0.68157   0.00000  Uiso   1.00
H1451  H     0.15197   0.70881   0.68145   0.00000  Uiso   1.00
H1452  H     0.18201   0.95791   0.81844   0.00000  Uiso   1.00
N1453  N     0.16667   0.95240   0.75000   0.00000  Uiso   1.00
N1454  N     0.16667   0.71427   0.75000   0.00000  Uiso   1.00
O1455  O     0.10559   0.87154   0.75000   0.00000  Uiso   1.00
O1456  O     0.22774   0.79513   0.75001   0.00000  Uiso   1.00
O1457  O     0.22774   0.87154   0.75001   0.00000  Uiso   1.00
O1458  O     0.10559   0.79513   0.75000   0.00000  Uiso   1.00
O1459  O     0.16666   0.87156   0.68393   0.00000  Uiso   1.00
O1460  O     0.16667   0.79511   0.81608   0.00000  Uiso   1.00
O1461  O     0.16667   0.87156   0.81608   0.00000  Uiso   1.00
O1462  O     0.16666   0.79511   0.68393   0.00000  Uiso   1.00
Zn1463 Zn    0.16667   0.88437   0.75000   0.00000  Uiso   1.00
Zn1464 Zn    0.16667   0.78229   0.75000   0.00000  Uiso   1.00
C1465  C     0.03536   0.75353   0.71782   0.00000  Uiso   1.00
C1466  C     0.04850   0.76404   0.66965   0.00000  Uiso   1.00
C1467  C     0.05725   0.72041   0.64368   0.00000  Uiso   1.00
H1468  H     0.08053   0.69954   0.66110   0.00000  Uiso   1.00
H1469  H     0.02876   0.70010   0.64009   0.00000  Uiso   1.00
H1470  H     0.06901   0.72906   0.60995   0.00000  Uiso   1.00
H1471  H     0.02370   0.78304   0.65248   0.00000  Uiso   1.00
H1472  H     0.07651   0.78543   0.66922   0.00000  Uiso   1.00
H1473  H     0.06031   0.73662   0.73625   0.00000  Uiso   1.00
H1474  H     0.01069   0.72797   0.71557   0.00000  Uiso   1.00
C1475  C     0.28953   0.92623   0.75487   0.00000  Uiso   1.00
C1476  C     0.27735   0.94208   0.70760   0.00000  Uiso   1.00
C1477  C     0.26538   0.99204   0.70686   0.00000  Uiso   1.00
H1478  H     0.24298   0.99955   0.73362   0.00000  Uiso   1.00
H1479  H     0.29291   0.67978   0.71192   0.00000  Uiso   1.00
H1480  H     0.25177   0.66753   0.67414   0.00000  Uiso   1.00
H1481  H     0.30326   0.93710   0.68395   0.00000  Uiso   1.00
H1482  H     0.25142   0.92192   0.69444   0.00000  Uiso   1.00
H1483  H     0.26375   0.92702   0.77892   0.00000  Uiso   1.00
H1484  H     0.30790   0.95281   0.77147   0.00000  Uiso   1.00
C1485  C     0.29779   0.75404   0.78384   0.00000  Uiso   1.00
C1486  C     0.28417   0.76539   0.83169   0.00000  Uiso   1.00
C1487  C     0.27520   0.72223   0.85831   0.00000  Uiso   1.00
H1488  H     0.25208   0.70104   0.84100   0.00000  Uiso   1.00
H1489  H     0.30366   0.70201   0.86256   0.00000  Uiso   1.00
H1490  H     0.26313   0.73149   0.89176   0.00000  Uiso   1.00
H1491  H     0.30878   0.78473   0.84881   0.00000  Uiso   1.00
H1492  H     0.25614   0.78674   0.83144   0.00000  Uiso   1.00
H1493  H     0.27303   0.73672   0.76544   0.00000  Uiso   1.00
H1494  H     0.32255   0.72864   0.78683   0.00000  Uiso   1.00
C1495  C     0.04377   0.92620   0.74559   0.00000  Uiso   1.00
C1496  C     0.05607   0.94189   0.79288   0.00000  Uiso   1.00
C1497  C     0.06779   0.99192   0.79379   0.00000  Uiso   1.00
H1498  H     0.09019   0.99963   0.76708   0.00000  Uiso   1.00
H1499  H     0.04013   0.67949   0.78879   0.00000  Uiso   1.00
H1500  H     0.08133   0.66739   0.82654   0.00000  Uiso   1.00
H1501  H     0.03026   0.93667   0.81661   0.00000  Uiso   1.00
H1502  H     0.08216   0.92183   0.80582   0.00000  Uiso   1.00
H1503  H     0.06948   0.92707   0.72144   0.00000  Uiso   1.00
H1504  H     0.02538   0.95285   0.72915   0.00000  Uiso   1.00
C1505  C     0.41987   0.83396   0.74718   0.00000  Uiso   1.00
C1506  C     0.58011   0.83397   0.75293   0.00000  Uiso   1.00
C1507  C     0.49882   0.91637   0.52315   0.00000  Uiso   1.00
C1508  C     0.50197   0.75021   0.97683   0.00000  Uiso   1.00
C1509  C     0.35308   0.79593   0.74208   0.00000  Uiso   1.00
C1510  C     0.64519   0.87988   0.75282   0.00000  Uiso   1.00
C1511  C     0.64682   0.79605   0.75901   0.00000  Uiso   1.00
C1512  C     0.35476   0.87985   0.74760   0.00000  Uiso   1.00
C1513  C     0.62449   0.83688   0.75641   0.00000  Uiso   1.00
C1514  C     0.37545   0.83681   0.74410   0.00000  Uiso   1.00
C1515  C     0.50822   0.69068   0.78810   0.00000  Uiso   1.00
C1516  C     0.49153   0.97600   0.71195   0.00000  Uiso   1.00
C1517  C     0.49175   0.69067   0.71191   0.00000  Uiso   1.00
C1518  C     0.50844   0.97600   0.78806   0.00000  Uiso   1.00
C1519  C     0.49987   0.83332   0.66323   0.00000  Uiso   1.00
C1520  C     0.50018   0.83333   0.83677   0.00000  Uiso   1.00
C1521  C     0.50161   0.79186   0.90756   0.00000  Uiso   1.00
C1522  C     0.49917   0.87473   0.59241   0.00000  Uiso   1.00
C1523  C     0.50060   0.83331   0.88470   0.00000  Uiso   1.00
C1524  C     0.49969   0.83329   0.61530   0.00000  Uiso   1.00
C1525  C     0.49986   0.87475   0.90759   0.00000  Uiso   1.00
C1526  C     0.50020   0.79183   0.59241   0.00000  Uiso   1.00
C1527  C     0.49984   0.87505   0.95366   0.00000  Uiso   1.00
C1528  C     0.50056   0.79151   0.54633   0.00000  Uiso   1.00
C1529  C     0.50049   0.83329   0.97682   0.00000  Uiso   1.00
C1530  C     0.50014   0.83328   0.52317   0.00000  Uiso   1.00
C1531  C     0.50142   0.79153   0.95364   0.00000  Uiso   1.00
C1532  C     0.49935   0.87504   0.54634   0.00000  Uiso   1.00
C1533  C     0.49903   0.91637   0.97687   0.00000  Uiso   1.00
C1534  C     0.50146   0.75020   0.52313   0.00000  Uiso   1.00
H1535  H     0.50237   0.75984   0.88962   0.00000  Uiso   1.00
H1536  H     0.49870   0.90677   0.61034   0.00000  Uiso   1.00
H1537  H     0.49915   0.90678   0.88968   0.00000  Uiso   1.00
H1538  H     0.50051   0.75980   0.61035   0.00000  Uiso   1.00
H1539  H     0.49855   0.94856   0.95925   0.00000  Uiso   1.00
H1540  H     0.50181   0.71801   0.54075   0.00000  Uiso   1.00
H1541  H     0.49822   0.94855   0.54078   0.00000  Uiso   1.00
H1542  H     0.50269   0.71802   0.95920   0.00000  Uiso   1.00
H1543  H     0.51464   0.70882   0.81857   0.00000  Uiso   1.00
H1544  H     0.48460   0.95790   0.68157   0.00000  Uiso   1.00
H1545  H     0.48530   0.70881   0.68145   0.00000  Uiso   1.00
H1546  H     0.51534   0.95791   0.81844   0.00000  Uiso   1.00
N1547  N     0.50000   0.95240   0.75000   0.00000  Uiso   1.00
N1548  N     0.50000   0.71427   0.75000   0.00000  Uiso   1.00
O1549  O     0.43892   0.87154   0.75000   0.00000  Uiso   1.00
O1550  O     0.56108   0.79513   0.75001   0.00000  Uiso   1.00
O1551  O     0.56108   0.87154   0.75001   0.00000  Uiso   1.00
O1552  O     0.43892   0.79513   0.75000   0.00000  Uiso   1.00
O1553  O     0.49999   0.87156   0.68393   0.00000  Uiso   1.00
O1554  O     0.50001   0.79511   0.81608   0.00000  Uiso   1.00
O1555  O     0.50001   0.87156   0.81608   0.00000  Uiso   1.00
O1556  O     0.49999   0.79511   0.68393   0.00000  Uiso   1.00
Zn1557 Zn    0.50000   0.88437   0.75000   0.00000  Uiso   1.00
Zn1558 Zn    0.50000   0.78229   0.75000   0.00000  Uiso   1.00
C1559  C     0.36869   0.75353   0.71782   0.00000  Uiso   1.00
C1560  C     0.38183   0.76404   0.66965   0.00000  Uiso   1.00
C1561  C     0.39059   0.72041   0.64368   0.00000  Uiso   1.00
H1562  H     0.41386   0.69954   0.66110   0.00000  Uiso   1.00
H1563  H     0.36209   0.70010   0.64009   0.00000  Uiso   1.00
H1564  H     0.40235   0.72906   0.60995   0.00000  Uiso   1.00
H1565  H     0.35704   0.78304   0.65248   0.00000  Uiso   1.00
H1566  H     0.40985   0.78543   0.66922   0.00000  Uiso   1.00
H1567  H     0.39364   0.73662   0.73625   0.00000  Uiso   1.00
H1568  H     0.34402   0.72797   0.71557   0.00000  Uiso   1.00
C1569  C     0.62287   0.92623   0.75487   0.00000  Uiso   1.00
C1570  C     0.61068   0.94208   0.70760   0.00000  Uiso   1.00
C1571  C     0.59871   0.99204   0.70686   0.00000  Uiso   1.00
H1572  H     0.57632   0.99955   0.73362   0.00000  Uiso   1.00
H1573  H     0.62624   0.67978   0.71192   0.00000  Uiso   1.00
H1574  H     0.58511   0.66753   0.67414   0.00000  Uiso   1.00
H1575  H     0.63659   0.93710   0.68395   0.00000  Uiso   1.00
H1576  H     0.58475   0.92192   0.69444   0.00000  Uiso   1.00
H1577  H     0.59708   0.92702   0.77892   0.00000  Uiso   1.00
H1578  H     0.64123   0.95281   0.77147   0.00000  Uiso   1.00
C1579  C     0.63112   0.75404   0.78384   0.00000  Uiso   1.00
C1580  C     0.61751   0.76539   0.83169   0.00000  Uiso   1.00
C1581  C     0.60853   0.72223   0.85831   0.00000  Uiso   1.00
H1582  H     0.58542   0.70104   0.84100   0.00000  Uiso   1.00
H1583  H     0.63700   0.70201   0.86256   0.00000  Uiso   1.00
H1584  H     0.59646   0.73149   0.89176   0.00000  Uiso   1.00
H1585  H     0.64212   0.78473   0.84881   0.00000  Uiso   1.00
H1586  H     0.58947   0.78674   0.83144   0.00000  Uiso   1.00
H1587  H     0.60636   0.73672   0.76544   0.00000  Uiso   1.00
H1588  H     0.65589   0.72864   0.78683   0.00000  Uiso   1.00
C1589  C     0.37710   0.92620   0.74559   0.00000  Uiso   1.00
C1590  C     0.38940   0.94189   0.79288   0.00000  Uiso   1.00
C1591  C     0.40112   0.99192   0.79379   0.00000  Uiso   1.00
H1592  H     0.42352   0.99963   0.76708   0.00000  Uiso   1.00
H1593  H     0.37346   0.67949   0.78879   0.00000  Uiso   1.00
H1594  H     0.41466   0.66739   0.82654   0.00000  Uiso   1.00
H1595  H     0.36360   0.93667   0.81661   0.00000  Uiso   1.00
H1596  H     0.41549   0.92183   0.80582   0.00000  Uiso   1.00
H1597  H     0.40281   0.92707   0.72144   0.00000  Uiso   1.00
H1598  H     0.35872   0.95285   0.72915   0.00000  Uiso   1.00
C1599  C     0.75320   0.83396   0.74718   0.00000  Uiso   1.00
C1600  C     0.91344   0.83397   0.75293   0.00000  Uiso   1.00
C1601  C     0.83216   0.91637   0.52315   0.00000  Uiso   1.00
C1602  C     0.83530   0.75021   0.97683   0.00000  Uiso   1.00
C1603  C     0.68642   0.79593   0.74208   0.00000  Uiso   1.00
C1604  C     0.97853   0.87988   0.75282   0.00000  Uiso   1.00
C1605  C     0.98015   0.79605   0.75901   0.00000  Uiso   1.00
C1606  C     0.68810   0.87985   0.74760   0.00000  Uiso   1.00
C1607  C     0.95782   0.83688   0.75641   0.00000  Uiso   1.00
C1608  C     0.70878   0.83681   0.74410   0.00000  Uiso   1.00
C1609  C     0.84155   0.69068   0.78810   0.00000  Uiso   1.00
C1610  C     0.82486   0.97600   0.71195   0.00000  Uiso   1.00
C1611  C     0.82508   0.69067   0.71191   0.00000  Uiso   1.00
C1612  C     0.84177   0.97600   0.78806   0.00000  Uiso   1.00
C1613  C     0.83321   0.83332   0.66323   0.00000  Uiso   1.00
C1614  C     0.83351   0.83333   0.83677   0.00000  Uiso   1.00
C1615  C     0.83495   0.79186   0.90756   0.00000  Uiso   1.00
C1616  C     0.83250   0.87473   0.59241   0.00000  Uiso   1.00
C1617  C     0.83393   0.83331   0.88470   0.00000  Uiso   1.00
C1618  C     0.83302   0.83329   0.61530   0.00000  Uiso   1.00
C1619  C     0.83320   0.87475   0.90759   0.00000  Uiso   1.00
C1620  C     0.83353   0.79183   0.59241   0.00000  Uiso   1.00
C1621  C     0.83317   0.87505   0.95366   0.00000  Uiso   1.00
C1622  C     0.83389   0.79151   0.54633   0.00000  Uiso   1.00
C1623  C     0.83382   0.83329   0.97682   0.00000  Uiso   1.00
C1624  C     0.83347   0.83328   0.52317   0.00000  Uiso   1.00
C1625  C     0.83476   0.79153   0.95364   0.00000  Uiso   1.00
C1626  C     0.83268   0.87504   0.54634   0.00000  Uiso   1.00
C1627  C     0.83237   0.91637   0.97687   0.00000  Uiso   1.00
C1628  C     0.83479   0.75020   0.52313   0.00000  Uiso   1.00
H1629  H     0.83570   0.75984   0.88962   0.00000  Uiso   1.00
H1630  H     0.83203   0.90677   0.61034   0.00000  Uiso   1.00
H1631  H     0.83248   0.90678   0.88968   0.00000  Uiso   1.00
H1632  H     0.83385   0.75980   0.61035   0.00000  Uiso   1.00
H1633  H     0.83189   0.94856   0.95925   0.00000  Uiso   1.00
H1634  H     0.83514   0.71801   0.54075   0.00000  Uiso   1.00
H1635  H     0.83155   0.94855   0.54078   0.00000  Uiso   1.00
H1636  H     0.83602   0.71802   0.95920   0.00000  Uiso   1.00
H1637  H     0.84797   0.70882   0.81857   0.00000  Uiso   1.00
H1638  H     0.81793   0.95790   0.68157   0.00000  Uiso   1.00
H1639  H     0.81863   0.70881   0.68145   0.00000  Uiso   1.00
H1640  H     0.84868   0.95791   0.81844   0.00000  Uiso   1.00
N1641  N     0.83333   0.95240   0.75000   0.00000  Uiso   1.00
N1642  N     0.83333   0.71427   0.75000   0.00000  Uiso   1.00
O1643  O     0.77226   0.87154   0.75000   0.00000  Uiso   1.00
O1644  O     0.89441   0.79513   0.75001   0.00000  Uiso   1.00
O1645  O     0.89441   0.87154   0.75001   0.00000  Uiso   1.00
O1646  O     0.77226   0.79513   0.75000   0.00000  Uiso   1.00
O1647  O     0.83333   0.87156   0.68393   0.00000  Uiso   1.00
O1648  O     0.83334   0.79511   0.81608   0.00000  Uiso   1.00
O1649  O     0.83334   0.87156   0.81608   0.00000  Uiso   1.00
O1650  O     0.83333   0.79511   0.68393   0.00000  Uiso   1.00
Zn1651 Zn    0.83333   0.88437   0.75000   0.00000  Uiso   1.00
Zn1652 Zn    0.83333   0.78229   0.75000   0.00000  Uiso   1.00
C1653  C     0.70203   0.75353   0.71782   0.00000  Uiso   1.00
C1654  C     0.71517   0.76404   0.66965   0.00000  Uiso   1.00
C1655  C     0.72392   0.72041   0.64368   0.00000  Uiso   1.00
H1656  H     0.74719   0.69954   0.66110   0.00000  Uiso   1.00
H1657  H     0.69542   0.70010   0.64009   0.00000  Uiso   1.00
H1658  H     0.73568   0.72906   0.60995   0.00000  Uiso   1.00
H1659  H     0.69037   0.78304   0.65248   0.00000  Uiso   1.00
H1660  H     0.74318   0.78543   0.66922   0.00000  Uiso   1.00
H1661  H     0.72697   0.73662   0.73625   0.00000  Uiso   1.00
H1662  H     0.67735   0.72797   0.71557   0.00000  Uiso   1.00
C1663  C     0.95620   0.92623   0.75487   0.00000  Uiso   1.00
C1664  C     0.94402   0.94208   0.70760   0.00000  Uiso   1.00
C1665  C     0.93205   0.99204   0.70686   0.00000  Uiso   1.00
H1666  H     0.90965   0.99955   0.73362   0.00000  Uiso   1.00
H1667  H     0.95958   0.67978   0.71192   0.00000  Uiso   1.00
H1668  H     0.91844   0.66753   0.67414   0.00000  Uiso   1.00
H1669  H     0.96993   0.93710   0.68395   0.00000  Uiso   1.00
H1670  H     0.91808   0.92192   0.69444   0.00000  Uiso   1.00
H1671  H     0.93041   0.92702   0.77892   0.00000  Uiso   1.00
H1672  H     0.97457   0.95281   0.77147   0.00000  Uiso   1.00
C1673  C     0.96445   0.75404   0.78384   0.00000  Uiso   1.00
C1674  C     0.95084   0.76539   0.83169   0.00000  Uiso   1.00
C1675  C     0.94186   0.72223   0.85831   0.00000  Uiso   1.00
H1676  H     0.91875   0.70104   0.84100   0.00000  Uiso   1.00
H1677  H     0.97033   0.70201   0.86256   0.00000  Uiso   1.00
H1678  H     0.92979   0.73149   0.89176   0.00000  Uiso   1.00
H1679  H     0.97545   0.78473   0.84881   0.00000  Uiso   1.00
H1680  H     0.92281   0.78674   0.83144   0.00000  Uiso   1.00
H1681  H     0.93969   0.73672   0.76544   0.00000  Uiso   1.00
H1682  H     0.98922   0.72864   0.78683   0.00000  Uiso   1.00
C1683  C     0.71044   0.92620   0.74559   0.00000  Uiso   1.00
C1684  C     0.72274   0.94189   0.79288   0.00000  Uiso   1.00
C1685  C     0.73446   0.99192   0.79379   0.00000  Uiso   1.00
H1686  H     0.75686   0.99963   0.76708   0.00000  Uiso   1.00
H1687  H     0.70679   0.67949   0.78879   0.00000  Uiso   1.00
H1688  H     0.74800   0.66739   0.82654   0.00000  Uiso   1.00
H1689  H     0.69693   0.93667   0.81661   0.00000  Uiso   1.00
H1690  H     0.74882   0.92183   0.80582   0.00000  Uiso   1.00
H1691  H     0.73614   0.92707   0.72144   0.00000  Uiso   1.00
H1692  H     0.69205   0.95285   0.72915   0.00000  Uiso   1.00
loop_
_geom_bond_atom_site_label_1
_geom_bond_atom_site_label_2
_geom_bond_distance
_geom_bond_site_symmetry_2
_ccdc_geom_bond_type
C1     C10     1.456   .     S
C1     O48     1.303   .     A
C1     O45     1.271   .     A
C2     O46     1.303   .     A
C2     O47     1.270   .     A
C2     C9      1.455   .     S
C3     C28     1.400   .     A
C3     H37     1.084   .     S
C3     C875    1.389   1_554 S
C4     C27     1.400   .     A
C4     H38     1.084   .     S
C4     C876    1.389   .     S
C5     C55     1.529   .     S
C5     C10     1.408   .     A
C5     C195    1.387   1_455 S
C6     C9      1.437   .     A
C6     C65     1.546   .     S
C6     C102    1.409   .     S
C7     C9      1.407   .     A
C7     C75     1.529   .     S
C7     C99     1.387   .     S
C8     C85     1.546   .     S
C8     C10     1.438   .     A
C8     C194    1.409   1_455 S
C11    N44     1.365   .     A
C11    H39     1.080   .     S
C11    C578    1.411   1_545 S
C12    N43     1.365   .     A
C12    H40     1.080   .     S
C12    C295    1.411   .     S
C13    H41     1.080   .     S
C13    N44     1.365   .     A
C13    C576    1.411   1_545 S
C14    H42     1.080   .     S
C14    N43     1.365   .     A
C14    C293    1.411   .     S
C15    O49     1.284   .     A
C15    C20     1.439   .     S
C15    O52     1.284   .     A
C16    O51     1.284   .     A
C16    C19     1.438   .     S
C16    O50     1.284   .     A
C17    C27     1.383   .     A
C17    H31     1.085   .     S
C17    C19     1.399   .     A
C18    C20     1.399   .     A
C18    C28     1.383   .     A
C18    H32     1.085   .     S
C19    C21     1.399   .     A
C20    C22     1.399   .     A
C21    H33     1.085   .     S
C21    C23     1.383   .     A
C22    H34     1.085   .     S
C22    C24     1.383   .     A
C23    C29     1.400   .     A
C23    C25     1.411   .     A
C24    C26     1.411   .     A
C24    C30     1.400   .     A
C25    C27     1.411   .     A
C25    C872    1.391   .     S
C26    C28     1.411   .     A
C26    C871    1.391   1_554 S
C29    H35     1.084   .     S
C29    C849    1.389   .     S
C30    H36     1.084   .     S
C30    C850    1.389   1_554 S
N43    Zn53    1.999   .     S
N44    Zn54    1.999   .     S
O45    Zn53    2.029   .     S
O46    Zn54    2.029   .     S
O47    Zn53    2.029   .     S
O48    Zn54    2.029   .     S
O49    Zn53    2.018   .     S
O50    Zn54    2.018   .     S
O51    Zn53    2.019   .     S
O52    Zn54    2.019   .     S
C55    C56     1.538   .     S
C55    H63     1.105   .     S
C55    H64     1.104   .     S
C56    C57     1.527   .     S
C56    H62     1.110   .     S
C56    H61     1.112   .     S
C57    H59     1.111   .     S
C57    H60     1.111   .     S
C57    H58     1.109   .     S
C65    H73     1.107   .     S
C65    H74     1.105   .     S
C65    C66     1.547   .     S
C66    H72     1.108   .     S
C66    C67     1.520   .     S
C66    H71     1.111   .     S
C67    H68     1.106   .     S
C67    H351    1.103   .     S
C67    H352    1.110   .     S
H69    C631    1.103   1_545 S
H70    C631    1.110   1_545 S
C75    H83     1.105   .     S
C75    H84     1.104   .     S
C75    C76     1.538   .     S
C76    C77     1.527   .     S
C76    H82     1.110   .     S
C76    H81     1.112   .     S
C77    H79     1.111   .     S
C77    H78     1.109   .     S
C77    H80     1.111   .     S
C85    C86     1.547   .     S
C85    H93     1.107   .     S
C85    H94     1.105   .     S
C86    H91     1.111   .     S
C86    C87     1.520   .     S
C86    H92     1.108   .     S
C87    H88     1.106   .     S
C87    H371    1.103   .     S
C87    H372    1.110   .     S
H89    C651    1.103   1_545 S
H90    C651    1.110   1_545 S
C95    C104    1.456   .     S
C95    O142    1.303   .     A
C95    O139    1.271   .     A
C96    O140    1.303   .     A
C96    O141    1.270   .     A
C96    C103    1.455   .     S
C97    C122    1.400   .     A
C97    H131    1.084   .     S
C97    C969    1.389   1_554 S
C98    C121    1.400   .     A
C98    H132    1.084   .     S
C98    C970    1.389   .     S
C99    C149    1.529   .     S
C99    C104    1.408   .     A
C100   C103    1.437   .     A
C100   C159    1.546   .     S
C100   C196    1.409   .     S
C101   C103    1.407   .     A
C101   C169    1.529   .     S
C101   C193    1.387   .     S
C102   C179    1.546   .     S
C102   C104    1.438   .     A
C105   N138    1.365   .     A
C105   H133    1.080   .     S
C105   C672    1.411   1_545 S
C106   N137    1.365   .     A
C106   H134    1.080   .     S
C106   C389    1.411   .     S
C107   H135    1.080   .     S
C107   N138    1.365   .     A
C107   C670    1.411   1_545 S
C108   H136    1.080   .     S
C108   N137    1.365   .     A
C108   C387    1.411   .     S
C109   O143    1.284   .     A
C109   C114    1.439   .     S
C109   O146    1.284   .     A
C110   O145    1.284   .     A
C110   C113    1.438   .     S
C110   O144    1.284   .     A
C111   C121    1.383   .     A
C111   H125    1.085   .     S
C111   C113    1.399   .     A
C112   C114    1.399   .     A
C112   C122    1.383   .     A
C112   H126    1.085   .     S
C113   C115    1.399   .     A
C114   C116    1.399   .     A
C115   H127    1.085   .     S
C115   C117    1.383   .     A
C116   H128    1.085   .     S
C116   C118    1.383   .     A
C117   C123    1.400   .     A
C117   C119    1.411   .     A
C118   C120    1.411   .     A
C118   C124    1.400   .     A
C119   C121    1.411   .     A
C119   C966    1.391   .     S
C120   C122    1.411   .     A
C120   C965    1.391   1_554 S
C123   H129    1.084   .     S
C123   C943    1.389   .     S
C124   H130    1.084   .     S
C124   C944    1.389   1_554 S
N137   Zn147   1.999   .     S
N138   Zn148   1.999   .     S
O139   Zn147   2.029   .     S
O140   Zn148   2.029   .     S
O141   Zn147   2.029   .     S
O142   Zn148   2.029   .     S
O143   Zn147   2.018   .     S
O144   Zn148   2.018   .     S
O145   Zn147   2.019   .     S
O146   Zn148   2.019   .     S
C149   C150    1.538   .     S
C149   H157    1.105   .     S
C149   H158    1.104   .     S
C150   C151    1.527   .     S
C150   H156    1.110   .     S
C150   H155    1.112   .     S
C151   H153    1.111   .     S
C151   H154    1.111   .     S
C151   H152    1.109   .     S
C159   H167    1.107   .     S
C159   H168    1.105   .     S
C159   C160    1.547   .     S
C160   H166    1.108   .     S
C160   C161    1.520   .     S
C160   H165    1.111   .     S
C161   H162    1.106   .     S
C161   H445    1.103   .     S
C161   H446    1.110   .     S
H163   C725    1.103   1_545 S
H164   C725    1.110   1_545 S
C169   H177    1.105   .     S
C169   H178    1.104   .     S
C169   C170    1.538   .     S
C170   C171    1.527   .     S
C170   H176    1.110   .     S
C170   H175    1.112   .     S
C171   H173    1.111   .     S
C171   H172    1.109   .     S
C171   H174    1.111   .     S
C179   C180    1.547   .     S
C179   H187    1.107   .     S
C179   H188    1.105   .     S
C180   H185    1.111   .     S
C180   C181    1.520   .     S
C180   H186    1.108   .     S
C181   H182    1.106   .     S
C181   H465    1.103   .     S
C181   H466    1.110   .     S
H183   C745    1.103   1_545 S
H184   C745    1.110   1_545 S
C189   C198    1.456   .     S
C189   O236    1.303   .     A
C189   O233    1.271   .     A
C190   O234    1.303   .     A
C190   O235    1.270   .     A
C190   C197    1.455   .     S
C191   C216    1.400   .     A
C191   H225    1.084   .     S
C191   C1063   1.389   1_554 S
C192   C215    1.400   .     A
C192   H226    1.084   .     S
C192   C1064   1.389   .     S
C193   C243    1.529   .     S
C193   C198    1.408   .     A
C194   C197    1.437   .     A
C194   C253    1.546   .     S
C194   C8      1.409   1_655 S
C195   C197    1.407   .     A
C195   C263    1.529   .     S
C195   C5      1.387   1_655 S
C196   C273    1.546   .     S
C196   C198    1.438   .     A
C199   N232    1.365   .     A
C199   H227    1.080   .     S
C199   C766    1.411   1_545 S
C200   N231    1.365   .     A
C200   H228    1.080   .     S
C200   C483    1.411   .     S
C201   H229    1.080   .     S
C201   N232    1.365   .     A
C201   C764    1.411   1_545 S
C202   H230    1.080   .     S
C202   N231    1.365   .     A
C202   C481    1.411   .     S
C203   O237    1.284   .     A
C203   C208    1.439   .     S
C203   O240    1.284   .     A
C204   O239    1.284   .     A
C204   C207    1.438   .     S
C204   O238    1.284   .     A
C205   C215    1.383   .     A
C205   H219    1.085   .     S
C205   C207    1.399   .     A
C206   C208    1.399   .     A
C206   C216    1.383   .     A
C206   H220    1.085   .     S
C207   C209    1.399   .     A
C208   C210    1.399   .     A
C209   H221    1.085   .     S
C209   C211    1.383   .     A
C210   H222    1.085   .     S
C210   C212    1.383   .     A
C211   C217    1.400   .     A
C211   C213    1.411   .     A
C212   C214    1.411   .     A
C212   C218    1.400   .     A
C213   C215    1.411   .     A
C213   C1060   1.391   .     S
C214   C216    1.411   .     A
C214   C1059   1.391   1_554 S
C217   H223    1.084   .     S
C217   C1037   1.389   .     S
C218   H224    1.084   .     S
C218   C1038   1.389   1_554 S
N231   Zn241   1.999   .     S
N232   Zn242   1.999   .     S
O233   Zn241   2.029   .     S
O234   Zn242   2.029   .     S
O235   Zn241   2.029   .     S
O236   Zn242   2.029   .     S
O237   Zn241   2.018   .     S
O238   Zn242   2.018   .     S
O239   Zn241   2.019   .     S
O240   Zn242   2.019   .     S
C243   C244    1.538   .     S
C243   H251    1.105   .     S
C243   H252    1.104   .     S
C244   C245    1.527   .     S
C244   H250    1.110   .     S
C244   H249    1.112   .     S
C245   H247    1.111   .     S
C245   H248    1.111   .     S
C245   H246    1.109   .     S
C253   H261    1.107   .     S
C253   H262    1.105   .     S
C253   C254    1.547   .     S
C254   H260    1.108   .     S
C254   C255    1.520   .     S
C254   H259    1.111   .     S
C255   H256    1.106   .     S
C255   H539    1.103   .     S
C255   H540    1.110   .     S
H257   C819    1.103   1_545 S
H258   C819    1.110   1_545 S
C263   H271    1.105   .     S
C263   H272    1.104   .     S
C263   C264    1.538   .     S
C264   C265    1.527   .     S
C264   H270    1.110   .     S
C264   H269    1.112   .     S
C265   H267    1.111   .     S
C265   H266    1.109   .     S
C265   H268    1.111   .     S
C273   C274    1.547   .     S
C273   H281    1.107   .     S
C273   H282    1.105   .     S
C274   H279    1.111   .     S
C274   C275    1.520   .     S
C274   H280    1.108   .     S
C275   H276    1.106   .     S
C275   H559    1.103   .     S
C275   H560    1.110   .     S
H277   C839    1.103   1_545 S
H278   C839    1.110   1_545 S
C283   C292    1.456   .     S
C283   O330    1.303   .     A
C283   O327    1.271   .     A
C284   O328    1.303   .     A
C284   O329    1.270   .     A
C284   C291    1.455   .     S
C285   C310    1.400   .     A
C285   H319    1.084   .     S
C285   C1157   1.389   1_554 S
C286   C309    1.400   .     A
C286   H320    1.084   .     S
C286   C1158   1.389   .     S
C287   C337    1.529   .     S
C287   C292    1.408   .     A
C287   C477    1.387   1_455 S
C288   C291    1.437   .     A
C288   C347    1.546   .     S
C288   C384    1.409   .     S
C289   C291    1.407   .     A
C289   C357    1.529   .     S
C289   C381    1.387   .     S
C290   C367    1.546   .     S
C290   C292    1.438   .     A
C290   C476    1.409   1_455 S
C293   N326    1.365   .     A
C293   H321    1.080   .     S
C294   N325    1.365   .     A
C294   H322    1.080   .     S
C294   C577    1.411   .     S
C295   H323    1.080   .     S
C295   N326    1.365   .     A
C296   H324    1.080   .     S
C296   N325    1.365   .     A
C296   C575    1.411   .     S
C297   O331    1.284   .     A
C297   C302    1.439   .     S
C297   O334    1.284   .     A
C298   O333    1.284   .     A
C298   C301    1.438   .     S
C298   O332    1.284   .     A
C299   C309    1.383   .     A
C299   H313    1.085   .     S
C299   C301    1.399   .     A
C300   C302    1.399   .     A
C300   C310    1.383   .     A
C300   H314    1.085   .     S
C301   C303    1.399   .     A
C302   C304    1.399   .     A
C303   H315    1.085   .     S
C303   C305    1.383   .     A
C304   H316    1.085   .     S
C304   C306    1.383   .     A
C305   C311    1.400   .     A
C305   C307    1.411   .     A
C306   C308    1.411   .     A
C306   C312    1.400   .     A
C307   C309    1.411   .     A
C307   C1154   1.391   .     S
C308   C310    1.411   .     A
C308   C1153   1.391   1_554 S
C311   H317    1.084   .     S
C311   C1131   1.389   .     S
C312   H318    1.084   .     S
C312   C1132   1.389   1_554 S
N325   Zn335   1.999   .     S
N326   Zn336   1.999   .     S
O327   Zn335   2.029   .     S
O328   Zn336   2.029   .     S
O329   Zn335   2.029   .     S
O330   Zn336   2.029   .     S
O331   Zn335   2.018   .     S
O332   Zn336   2.018   .     S
O333   Zn335   2.019   .     S
O334   Zn336   2.019   .     S
C337   C338    1.538   .     S
C337   H345    1.105   .     S
C337   H346    1.104   .     S
C338   C339    1.527   .     S
C338   H344    1.110   .     S
C338   H343    1.112   .     S
C339   H341    1.111   .     S
C339   H342    1.111   .     S
C339   H340    1.109   .     S
C347   H355    1.107   .     S
C347   H356    1.105   .     S
C347   C348    1.547   .     S
C348   H354    1.108   .     S
C348   C349    1.520   .     S
C348   H353    1.111   .     S
C349   H350    1.106   .     S
C349   H633    1.103   .     S
C349   H634    1.110   .     S
C357   H365    1.105   .     S
C357   H366    1.104   .     S
C357   C358    1.538   .     S
C358   C359    1.527   .     S
C358   H364    1.110   .     S
C358   H363    1.112   .     S
C359   H361    1.111   .     S
C359   H360    1.109   .     S
C359   H362    1.111   .     S
C367   C368    1.547   .     S
C367   H375    1.107   .     S
C367   H376    1.105   .     S
C368   H373    1.111   .     S
C368   C369    1.520   .     S
C368   H374    1.108   .     S
C369   H370    1.106   .     S
C369   H653    1.103   .     S
C369   H654    1.110   .     S
C377   C386    1.456   .     S
C377   O424    1.303   .     A
C377   O421    1.271   .     A
C378   O422    1.303   .     A
C378   O423    1.270   .     A
C378   C385    1.455   .     S
C379   C404    1.400   .     A
C379   H413    1.084   .     S
C379   C1251   1.389   1_554 S
C380   C403    1.400   .     A
C380   H414    1.084   .     S
C380   C1252   1.389   .     S
C381   C431    1.529   .     S
C381   C386    1.408   .     A
C382   C385    1.437   .     A
C382   C441    1.546   .     S
C382   C478    1.409   .     S
C383   C385    1.407   .     A
C383   C451    1.529   .     S
C383   C475    1.387   .     S
C384   C461    1.546   .     S
C384   C386    1.438   .     A
C387   N420    1.365   .     A
C387   H415    1.080   .     S
C388   N419    1.365   .     A
C388   H416    1.080   .     S
C388   C671    1.411   .     S
C389   H417    1.080   .     S
C389   N420    1.365   .     A
C390   H418    1.080   .     S
C390   N419    1.365   .     A
C390   C669    1.411   .     S
C391   O425    1.284   .     A
C391   C396    1.439   .     S
C391   O428    1.284   .     A
C392   O427    1.284   .     A
C392   C395    1.438   .     S
C392   O426    1.284   .     A
C393   C403    1.383   .     A
C393   H407    1.085   .     S
C393   C395    1.399   .     A
C394   C396    1.399   .     A
C394   C404    1.383   .     A
C394   H408    1.085   .     S
C395   C397    1.399   .     A
C396   C398    1.399   .     A
C397   H409    1.085   .     S
C397   C399    1.383   .     A
C398   H410    1.085   .     S
C398   C400    1.383   .     A
C399   C405    1.400   .     A
C399   C401    1.411   .     A
C400   C402    1.411   .     A
C400   C406    1.400   .     A
C401   C403    1.411   .     A
C401   C1248   1.391   .     S
C402   C404    1.411   .     A
C402   C1247   1.391   1_554 S
C405   H411    1.084   .     S
C405   C1225   1.389   .     S
C406   H412    1.084   .     S
C406   C1226   1.389   1_554 S
N419   Zn429   1.999   .     S
N420   Zn430   1.999   .     S
O421   Zn429   2.029   .     S
O422   Zn430   2.029   .     S
O423   Zn429   2.029   .     S
O424   Zn430   2.029   .     S
O425   Zn429   2.018   .     S
O426   Zn430   2.018   .     S
O427   Zn429   2.019   .     S
O428   Zn430   2.019   .     S
C431   C432    1.538   .     S
C431   H439    1.105   .     S
C431   H440    1.104   .     S
C432   C433    1.527   .     S
C432   H438    1.110   .     S
C432   H437    1.112   .     S
C433   H435    1.111   .     S
C433   H436    1.111   .     S
C433   H434    1.109   .     S
C441   H449    1.107   .     S
C441   H450    1.105   .     S
C441   C442    1.547   .     S
C442   H448    1.108   .     S
C442   C443    1.520   .     S
C442   H447    1.111   .     S
C443   H444    1.106   .     S
C443   H727    1.103   .     S
C443   H728    1.110   .     S
C451   H459    1.105   .     S
C451   H460    1.104   .     S
C451   C452    1.538   .     S
C452   C453    1.527   .     S
C452   H458    1.110   .     S
C452   H457    1.112   .     S
C453   H455    1.111   .     S
C453   H454    1.109   .     S
C453   H456    1.111   .     S
C461   C462    1.547   .     S
C461   H469    1.107   .     S
C461   H470    1.105   .     S
C462   H467    1.111   .     S
C462   C463    1.520   .     S
C462   H468    1.108   .     S
C463   H464    1.106   .     S
C463   H747    1.103   .     S
C463   H748    1.110   .     S
C471   C480    1.456   .     S
C471   O518    1.303   .     A
C471   O515    1.271   .     A
C472   O516    1.303   .     A
C472   O517    1.270   .     A
C472   C479    1.455   .     S
C473   C498    1.400   .     A
C473   H507    1.084   .     S
C473   C1345   1.389   1_554 S
C474   C497    1.400   .     A
C474   H508    1.084   .     S
C474   C1346   1.389   .     S
C475   C525    1.529   .     S
C475   C480    1.408   .     A
C476   C479    1.437   .     A
C476   C535    1.546   .     S
C476   C290    1.409   1_655 S
C477   C479    1.407   .     A
C477   C545    1.529   .     S
C477   C287    1.387   1_655 S
C478   C555    1.546   .     S
C478   C480    1.438   .     A
C481   N514    1.365   .     A
C481   H509    1.080   .     S
C482   N513    1.365   .     A
C482   H510    1.080   .     S
C482   C765    1.411   .     S
C483   H511    1.080   .     S
C483   N514    1.365   .     A
C484   H512    1.080   .     S
C484   N513    1.365   .     A
C484   C763    1.411   .     S
C485   O519    1.284   .     A
C485   C490    1.439   .     S
C485   O522    1.284   .     A
C486   O521    1.284   .     A
C486   C489    1.438   .     S
C486   O520    1.284   .     A
C487   C497    1.383   .     A
C487   H501    1.085   .     S
C487   C489    1.399   .     A
C488   C490    1.399   .     A
C488   C498    1.383   .     A
C488   H502    1.085   .     S
C489   C491    1.399   .     A
C490   C492    1.399   .     A
C491   H503    1.085   .     S
C491   C493    1.383   .     A
C492   H504    1.085   .     S
C492   C494    1.383   .     A
C493   C499    1.400   .     A
C493   C495    1.411   .     A
C494   C496    1.411   .     A
C494   C500    1.400   .     A
C495   C497    1.411   .     A
C495   C1342   1.391   .     S
C496   C498    1.411   .     A
C496   C1341   1.391   1_554 S
C499   H505    1.084   .     S
C499   C1319   1.389   .     S
C500   H506    1.084   .     S
C500   C1320   1.389   1_554 S
N513   Zn523   1.999   .     S
N514   Zn524   1.999   .     S
O515   Zn523   2.029   .     S
O516   Zn524   2.029   .     S
O517   Zn523   2.029   .     S
O518   Zn524   2.029   .     S
O519   Zn523   2.018   .     S
O520   Zn524   2.018   .     S
O521   Zn523   2.019   .     S
O522   Zn524   2.019   .     S
C525   C526    1.538   .     S
C525   H533    1.105   .     S
C525   H534    1.104   .     S
C526   C527    1.527   .     S
C526   H532    1.110   .     S
C526   H531    1.112   .     S
C527   H529    1.111   .     S
C527   H530    1.111   .     S
C527   H528    1.109   .     S
C535   H543    1.107   .     S
C535   H544    1.105   .     S
C535   C536    1.547   .     S
C536   H542    1.108   .     S
C536   C537    1.520   .     S
C536   H541    1.111   .     S
C537   H538    1.106   .     S
C537   H821    1.103   .     S
C537   H822    1.110   .     S
C545   H553    1.105   .     S
C545   H554    1.104   .     S
C545   C546    1.538   .     S
C546   C547    1.527   .     S
C546   H552    1.110   .     S
C546   H551    1.112   .     S
C547   H549    1.111   .     S
C547   H548    1.109   .     S
C547   H550    1.111   .     S
C555   C556    1.547   .     S
C555   H563    1.107   .     S
C555   H564    1.105   .     S
C556   H561    1.111   .     S
C556   C557    1.520   .     S
C556   H562    1.108   .     S
C557   H558    1.106   .     S
C557   H841    1.103   .     S
C557   H842    1.110   .     S
C565   C574    1.456   .     S
C565   O612    1.303   .     A
C565   O609    1.271   .     A
C566   O610    1.303   .     A
C566   O611    1.270   .     A
C566   C573    1.455   .     S
C567   C592    1.400   .     A
C567   H601    1.084   .     S
C567   C1439   1.389   1_554 S
C568   C591    1.400   .     A
C568   H602    1.084   .     S
C568   C1440   1.389   .     S
C569   C619    1.529   .     S
C569   C574    1.408   .     A
C569   C759    1.387   1_455 S
C570   C573    1.437   .     A
C570   C629    1.546   .     S
C570   C666    1.409   .     S
C571   C573    1.407   .     A
C571   C639    1.529   .     S
C571   C663    1.387   .     S
C572   C649    1.546   .     S
C572   C574    1.438   .     A
C572   C758    1.409   1_455 S
C575   N608    1.365   .     A
C575   H603    1.080   .     S
C576   N607    1.365   .     A
C576   H604    1.080   .     S
C576   C13     1.411   1_565 S
C577   H605    1.080   .     S
C577   N608    1.365   .     A
C578   H606    1.080   .     S
C578   N607    1.365   .     A
C578   C11     1.411   1_565 S
C579   O613    1.284   .     A
C579   C584    1.439   .     S
C579   O616    1.284   .     A
C580   O615    1.284   .     A
C580   C583    1.438   .     S
C580   O614    1.284   .     A
C581   C591    1.383   .     A
C581   H595    1.085   .     S
C581   C583    1.399   .     A
C582   C584    1.399   .     A
C582   C592    1.383   .     A
C582   H596    1.085   .     S
C583   C585    1.399   .     A
C584   C586    1.399   .     A
C585   H597    1.085   .     S
C585   C587    1.383   .     A
C586   H598    1.085   .     S
C586   C588    1.383   .     A
C587   C593    1.400   .     A
C587   C589    1.411   .     A
C588   C590    1.411   .     A
C588   C594    1.400   .     A
C589   C591    1.411   .     A
C589   C1436   1.391   .     S
C590   C592    1.411   .     A
C590   C1435   1.391   1_554 S
C593   H599    1.084   .     S
C593   C1413   1.389   .     S
C594   H600    1.084   .     S
C594   C1414   1.389   1_554 S
N607   Zn617   1.999   .     S
N608   Zn618   1.999   .     S
O609   Zn617   2.029   .     S
O610   Zn618   2.029   .     S
O611   Zn617   2.029   .     S
O612   Zn618   2.029   .     S
O613   Zn617   2.018   .     S
O614   Zn618   2.018   .     S
O615   Zn617   2.019   .     S
O616   Zn618   2.019   .     S
C619   C620    1.538   .     S
C619   H627    1.105   .     S
C619   H628    1.104   .     S
C620   C621    1.527   .     S
C620   H626    1.110   .     S
C620   H625    1.112   .     S
C621   H623    1.111   .     S
C621   H624    1.111   .     S
C621   H622    1.109   .     S
C629   H637    1.107   .     S
C629   H638    1.105   .     S
C629   C630    1.547   .     S
C630   H636    1.108   .     S
C630   C631    1.520   .     S
C630   H635    1.111   .     S
C631   H632    1.106   .     S
C631   H69     1.103   1_565 S
C631   H70     1.110   1_565 S
C639   H647    1.105   .     S
C639   H648    1.104   .     S
C639   C640    1.538   .     S
C640   C641    1.527   .     S
C640   H646    1.110   .     S
C640   H645    1.112   .     S
C641   H643    1.111   .     S
C641   H642    1.109   .     S
C641   H644    1.111   .     S
C649   C650    1.547   .     S
C649   H657    1.107   .     S
C649   H658    1.105   .     S
C650   H655    1.111   .     S
C650   C651    1.520   .     S
C650   H656    1.108   .     S
C651   H652    1.106   .     S
C651   H89     1.103   1_565 S
C651   H90     1.110   1_565 S
C659   C668    1.456   .     S
C659   O706    1.303   .     A
C659   O703    1.271   .     A
C660   O704    1.303   .     A
C660   O705    1.270   .     A
C660   C667    1.455   .     S
C661   C686    1.400   .     A
C661   H695    1.084   .     S
C661   C1533   1.389   1_554 S
C662   C685    1.400   .     A
C662   H696    1.084   .     S
C662   C1534   1.389   .     S
C663   C713    1.529   .     S
C663   C668    1.408   .     A
C664   C667    1.437   .     A
C664   C723    1.546   .     S
C664   C760    1.409   .     S
C665   C667    1.407   .     A
C665   C733    1.529   .     S
C665   C757    1.387   .     S
C666   C743    1.546   .     S
C666   C668    1.438   .     A
C669   N702    1.365   .     A
C669   H697    1.080   .     S
C670   N701    1.365   .     A
C670   H698    1.080   .     S
C670   C107    1.411   1_565 S
C671   H699    1.080   .     S
C671   N702    1.365   .     A
C672   H700    1.080   .     S
C672   N701    1.365   .     A
C672   C105    1.411   1_565 S
C673   O707    1.284   .     A
C673   C678    1.439   .     S
C673   O710    1.284   .     A
C674   O709    1.284   .     A
C674   C677    1.438   .     S
C674   O708    1.284   .     A
C675   C685    1.383   .     A
C675   H689    1.085   .     S
C675   C677    1.399   .     A
C676   C678    1.399   .     A
C676   C686    1.383   .     A
C676   H690    1.085   .     S
C677   C679    1.399   .     A
C678   C680    1.399   .     A
C679   H691    1.085   .     S
C679   C681    1.383   .     A
C680   H692    1.085   .     S
C680   C682    1.383   .     A
C681   C687    1.400   .     A
C681   C683    1.411   .     A
C682   C684    1.411   .     A
C682   C688    1.400   .     A
C683   C685    1.411   .     A
C683   C1530   1.391   .     S
C684   C686    1.411   .     A
C684   C1529   1.391   1_554 S
C687   H693    1.084   .     S
C687   C1507   1.389   .     S
C688   H694    1.084   .     S
C688   C1508   1.389   1_554 S
N701   Zn711   1.999   .     S
N702   Zn712   1.999   .     S
O703   Zn711   2.029   .     S
O704   Zn712   2.029   .     S
O705   Zn711   2.029   .     S
O706   Zn712   2.029   .     S
O707   Zn711   2.018   .     S
O708   Zn712   2.018   .     S
O709   Zn711   2.019   .     S
O710   Zn712   2.019   .     S
C713   C714    1.538   .     S
C713   H721    1.105   .     S
C713   H722    1.104   .     S
C714   C715    1.527   .     S
C714   H720    1.110   .     S
C714   H719    1.112   .     S
C715   H717    1.111   .     S
C715   H718    1.111   .     S
C715   H716    1.109   .     S
C723   H731    1.107   .     S
C723   H732    1.105   .     S
C723   C724    1.547   .     S
C724   H730    1.108   .     S
C724   C725    1.520   .     S
C724   H729    1.111   .     S
C725   H726    1.106   .     S
C725   H163    1.103   1_565 S
C725   H164    1.110   1_565 S
C733   H741    1.105   .     S
C733   H742    1.104   .     S
C733   C734    1.538   .     S
C734   C735    1.527   .     S
C734   H740    1.110   .     S
C734   H739    1.112   .     S
C735   H737    1.111   .     S
C735   H736    1.109   .     S
C735   H738    1.111   .     S
C743   C744    1.547   .     S
C743   H751    1.107   .     S
C743   H752    1.105   .     S
C744   H749    1.111   .     S
C744   C745    1.520   .     S
C744   H750    1.108   .     S
C745   H746    1.106   .     S
C745   H183    1.103   1_565 S
C745   H184    1.110   1_565 S
C753   C762    1.456   .     S
C753   O800    1.303   .     A
C753   O797    1.271   .     A
C754   O798    1.303   .     A
C754   O799    1.270   .     A
C754   C761    1.455   .     S
C755   C780    1.400   .     A
C755   H789    1.084   .     S
C755   C1627   1.389   1_554 S
C756   C779    1.400   .     A
C756   H790    1.084   .     S
C756   C1628   1.389   .     S
C757   C807    1.529   .     S
C757   C762    1.408   .     A
C758   C761    1.437   .     A
C758   C817    1.546   .     S
C758   C572    1.409   1_655 S
C759   C761    1.407   .     A
C759   C827    1.529   .     S
C759   C569    1.387   1_655 S
C760   C837    1.546   .     S
C760   C762    1.438   .     A
C763   N796    1.365   .     A
C763   H791    1.080   .     S
C764   N795    1.365   .     A
C764   H792    1.080   .     S
C764   C201    1.411   1_565 S
C765   H793    1.080   .     S
C765   N796    1.365   .     A
C766   H794    1.080   .     S
C766   N795    1.365   .     A
C766   C199    1.411   1_565 S
C767   O801    1.284   .     A
C767   C772    1.439   .     S
C767   O804    1.284   .     A
C768   O803    1.284   .     A
C768   C771    1.438   .     S
C768   O802    1.284   .     A
C769   C779    1.383   .     A
C769   H783    1.085   .     S
C769   C771    1.399   .     A
C770   C772    1.399   .     A
C770   C780    1.383   .     A
C770   H784    1.085   .     S
C771   C773    1.399   .     A
C772   C774    1.399   .     A
C773   H785    1.085   .     S
C773   C775    1.383   .     A
C774   H786    1.085   .     S
C774   C776    1.383   .     A
C775   C781    1.400   .     A
C775   C777    1.411   .     A
C776   C778    1.411   .     A
C776   C782    1.400   .     A
C777   C779    1.411   .     A
C777   C1624   1.391   .     S
C778   C780    1.411   .     A
C778   C1623   1.391   1_554 S
C781   H787    1.084   .     S
C781   C1601   1.389   .     S
C782   H788    1.084   .     S
C782   C1602   1.389   1_554 S
N795   Zn805   1.999   .     S
N796   Zn806   1.999   .     S
O797   Zn805   2.029   .     S
O798   Zn806   2.029   .     S
O799   Zn805   2.029   .     S
O800   Zn806   2.029   .     S
O801   Zn805   2.018   .     S
O802   Zn806   2.018   .     S
O803   Zn805   2.019   .     S
O804   Zn806   2.019   .     S
C807   C808    1.538   .     S
C807   H815    1.105   .     S
C807   H816    1.104   .     S
C808   C809    1.527   .     S
C808   H814    1.110   .     S
C808   H813    1.112   .     S
C809   H811    1.111   .     S
C809   H812    1.111   .     S
C809   H810    1.109   .     S
C817   H825    1.107   .     S
C817   H826    1.105   .     S
C817   C818    1.547   .     S
C818   H824    1.108   .     S
C818   C819    1.520   .     S
C818   H823    1.111   .     S
C819   H820    1.106   .     S
C819   H257    1.103   1_565 S
C819   H258    1.110   1_565 S
C827   H835    1.105   .     S
C827   H836    1.104   .     S
C827   C828    1.538   .     S
C828   C829    1.527   .     S
C828   H834    1.110   .     S
C828   H833    1.112   .     S
C829   H831    1.111   .     S
C829   H830    1.109   .     S
C829   H832    1.111   .     S
C837   C838    1.547   .     S
C837   H845    1.107   .     S
C837   H846    1.105   .     S
C838   H843    1.111   .     S
C838   C839    1.520   .     S
C838   H844    1.108   .     S
C839   H840    1.106   .     S
C839   H277    1.103   1_565 S
C839   H278    1.110   1_565 S
C847   C856    1.456   .     S
C847   O894    1.303   .     A
C847   O891    1.271   .     A
C848   O892    1.303   .     A
C848   O893    1.270   .     A
C848   C855    1.455   .     S
C849   C874    1.400   .     A
C849   H883    1.084   .     S
C850   C873    1.400   .     A
C850   H884    1.084   .     S
C850   C30     1.389   1_556 S
C851   C901    1.529   .     S
C851   C856    1.408   .     A
C851   C1041   1.387   1_455 S
C852   C855    1.437   .     A
C852   C911    1.546   .     S
C852   C948    1.409   .     S
C853   C855    1.407   .     A
C853   C921    1.529   .     S
C853   C945    1.387   .     S
C854   C931    1.546   .     S
C854   C856    1.438   .     A
C854   C1040   1.409   1_455 S
C857   N890    1.365   .     A
C857   H885    1.080   .     S
C857   C1424   1.411   1_545 S
C858   N889    1.365   .     A
C858   H886    1.080   .     S
C858   C1141   1.411   .     S
C859   H887    1.080   .     S
C859   N890    1.365   .     A
C859   C1422   1.411   1_545 S
C860   H888    1.080   .     S
C860   N889    1.365   .     A
C860   C1139   1.411   .     S
C861   O895    1.284   .     A
C861   C866    1.439   .     S
C861   O898    1.284   .     A
C862   O897    1.284   .     A
C862   C865    1.438   .     S
C862   O896    1.284   .     A
C863   C873    1.383   .     A
C863   H877    1.085   .     S
C863   C865    1.399   .     A
C864   C866    1.399   .     A
C864   C874    1.383   .     A
C864   H878    1.085   .     S
C865   C867    1.399   .     A
C866   C868    1.399   .     A
C867   H879    1.085   .     S
C867   C869    1.383   .     A
C868   H880    1.085   .     S
C868   C870    1.383   .     A
C869   C875    1.400   .     A
C869   C871    1.411   .     A
C870   C872    1.411   .     A
C870   C876    1.400   .     A
C871   C873    1.411   .     A
C871   C26     1.391   1_556 S
C872   C874    1.411   .     A
C875   H881    1.084   .     S
C875   C3      1.389   1_556 S
C876   H882    1.084   .     S
N889   Zn899   1.999   .     S
N890   Zn900   1.999   .     S
O891   Zn899   2.029   .     S
O892   Zn900   2.029   .     S
O893   Zn899   2.029   .     S
O894   Zn900   2.029   .     S
O895   Zn899   2.018   .     S
O896   Zn900   2.018   .     S
O897   Zn899   2.019   .     S
O898   Zn900   2.019   .     S
C901   C902    1.538   .     S
C901   H909    1.105   .     S
C901   H910    1.104   .     S
C902   C903    1.527   .     S
C902   H908    1.110   .     S
C902   H907    1.112   .     S
C903   H905    1.111   .     S
C903   H906    1.111   .     S
C903   H904    1.109   .     S
C911   H919    1.107   .     S
C911   H920    1.105   .     S
C911   C912    1.547   .     S
C912   H918    1.108   .     S
C912   C913    1.520   .     S
C912   H917    1.111   .     S
C913   H914    1.106   .     S
C913   H1197   1.103   .     S
C913   H1198   1.110   .     S
H915   C1477   1.103   1_545 S
H916   C1477   1.110   1_545 S
C921   H929    1.105   .     S
C921   H930    1.104   .     S
C921   C922    1.538   .     S
C922   C923    1.527   .     S
C922   H928    1.110   .     S
C922   H927    1.112   .     S
C923   H925    1.111   .     S
C923   H924    1.109   .     S
C923   H926    1.111   .     S
C931   C932    1.547   .     S
C931   H939    1.107   .     S
C931   H940    1.105   .     S
C932   H937    1.111   .     S
C932   C933    1.520   .     S
C932   H938    1.108   .     S
C933   H934    1.106   .     S
C933   H1217   1.103   .     S
C933   H1218   1.110   .     S
H935   C1497   1.103   1_545 S
H936   C1497   1.110   1_545 S
C941   C950    1.456   .     S
C941   O988    1.303   .     A
C941   O985    1.271   .     A
C942   O986    1.303   .     A
C942   O987    1.270   .     A
C942   C949    1.455   .     S
C943   C968    1.400   .     A
C943   H977    1.084   .     S
C944   C967    1.400   .     A
C944   H978    1.084   .     S
C944   C124    1.389   1_556 S
C945   C995    1.529   .     S
C945   C950    1.408   .     A
C946   C949    1.437   .     A
C946   C1005   1.546   .     S
C946   C1042   1.409   .     S
C947   C949    1.407   .     A
C947   C1015   1.529   .     S
C947   C1039   1.387   .     S
C948   C1025   1.546   .     S
C948   C950    1.438   .     A
C951   N984    1.365   .     A
C951   H979    1.080   .     S
C951   C1518   1.411   1_545 S
C952   N983    1.365   .     A
C952   H980    1.080   .     S
C952   C1235   1.411   .     S
C953   H981    1.080   .     S
C953   N984    1.365   .     A
C953   C1516   1.411   1_545 S
C954   H982    1.080   .     S
C954   N983    1.365   .     A
C954   C1233   1.411   .     S
C955   O989    1.284   .     A
C955   C960    1.439   .     S
C955   O992    1.284   .     A
C956   O991    1.284   .     A
C956   C959    1.438   .     S
C956   O990    1.284   .     A
C957   C967    1.383   .     A
C957   H971    1.085   .     S
C957   C959    1.399   .     A
C958   C960    1.399   .     A
C958   C968    1.383   .     A
C958   H972    1.085   .     S
C959   C961    1.399   .     A
C960   C962    1.399   .     A
C961   H973    1.085   .     S
C961   C963    1.383   .     A
C962   H974    1.085   .     S
C962   C964    1.383   .     A
C963   C969    1.400   .     A
C963   C965    1.411   .     A
C964   C966    1.411   .     A
C964   C970    1.400   .     A
C965   C967    1.411   .     A
C965   C120    1.391   1_556 S
C966   C968    1.411   .     A
C969   H975    1.084   .     S
C969   C97     1.389   1_556 S
C970   H976    1.084   .     S
N983   Zn993   1.999   .     S
N984   Zn994   1.999   .     S
O985   Zn993   2.029   .     S
O986   Zn994   2.029   .     S
O987   Zn993   2.029   .     S
O988   Zn994   2.029   .     S
O989   Zn993   2.018   .     S
O990   Zn994   2.018   .     S
O991   Zn993   2.019   .     S
O992   Zn994   2.019   .     S
C995   C996    1.538   .     S
C995   H1003   1.105   .     S
C995   H1004   1.104   .     S
C996   C997    1.527   .     S
C996   H1002   1.110   .     S
C996   H1001   1.112   .     S
C997   H999    1.111   .     S
C997   H1000   1.111   .     S
C997   H998    1.109   .     S
C1005  H1013   1.107   .     S
C1005  H1014   1.105   .     S
C1005  C1006   1.547   .     S
C1006  H1012   1.108   .     S
C1006  C1007   1.520   .     S
C1006  H1011   1.111   .     S
C1007  H1008   1.106   .     S
C1007  H1291   1.103   .     S
C1007  H1292   1.110   .     S
H1009  C1571   1.103   1_545 S
H1010  C1571   1.110   1_545 S
C1015  H1023   1.105   .     S
C1015  H1024   1.104   .     S
C1015  C1016   1.538   .     S
C1016  C1017   1.527   .     S
C1016  H1022   1.110   .     S
C1016  H1021   1.112   .     S
C1017  H1019   1.111   .     S
C1017  H1018   1.109   .     S
C1017  H1020   1.111   .     S
C1025  C1026   1.547   .     S
C1025  H1033   1.107   .     S
C1025  H1034   1.105   .     S
C1026  H1031   1.111   .     S
C1026  C1027   1.520   .     S
C1026  H1032   1.108   .     S
C1027  H1028   1.106   .     S
C1027  H1311   1.103   .     S
C1027  H1312   1.110   .     S
H1029  C1591   1.103   1_545 S
H1030  C1591   1.110   1_545 S
C1035  C1044   1.456   .     S
C1035  O1082   1.303   .     A
C1035  O1079   1.271   .     A
C1036  O1080   1.303   .     A
C1036  O1081   1.270   .     A
C1036  C1043   1.455   .     S
C1037  C1062   1.400   .     A
C1037  H1071   1.084   .     S
C1038  C1061   1.400   .     A
C1038  H1072   1.084   .     S
C1038  C218    1.389   1_556 S
C1039  C1089   1.529   .     S
C1039  C1044   1.408   .     A
C1040  C1043   1.437   .     A
C1040  C1099   1.546   .     S
C1040  C854    1.409   1_655 S
C1041  C1043   1.407   .     A
C1041  C1109   1.529   .     S
C1041  C851    1.387   1_655 S
C1042  C1119   1.546   .     S
C1042  C1044   1.438   .     A
C1045  N1078   1.365   .     A
C1045  H1073   1.080   .     S
C1045  C1612   1.411   1_545 S
C1046  N1077   1.365   .     A
C1046  H1074   1.080   .     S
C1046  C1329   1.411   .     S
C1047  H1075   1.080   .     S
C1047  N1078   1.365   .     A
C1047  C1610   1.411   1_545 S
C1048  H1076   1.080   .     S
C1048  N1077   1.365   .     A
C1048  C1327   1.411   .     S
C1049  O1083   1.284   .     A
C1049  C1054   1.439   .     S
C1049  O1086   1.284   .     A
C1050  O1085   1.284   .     A
C1050  C1053   1.438   .     S
C1050  O1084   1.284   .     A
C1051  C1061   1.383   .     A
C1051  H1065   1.085   .     S
C1051  C1053   1.399   .     A
C1052  C1054   1.399   .     A
C1052  C1062   1.383   .     A
C1052  H1066   1.085   .     S
C1053  C1055   1.399   .     A
C1054  C1056   1.399   .     A
C1055  H1067   1.085   .     S
C1055  C1057   1.383   .     A
C1056  H1068   1.085   .     S
C1056  C1058   1.383   .     A
C1057  C1063   1.400   .     A
C1057  C1059   1.411   .     A
C1058  C1060   1.411   .     A
C1058  C1064   1.400   .     A
C1059  C1061   1.411   .     A
C1059  C214    1.391   1_556 S
C1060  C1062   1.411   .     A
C1063  H1069   1.084   .     S
C1063  C191    1.389   1_556 S
C1064  H1070   1.084   .     S
N1077  Zn1087  1.999   .     S
N1078  Zn1088  1.999   .     S
O1079  Zn1087  2.029   .     S
O1080  Zn1088  2.029   .     S
O1081  Zn1087  2.029   .     S
O1082  Zn1088  2.029   .     S
O1083  Zn1087  2.018   .     S
O1084  Zn1088  2.018   .     S
O1085  Zn1087  2.019   .     S
O1086  Zn1088  2.019   .     S
C1089  C1090   1.538   .     S
C1089  H1097   1.105   .     S
C1089  H1098   1.104   .     S
C1090  C1091   1.527   .     S
C1090  H1096   1.110   .     S
C1090  H1095   1.112   .     S
C1091  H1093   1.111   .     S
C1091  H1094   1.111   .     S
C1091  H1092   1.109   .     S
C1099  H1107   1.107   .     S
C1099  H1108   1.105   .     S
C1099  C1100   1.547   .     S
C1100  H1106   1.108   .     S
C1100  C1101   1.520   .     S
C1100  H1105   1.111   .     S
C1101  H1102   1.106   .     S
C1101  H1385   1.103   .     S
C1101  H1386   1.110   .     S
H1103  C1665   1.103   1_545 S
H1104  C1665   1.110   1_545 S
C1109  H1117   1.105   .     S
C1109  H1118   1.104   .     S
C1109  C1110   1.538   .     S
C1110  C1111   1.527   .     S
C1110  H1116   1.110   .     S
C1110  H1115   1.112   .     S
C1111  H1113   1.111   .     S
C1111  H1112   1.109   .     S
C1111  H1114   1.111   .     S
C1119  C1120   1.547   .     S
C1119  H1127   1.107   .     S
C1119  H1128   1.105   .     S
C1120  H1125   1.111   .     S
C1120  C1121   1.520   .     S
C1120  H1126   1.108   .     S
C1121  H1122   1.106   .     S
C1121  H1405   1.103   .     S
C1121  H1406   1.110   .     S
H1123  C1685   1.103   1_545 S
H1124  C1685   1.110   1_545 S
C1129  C1138   1.456   .     S
C1129  O1176   1.303   .     A
C1129  O1173   1.271   .     A
C1130  O1174   1.303   .     A
C1130  O1175   1.270   .     A
C1130  C1137   1.455   .     S
C1131  C1156   1.400   .     A
C1131  H1165   1.084   .     S
C1132  C1155   1.400   .     A
C1132  H1166   1.084   .     S
C1132  C312    1.389   1_556 S
C1133  C1183   1.529   .     S
C1133  C1138   1.408   .     A
C1133  C1323   1.387   1_455 S
C1134  C1137   1.437   .     A
C1134  C1193   1.546   .     S
C1134  C1230   1.409   .     S
C1135  C1137   1.407   .     A
C1135  C1203   1.529   .     S
C1135  C1227   1.387   .     S
C1136  C1213   1.546   .     S
C1136  C1138   1.438   .     A
C1136  C1322   1.409   1_455 S
C1139  N1172   1.365   .     A
C1139  H1167   1.080   .     S
C1140  N1171   1.365   .     A
C1140  H1168   1.080   .     S
C1140  C1423   1.411   .     S
C1141  H1169   1.080   .     S
C1141  N1172   1.365   .     A
C1142  H1170   1.080   .     S
C1142  N1171   1.365   .     A
C1142  C1421   1.411   .     S
C1143  O1177   1.284   .     A
C1143  C1148   1.439   .     S
C1143  O1180   1.284   .     A
C1144  O1179   1.284   .     A
C1144  C1147   1.438   .     S
C1144  O1178   1.284   .     A
C1145  C1155   1.383   .     A
C1145  H1159   1.085   .     S
C1145  C1147   1.399   .     A
C1146  C1148   1.399   .     A
C1146  C1156   1.383   .     A
C1146  H1160   1.085   .     S
C1147  C1149   1.399   .     A
C1148  C1150   1.399   .     A
C1149  H1161   1.085   .     S
C1149  C1151   1.383   .     A
C1150  H1162   1.085   .     S
C1150  C1152   1.383   .     A
C1151  C1157   1.400   .     A
C1151  C1153   1.411   .     A
C1152  C1154   1.411   .     A
C1152  C1158   1.400   .     A
C1153  C1155   1.411   .     A
C1153  C308    1.391   1_556 S
C1154  C1156   1.411   .     A
C1157  H1163   1.084   .     S
C1157  C285    1.389   1_556 S
C1158  H1164   1.084   .     S
N1171  Zn1181  1.999   .     S
N1172  Zn1182  1.999   .     S
O1173  Zn1181  2.029   .     S
O1174  Zn1182  2.029   .     S
O1175  Zn1181  2.029   .     S
O1176  Zn1182  2.029   .     S
O1177  Zn1181  2.018   .     S
O1178  Zn1182  2.018   .     S
O1179  Zn1181  2.019   .     S
O1180  Zn1182  2.019   .     S
C1183  C1184   1.538   .     S
C1183  H1191   1.105   .     S
C1183  H1192   1.104   .     S
C1184  C1185   1.527   .     S
C1184  H1190   1.110   .     S
C1184  H1189   1.112   .     S
C1185  H1187   1.111   .     S
C1185  H1188   1.111   .     S
C1185  H1186   1.109   .     S
C1193  H1201   1.107   .     S
C1193  H1202   1.105   .     S
C1193  C1194   1.547   .     S
C1194  H1200   1.108   .     S
C1194  C1195   1.520   .     S
C1194  H1199   1.111   .     S
C1195  H1196   1.106   .     S
C1195  H1479   1.103   .     S
C1195  H1480   1.110   .     S
C1203  H1211   1.105   .     S
C1203  H1212   1.104   .     S
C1203  C1204   1.538   .     S
C1204  C1205   1.527   .     S
C1204  H1210   1.110   .     S
C1204  H1209   1.112   .     S
C1205  H1207   1.111   .     S
C1205  H1206   1.109   .     S
C1205  H1208   1.111   .     S
C1213  C1214   1.547   .     S
C1213  H1221   1.107   .     S
C1213  H1222   1.105   .     S
C1214  H1219   1.111   .     S
C1214  C1215   1.520   .     S
C1214  H1220   1.108   .     S
C1215  H1216   1.106   .     S
C1215  H1499   1.103   .     S
C1215  H1500   1.110   .     S
C1223  C1232   1.456   .     S
C1223  O1270   1.303   .     A
C1223  O1267   1.271   .     A
C1224  O1268   1.303   .     A
C1224  O1269   1.270   .     A
C1224  C1231   1.455   .     S
C1225  C1250   1.400   .     A
C1225  H1259   1.084   .     S
C1226  C1249   1.400   .     A
C1226  H1260   1.084   .     S
C1226  C406    1.389   1_556 S
C1227  C1277   1.529   .     S
C1227  C1232   1.408   .     A
C1228  C1231   1.437   .     A
C1228  C1287   1.546   .     S
C1228  C1324   1.409   .     S
C1229  C1231   1.407   .     A
C1229  C1297   1.529   .     S
C1229  C1321   1.387   .     S
C1230  C1307   1.546   .     S
C1230  C1232   1.438   .     A
C1233  N1266   1.365   .     A
C1233  H1261   1.080   .     S
C1234  N1265   1.365   .     A
C1234  H1262   1.080   .     S
C1234  C1517   1.411   .     S
C1235  H1263   1.080   .     S
C1235  N1266   1.365   .     A
C1236  H1264   1.080   .     S
C1236  N1265   1.365   .     A
C1236  C1515   1.411   .     S
C1237  O1271   1.284   .     A
C1237  C1242   1.439   .     S
C1237  O1274   1.284   .     A
C1238  O1273   1.284   .     A
C1238  C1241   1.438   .     S
C1238  O1272   1.284   .     A
C1239  C1249   1.383   .     A
C1239  H1253   1.085   .     S
C1239  C1241   1.399   .     A
C1240  C1242   1.399   .     A
C1240  C1250   1.383   .     A
C1240  H1254   1.085   .     S
C1241  C1243   1.399   .     A
C1242  C1244   1.399   .     A
C1243  H1255   1.085   .     S
C1243  C1245   1.383   .     A
C1244  H1256   1.085   .     S
C1244  C1246   1.383   .     A
C1245  C1251   1.400   .     A
C1245  C1247   1.411   .     A
C1246  C1248   1.411   .     A
C1246  C1252   1.400   .     A
C1247  C1249   1.411   .     A
C1247  C402    1.391   1_556 S
C1248  C1250   1.411   .     A
C1251  H1257   1.084   .     S
C1251  C379    1.389   1_556 S
C1252  H1258   1.084   .     S
N1265  Zn1275  1.999   .     S
N1266  Zn1276  1.999   .     S
O1267  Zn1275  2.029   .     S
O1268  Zn1276  2.029   .     S
O1269  Zn1275  2.029   .     S
O1270  Zn1276  2.029   .     S
O1271  Zn1275  2.018   .     S
O1272  Zn1276  2.018   .     S
O1273  Zn1275  2.019   .     S
O1274  Zn1276  2.019   .     S
C1277  C1278   1.538   .     S
C1277  H1285   1.105   .     S
C1277  H1286   1.104   .     S
C1278  C1279   1.527   .     S
C1278  H1284   1.110   .     S
C1278  H1283   1.112   .     S
C1279  H1281   1.111   .     S
C1279  H1282   1.111   .     S
C1279  H1280   1.109   .     S
C1287  H1295   1.107   .     S
C1287  H1296   1.105   .     S
C1287  C1288   1.547   .     S
C1288  H1294   1.108   .     S
C1288  C1289   1.520   .     S
C1288  H1293   1.111   .     S
C1289  H1290   1.106   .     S
C1289  H1573   1.103   .     S
C1289  H1574   1.110   .     S
C1297  H1305   1.105   .     S
C1297  H1306   1.104   .     S
C1297  C1298   1.538   .     S
C1298  C1299   1.527   .     S
C1298  H1304   1.110   .     S
C1298  H1303   1.112   .     S
C1299  H1301   1.111   .     S
C1299  H1300   1.109   .     S
C1299  H1302   1.111   .     S
C1307  C1308   1.547   .     S
C1307  H1315   1.107   .     S
C1307  H1316   1.105   .     S
C1308  H1313   1.111   .     S
C1308  C1309   1.520   .     S
C1308  H1314   1.108   .     S
C1309  H1310   1.106   .     S
C1309  H1593   1.103   .     S
C1309  H1594   1.110   .     S
C1317  C1326   1.456   .     S
C1317  O1364   1.303   .     A
C1317  O1361   1.271   .     A
C1318  O1362   1.303   .     A
C1318  O1363   1.270   .     A
C1318  C1325   1.455   .     S
C1319  C1344   1.400   .     A
C1319  H1353   1.084   .     S
C1320  C1343   1.400   .     A
C1320  H1354   1.084   .     S
C1320  C500    1.389   1_556 S
C1321  C1371   1.529   .     S
C1321  C1326   1.408   .     A
C1322  C1325   1.437   .     A
C1322  C1381   1.546   .     S
C1322  C1136   1.409   1_655 S
C1323  C1325   1.407   .     A
C1323  C1391   1.529   .     S
C1323  C1133   1.387   1_655 S
C1324  C1401   1.546   .     S
C1324  C1326   1.438   .     A
C1327  N1360   1.365   .     A
C1327  H1355   1.080   .     S
C1328  N1359   1.365   .     A
C1328  H1356   1.080   .     S
C1328  C1611   1.411   .     S
C1329  H1357   1.080   .     S
C1329  N1360   1.365   .     A
C1330  H1358   1.080   .     S
C1330  N1359   1.365   .     A
C1330  C1609   1.411   .     S
C1331  O1365   1.284   .     A
C1331  C1336   1.439   .     S
C1331  O1368   1.284   .     A
C1332  O1367   1.284   .     A
C1332  C1335   1.438   .     S
C1332  O1366   1.284   .     A
C1333  C1343   1.383   .     A
C1333  H1347   1.085   .     S
C1333  C1335   1.399   .     A
C1334  C1336   1.399   .     A
C1334  C1344   1.383   .     A
C1334  H1348   1.085   .     S
C1335  C1337   1.399   .     A
C1336  C1338   1.399   .     A
C1337  H1349   1.085   .     S
C1337  C1339   1.383   .     A
C1338  H1350   1.085   .     S
C1338  C1340   1.383   .     A
C1339  C1345   1.400   .     A
C1339  C1341   1.411   .     A
C1340  C1342   1.411   .     A
C1340  C1346   1.400   .     A
C1341  C1343   1.411   .     A
C1341  C496    1.391   1_556 S
C1342  C1344   1.411   .     A
C1345  H1351   1.084   .     S
C1345  C473    1.389   1_556 S
C1346  H1352   1.084   .     S
N1359  Zn1369  1.999   .     S
N1360  Zn1370  1.999   .     S
O1361  Zn1369  2.029   .     S
O1362  Zn1370  2.029   .     S
O1363  Zn1369  2.029   .     S
O1364  Zn1370  2.029   .     S
O1365  Zn1369  2.018   .     S
O1366  Zn1370  2.018   .     S
O1367  Zn1369  2.019   .     S
O1368  Zn1370  2.019   .     S
C1371  C1372   1.538   .     S
C1371  H1379   1.105   .     S
C1371  H1380   1.104   .     S
C1372  C1373   1.527   .     S
C1372  H1378   1.110   .     S
C1372  H1377   1.112   .     S
C1373  H1375   1.111   .     S
C1373  H1376   1.111   .     S
C1373  H1374   1.109   .     S
C1381  H1389   1.107   .     S
C1381  H1390   1.105   .     S
C1381  C1382   1.547   .     S
C1382  H1388   1.108   .     S
C1382  C1383   1.520   .     S
C1382  H1387   1.111   .     S
C1383  H1384   1.106   .     S
C1383  H1667   1.103   .     S
C1383  H1668   1.110   .     S
C1391  H1399   1.105   .     S
C1391  H1400   1.104   .     S
C1391  C1392   1.538   .     S
C1392  C1393   1.527   .     S
C1392  H1398   1.110   .     S
C1392  H1397   1.112   .     S
C1393  H1395   1.111   .     S
C1393  H1394   1.109   .     S
C1393  H1396   1.111   .     S
C1401  C1402   1.547   .     S
C1401  H1409   1.107   .     S
C1401  H1410   1.105   .     S
C1402  H1407   1.111   .     S
C1402  C1403   1.520   .     S
C1402  H1408   1.108   .     S
C1403  H1404   1.106   .     S
C1403  H1687   1.103   .     S
C1403  H1688   1.110   .     S
C1411  C1420   1.456   .     S
C1411  O1458   1.303   .     A
C1411  O1455   1.271   .     A
C1412  O1456   1.303   .     A
C1412  O1457   1.270   .     A
C1412  C1419   1.455   .     S
C1413  C1438   1.400   .     A
C1413  H1447   1.084   .     S
C1414  C1437   1.400   .     A
C1414  H1448   1.084   .     S
C1414  C594    1.389   1_556 S
C1415  C1465   1.529   .     S
C1415  C1420   1.408   .     A
C1415  C1605   1.387   1_455 S
C1416  C1419   1.437   .     A
C1416  C1475   1.546   .     S
C1416  C1512   1.409   .     S
C1417  C1419   1.407   .     A
C1417  C1485   1.529   .     S
C1417  C1509   1.387   .     S
C1418  C1495   1.546   .     S
C1418  C1420   1.438   .     A
C1418  C1604   1.409   1_455 S
C1421  N1454   1.365   .     A
C1421  H1449   1.080   .     S
C1422  N1453   1.365   .     A
C1422  H1450   1.080   .     S
C1422  C859    1.411   1_565 S
C1423  H1451   1.080   .     S
C1423  N1454   1.365   .     A
C1424  H1452   1.080   .     S
C1424  N1453   1.365   .     A
C1424  C857    1.411   1_565 S
C1425  O1459   1.284   .     A
C1425  C1430   1.439   .     S
C1425  O1462   1.284   .     A
C1426  O1461   1.284   .     A
C1426  C1429   1.438   .     S
C1426  O1460   1.284   .     A
C1427  C1437   1.383   .     A
C1427  H1441   1.085   .     S
C1427  C1429   1.399   .     A
C1428  C1430   1.399   .     A
C1428  C1438   1.383   .     A
C1428  H1442   1.085   .     S
C1429  C1431   1.399   .     A
C1430  C1432   1.399   .     A
C1431  H1443   1.085   .     S
C1431  C1433   1.383   .     A
C1432  H1444   1.085   .     S
C1432  C1434   1.383   .     A
C1433  C1439   1.400   .     A
C1433  C1435   1.411   .     A
C1434  C1436   1.411   .     A
C1434  C1440   1.400   .     A
C1435  C1437   1.411   .     A
C1435  C590    1.391   1_556 S
C1436  C1438   1.411   .     A
C1439  H1445   1.084   .     S
C1439  C567    1.389   1_556 S
C1440  H1446   1.084   .     S
N1453  Zn1463  1.999   .     S
N1454  Zn1464  1.999   .     S
O1455  Zn1463  2.029   .     S
O1456  Zn1464  2.029   .     S
O1457  Zn1463  2.029   .     S
O1458  Zn1464  2.029   .     S
O1459  Zn1463  2.018   .     S
O1460  Zn1464  2.018   .     S
O1461  Zn1463  2.019   .     S
O1462  Zn1464  2.019   .     S
C1465  C1466   1.538   .     S
C1465  H1473   1.105   .     S
C1465  H1474   1.104   .     S
C1466  C1467   1.527   .     S
C1466  H1472   1.110   .     S
C1466  H1471   1.112   .     S
C1467  H1469   1.111   .     S
C1467  H1470   1.111   .     S
C1467  H1468   1.109   .     S
C1475  H1483   1.107   .     S
C1475  H1484   1.105   .     S
C1475  C1476   1.547   .     S
C1476  H1482   1.108   .     S
C1476  C1477   1.520   .     S
C1476  H1481   1.111   .     S
C1477  H1478   1.106   .     S
C1477  H915    1.103   1_565 S
C1477  H916    1.110   1_565 S
C1485  H1493   1.105   .     S
C1485  H1494   1.104   .     S
C1485  C1486   1.538   .     S
C1486  C1487   1.527   .     S
C1486  H1492   1.110   .     S
C1486  H1491   1.112   .     S
C1487  H1489   1.111   .     S
C1487  H1488   1.109   .     S
C1487  H1490   1.111   .     S
C1495  C1496   1.547   .     S
C1495  H1503   1.107   .     S
C1495  H1504   1.105   .     S
C1496  H1501   1.111   .     S
C1496  C1497   1.520   .     S
C1496  H1502   1.108   .     S
C1497  H1498   1.106   .     S
C1497  H935    1.103   1_565 S
C1497  H936    1.110   1_565 S
C1505  C1514   1.456   .     S
C1505  O1552   1.303   .     A
C1505  O1549   1.271   .     A
C1506  O1550   1.303   .     A
C1506  O1551   1.270   .     A
C1506  C1513   1.455   .     S
C1507  C1532   1.400   .     A
C1507  H1541   1.084   .     S
C1508  C1531   1.400   .     A
C1508  H1542   1.084   .     S
C1508  C688    1.389   1_556 S
C1509  C1559   1.529   .     S
C1509  C1514   1.408   .     A
C1510  C1513   1.437   .     A
C1510  C1569   1.546   .     S
C1510  C1606   1.409   .     S
C1511  C1513   1.407   .     A
C1511  C1579   1.529   .     S
C1511  C1603   1.387   .     S
C1512  C1589   1.546   .     S
C1512  C1514   1.438   .     A
C1515  N1548   1.365   .     A
C1515  H1543   1.080   .     S
C1516  N1547   1.365   .     A
C1516  H1544   1.080   .     S
C1516  C953    1.411   1_565 S
C1517  H1545   1.080   .     S
C1517  N1548   1.365   .     A
C1518  H1546   1.080   .     S
C1518  N1547   1.365   .     A
C1518  C951    1.411   1_565 S
C1519  O1553   1.284   .     A
C1519  C1524   1.439   .     S
C1519  O1556   1.284   .     A
C1520  O1555   1.284   .     A
C1520  C1523   1.438   .     S
C1520  O1554   1.284   .     A
C1521  C1531   1.383   .     A
C1521  H1535   1.085   .     S
C1521  C1523   1.399   .     A
C1522  C1524   1.399   .     A
C1522  C1532   1.383   .     A
C1522  H1536   1.085   .     S
C1523  C1525   1.399   .     A
C1524  C1526   1.399   .     A
C1525  H1537   1.085   .     S
C1525  C1527   1.383   .     A
C1526  H1538   1.085   .     S
C1526  C1528   1.383   .     A
C1527  C1533   1.400   .     A
C1527  C1529   1.411   .     A
C1528  C1530   1.411   .     A
C1528  C1534   1.400   .     A
C1529  C1531   1.411   .     A
C1529  C684    1.391   1_556 S
C1530  C1532   1.411   .     A
C1533  H1539   1.084   .     S
C1533  C661    1.389   1_556 S
C1534  H1540   1.084   .     S
N1547  Zn1557  1.999   .     S
N1548  Zn1558  1.999   .     S
O1549  Zn1557  2.029   .     S
O1550  Zn1558  2.029   .     S
O1551  Zn1557  2.029   .     S
O1552  Zn1558  2.029   .     S
O1553  Zn1557  2.018   .     S
O1554  Zn1558  2.018   .     S
O1555  Zn1557  2.019   .     S
O1556  Zn1558  2.019   .     S
C1559  C1560   1.538   .     S
C1559  H1567   1.105   .     S
C1559  H1568   1.104   .     S
C1560  C1561   1.527   .     S
C1560  H1566   1.110   .     S
C1560  H1565   1.112   .     S
C1561  H1563   1.111   .     S
C1561  H1564   1.111   .     S
C1561  H1562   1.109   .     S
C1569  H1577   1.107   .     S
C1569  H1578   1.105   .     S
C1569  C1570   1.547   .     S
C1570  H1576   1.108   .     S
C1570  C1571   1.520   .     S
C1570  H1575   1.111   .     S
C1571  H1572   1.106   .     S
C1571  H1009   1.103   1_565 S
C1571  H1010   1.110   1_565 S
C1579  H1587   1.105   .     S
C1579  H1588   1.104   .     S
C1579  C1580   1.538   .     S
C1580  C1581   1.527   .     S
C1580  H1586   1.110   .     S
C1580  H1585   1.112   .     S
C1581  H1583   1.111   .     S
C1581  H1582   1.109   .     S
C1581  H1584   1.111   .     S
C1589  C1590   1.547   .     S
C1589  H1597   1.107   .     S
C1589  H1598   1.105   .     S
C1590  H1595   1.111   .     S
C1590  C1591   1.520   .     S
C1590  H1596   1.108   .     S
C1591  H1592   1.106   .     S
C1591  H1029   1.103   1_565 S
C1591  H1030   1.110   1_565 S
C1599  C1608   1.456   .     S
C1599  O1646   1.303   .     A
C1599  O1643   1.271   .     A
C1600  O1644   1.303   .     A
C1600  O1645   1.270   .     A
C1600  C1607   1.455   .     S
C1601  C1626   1.400   .     A
C1601  H1635   1.084   .     S
C1602  C1625   1.400   .     A
C1602  H1636   1.084   .     S
C1602  C782    1.389   1_556 S
C1603  C1653   1.529   .     S
C1603  C1608   1.408   .     A
C1604  C1607   1.437   .     A
C1604  C1663   1.546   .     S
C1604  C1418   1.409   1_655 S
C1605  C1607   1.407   .     A
C1605  C1673   1.529   .     S
C1605  C1415   1.387   1_655 S
C1606  C1683   1.546   .     S
C1606  C1608   1.438   .     A
C1609  N1642   1.365   .     A
C1609  H1637   1.080   .     S
C1610  N1641   1.365   .     A
C1610  H1638   1.080   .     S
C1610  C1047   1.411   1_565 S
C1611  H1639   1.080   .     S
C1611  N1642   1.365   .     A
C1612  H1640   1.080   .     S
C1612  N1641   1.365   .     A
C1612  C1045   1.411   1_565 S
C1613  O1647   1.284   .     A
C1613  C1618   1.439   .     S
C1613  O1650   1.284   .     A
C1614  O1649   1.284   .     A
C1614  C1617   1.438   .     S
C1614  O1648   1.284   .     A
C1615  C1625   1.383   .     A
C1615  H1629   1.085   .     S
C1615  C1617   1.399   .     A
C1616  C1618   1.399   .     A
C1616  C1626   1.383   .     A
C1616  H1630   1.085   .     S
C1617  C1619   1.399   .     A
C1618  C1620   1.399   .     A
C1619  H1631   1.085   .     S
C1619  C1621   1.383   .     A
C1620  H1632   1.085   .     S
C1620  C1622   1.383   .     A
C1621  C1627   1.400   .     A
C1621  C1623   1.411   .     A
C1622  C1624   1.411   .     A
C1622  C1628   1.400   .     A
C1623  C1625   1.411   .     A
C1623  C778    1.391   1_556 S
C1624  C1626   1.411   .     A
C1627  H1633   1.084   .     S
C1627  C755    1.389   1_556 S
C1628  H1634   1.084   .     S
N1641  Zn1651  1.999   .     S
N1642  Zn1652  1.999   .     S
O1643  Zn1651  2.029   .     S
O1644  Zn1652  2.029   .     S
O1645  Zn1651  2.029   .     S
O1646  Zn1652  2.029   .     S
O1647  Zn1651  2.018   .     S
O1648  Zn1652  2.018   .     S
O1649  Zn1651  2.019   .     S
O1650  Zn1652  2.019   .     S
C1653  C1654   1.538   .     S
C1653  H1661   1.105   .     S
C1653  H1662   1.104   .     S
C1654  C1655   1.527   .     S
C1654  H1660   1.110   .     S
C1654  H1659   1.112   .     S
C1655  H1657   1.111   .     S
C1655  H1658   1.111   .     S
C1655  H1656   1.109   .     S
C1663  H1671   1.107   .     S
C1663  H1672   1.105   .     S
C1663  C1664   1.547   .     S
C1664  H1670   1.108   .     S
C1664  C1665   1.520   .     S
C1664  H1669   1.111   .     S
C1665  H1666   1.106   .     S
C1665  H1103   1.103   1_565 S
C1665  H1104   1.110   1_565 S
C1673  H1681   1.105   .     S
C1673  H1682   1.104   .     S
C1673  C1674   1.538   .     S
C1674  C1675   1.527   .     S
C1674  H1680   1.110   .     S
C1674  H1679   1.112   .     S
C1675  H1677   1.111   .     S
C1675  H1676   1.109   .     S
C1675  H1678   1.111   .     S
C1683  C1684   1.547   .     S
C1683  H1691   1.107   .     S
C1683  H1692   1.105   .     S
C1684  H1689   1.111   .     S
C1684  C1685   1.520   .     S
C1684  H1690   1.108   .     S
C1685  H1686   1.106   .     S
C1685  H1123   1.103   1_565 S
C1685  H1124   1.110   1_565 S
