data_str_m3_o1_o16_pcu_sym.209
_audit_creation_date              2020-01-03
_audit_creation_method            'Materials Studio'
_symmetry_space_group_name_H-M    'P1'
_symmetry_Int_Tables_number       1
_symmetry_cell_setting            triclinic
loop_
_symmetry_equiv_pos_as_xyz
  x,y,z
_cell_length_a                    29.7218
_cell_length_b                    31.9148
_cell_length_c                    26.1620
_cell_angle_alpha                 90.4684
_cell_angle_beta                  70.8988
_cell_angle_gamma                 90.8203
loop_
_atom_site_label
_atom_site_type_symbol
_atom_site_fract_x
_atom_site_fract_y
_atom_site_fract_z
_atom_site_U_iso_or_equiv
_atom_site_adp_type
_atom_site_occupancy
C1     C     0.16683   0.24653   0.25036   0.00000  Uiso   1.00
C2     C     0.14663   0.14289   0.49037   0.00000  Uiso   1.00
C3     C     0.15963   0.13828   0.43362   0.00000  Uiso   1.00
C4     C     0.18401   0.14476   0.01285   0.00000  Uiso   1.00
C5     C     0.23177   0.14848   0.47877   0.00000  Uiso   1.00
C6     C     0.24348   0.13651   0.42494   0.00000  Uiso   1.00
C7     C     0.20723   0.12773   0.40392   0.00000  Uiso   1.00
C8     C     0.17576   0.14439   0.06794   0.00000  Uiso   1.00
C9     C     0.25389   0.17562   0.05413   0.00000  Uiso   1.00
C10    C     0.12565   0.14749   0.40800   0.00000  Uiso   1.00
C11    C     0.20519   0.31223   0.21637   0.00000  Uiso   1.00
C12    C     0.14083   0.16067   0.35107   0.00000  Uiso   1.00
C13    C     0.20372   0.02176   0.21420   0.00000  Uiso   1.00
C14    C     0.16525   0.04257   0.25159   0.00000  Uiso   1.00
C15    C     0.12698   0.02065   0.28885   0.00000  Uiso   1.00
C16    C     0.12773   0.31077   0.28704   0.00000  Uiso   1.00
C17    C     0.16679   0.29058   0.25144   0.00000  Uiso   1.00
C18    C     0.31778   0.13858   0.21925   0.00000  Uiso   1.00
C19    C     0.03229   0.13869   0.21914   0.00000  Uiso   1.00
C20    C     0.01622   0.19461   0.28059   0.00000  Uiso   1.00
C21    C     0.30187   0.19532   0.28060   0.00000  Uiso   1.00
C22    C     0.16600   0.08681   0.25124   0.00000  Uiso   1.00
C23    C     0.19300   0.16656   0.14793   0.00000  Uiso   1.00
C24    C     0.26645   0.16456   0.49927   0.00000  Uiso   1.00
C25    C     0.20884   0.16217   0.08929   0.00000  Uiso   1.00
C26    C     0.07730   0.14749   0.43858   0.00000  Uiso   1.00
C27    C     0.06356   0.14662   0.49459   0.00000  Uiso   1.00
C28    C     0.09781   0.15026   0.02055   0.00000  Uiso   1.00
H29    H     0.09874   0.29280   0.31462   0.00000  Uiso   1.00
H30    H     0.30658   0.11610   0.19453   0.00000  Uiso   1.00
H31    H     0.05704   0.11628   0.19428   0.00000  Uiso   1.00
H32    H     0.02838   0.21677   0.30494   0.00000  Uiso   1.00
H33    H     0.28031   0.13428   0.39920   0.00000  Uiso   1.00
H34    H     0.30192   0.17129   0.47187   0.00000  Uiso   1.00
H35    H     0.14313   0.13087   0.09470   0.00000  Uiso   1.00
H36    H     0.05029   0.15060   0.41941   0.00000  Uiso   1.00
H37    H     0.02624   0.14745   0.01803   0.00000  Uiso   1.00
H38    H     0.21730   0.11523   0.36326   0.00000  Uiso   1.00
H39    H     0.23547   0.29589   0.18948   0.00000  Uiso   1.00
N40    N     0.04760   0.16668   0.25001   0.00000  Uiso   1.00
N41    N     0.28573   0.16665   0.25001   0.00000  Uiso   1.00
O42    O     0.12846   0.22775   0.25001   0.00000  Uiso   1.00
O43    O     0.20490   0.22774   0.25001   0.00000  Uiso   1.00
O44    O     0.10947   0.16666   0.32681   0.00000  Uiso   1.00
O45    O     0.18591   0.16665   0.32681   0.00000  Uiso   1.00
O46    O     0.12843   0.10559   0.25000   0.00000  Uiso   1.00
O47    O     0.20488   0.10558   0.25000   0.00000  Uiso   1.00
O48    O     0.14742   0.16668   0.17319   0.00000  Uiso   1.00
O49    O     0.22387   0.16667   0.17319   0.00000  Uiso   1.00
Zn50   Zn    0.11562   0.16667   0.25000   0.00000  Uiso   1.00
Zn51   Zn    0.21771   0.16666   0.25000   0.00000  Uiso   1.00
C52    C     0.28747   0.20330   0.07238   0.00000  Uiso   1.00
C53    C     0.26615   0.24628   0.09057   0.00000  Uiso   1.00
H54    H     0.23263   0.24367   0.12515   0.00000  Uiso   1.00
H55    H     0.29196   0.26586   0.10308   0.00000  Uiso   1.00
H56    H     0.25859   0.26209   0.05662   0.00000  Uiso   1.00
H57    H     0.29767   0.18797   0.10477   0.00000  Uiso   1.00
H58    H     0.32067   0.20908   0.03820   0.00000  Uiso   1.00
O59    O     0.24175   0.04305   0.17804   0.00000  Uiso   1.00
C60    C     0.22926   0.05680   0.13315   0.00000  Uiso   1.00
H61    H     0.25204   0.08454   0.11600   0.00000  Uiso   1.00
H62    H     0.19164   0.06732   0.14421   0.00000  Uiso   1.00
C63    C     0.23891   0.02274   0.08943   0.00000  Uiso   1.00
H64    H     0.27633   0.01220   0.07903   0.00000  Uiso   1.00
H65    H     0.21475   0.32884   0.10498   0.00000  Uiso   1.00
C66    C     0.23073   0.03888   0.03847   0.00000  Uiso   1.00
H67    H     0.19333   0.04915   0.04784   0.00000  Uiso   1.00
H68    H     0.23768   0.01344   0.00776   0.00000  Uiso   1.00
H69    H     0.25523   0.06560   0.02128   0.00000  Uiso   1.00
C70    C     0.08671   0.04166   0.33259   0.00000  Uiso   1.00
C71    C     0.04161   0.04310   0.31689   0.00000  Uiso   1.00
H72    H     0.01326   0.05967   0.34886   0.00000  Uiso   1.00
H73    H     0.04850   0.06002   0.27812   0.00000  Uiso   1.00
H74    H     0.02882   0.01084   0.31255   0.00000  Uiso   1.00
H75    H     0.07888   0.02402   0.37107   0.00000  Uiso   1.00
H76    H     0.09658   0.07382   0.34174   0.00000  Uiso   1.00
C77    C     0.27124   0.22923   0.31481   0.00000  Uiso   1.00
C78    C     0.28527   0.27223   0.28870   0.00000  Uiso   1.00
H79    H     0.28409   0.27191   0.24673   0.00000  Uiso   1.00
H80    H     0.26021   0.29622   0.31250   0.00000  Uiso   1.00
H81    H     0.32182   0.28112   0.28759   0.00000  Uiso   1.00
H82    H     0.23320   0.22410   0.32272   0.00000  Uiso   1.00
H83    H     0.27571   0.22959   0.35539   0.00000  Uiso   1.00
O84    O     0.08314   0.16263   0.07436   0.00000  Uiso   1.00
C85    C     0.07201   0.20595   0.07904   0.00000  Uiso   1.00
H86    H     0.04098   0.21024   0.11635   0.00000  Uiso   1.00
H87    H     0.06163   0.21844   0.04490   0.00000  Uiso   1.00
C88    C     0.11375   0.23226   0.08441   0.00000  Uiso   1.00
H89    H     0.12271   0.22171   0.12008   0.00000  Uiso   1.00
H90    H     0.14537   0.22828   0.04765   0.00000  Uiso   1.00
C91    C     0.10153   0.27869   0.09161   0.00000  Uiso   1.00
H92    H     0.09319   0.29057   0.05598   0.00000  Uiso   1.00
H93    H     0.13242   0.29676   0.09565   0.00000  Uiso   1.00
H94    H     0.07045   0.28364   0.12869   0.00000  Uiso   1.00
C95    C     0.50016   0.24653   0.25036   0.00000  Uiso   1.00
C96    C     0.47997   0.14289   0.49037   0.00000  Uiso   1.00
C97    C     0.49296   0.13828   0.43362   0.00000  Uiso   1.00
C98    C     0.51734   0.14476   0.01285   0.00000  Uiso   1.00
C99    C     0.56511   0.14848   0.47877   0.00000  Uiso   1.00
C100   C     0.57682   0.13651   0.42494   0.00000  Uiso   1.00
C101   C     0.54056   0.12773   0.40392   0.00000  Uiso   1.00
C102   C     0.50909   0.14439   0.06794   0.00000  Uiso   1.00
C103   C     0.58722   0.17562   0.05413   0.00000  Uiso   1.00
C104   C     0.45899   0.14749   0.40800   0.00000  Uiso   1.00
C105   C     0.53852   0.31223   0.21637   0.00000  Uiso   1.00
C106   C     0.47416   0.16067   0.35107   0.00000  Uiso   1.00
C107   C     0.53705   0.02176   0.21420   0.00000  Uiso   1.00
C108   C     0.49858   0.04257   0.25159   0.00000  Uiso   1.00
C109   C     0.46031   0.02065   0.28885   0.00000  Uiso   1.00
C110   C     0.46106   0.31077   0.28704   0.00000  Uiso   1.00
C111   C     0.50013   0.29058   0.25144   0.00000  Uiso   1.00
C112   C     0.65111   0.13858   0.21925   0.00000  Uiso   1.00
C113   C     0.36562   0.13869   0.21914   0.00000  Uiso   1.00
C114   C     0.34956   0.19461   0.28059   0.00000  Uiso   1.00
C115   C     0.63521   0.19532   0.28060   0.00000  Uiso   1.00
C116   C     0.49933   0.08681   0.25124   0.00000  Uiso   1.00
C117   C     0.52633   0.16656   0.14793   0.00000  Uiso   1.00
C118   C     0.59979   0.16456   0.49927   0.00000  Uiso   1.00
C119   C     0.54217   0.16217   0.08929   0.00000  Uiso   1.00
C120   C     0.41063   0.14749   0.43858   0.00000  Uiso   1.00
C121   C     0.39689   0.14662   0.49459   0.00000  Uiso   1.00
C122   C     0.43114   0.15026   0.02055   0.00000  Uiso   1.00
H123   H     0.43207   0.29280   0.31462   0.00000  Uiso   1.00
H124   H     0.63991   0.11610   0.19453   0.00000  Uiso   1.00
H125   H     0.39037   0.11628   0.19428   0.00000  Uiso   1.00
H126   H     0.36172   0.21677   0.30494   0.00000  Uiso   1.00
H127   H     0.61364   0.13428   0.39920   0.00000  Uiso   1.00
H128   H     0.63525   0.17129   0.47187   0.00000  Uiso   1.00
H129   H     0.47646   0.13087   0.09470   0.00000  Uiso   1.00
H130   H     0.38363   0.15060   0.41941   0.00000  Uiso   1.00
H131   H     0.35957   0.14745   0.01803   0.00000  Uiso   1.00
H132   H     0.55063   0.11523   0.36326   0.00000  Uiso   1.00
H133   H     0.56880   0.29589   0.18948   0.00000  Uiso   1.00
N134   N     0.38093   0.16668   0.25001   0.00000  Uiso   1.00
N135   N     0.61906   0.16665   0.25001   0.00000  Uiso   1.00
O136   O     0.46179   0.22775   0.25001   0.00000  Uiso   1.00
O137   O     0.53823   0.22774   0.25001   0.00000  Uiso   1.00
O138   O     0.44280   0.16666   0.32681   0.00000  Uiso   1.00
O139   O     0.51924   0.16665   0.32681   0.00000  Uiso   1.00
O140   O     0.46177   0.10559   0.25000   0.00000  Uiso   1.00
O141   O     0.53821   0.10558   0.25000   0.00000  Uiso   1.00
O142   O     0.48076   0.16668   0.17319   0.00000  Uiso   1.00
O143   O     0.55720   0.16667   0.17319   0.00000  Uiso   1.00
Zn144  Zn    0.44896   0.16667   0.25000   0.00000  Uiso   1.00
Zn145  Zn    0.55104   0.16666   0.25000   0.00000  Uiso   1.00
C146   C     0.62081   0.20330   0.07238   0.00000  Uiso   1.00
C147   C     0.59948   0.24628   0.09057   0.00000  Uiso   1.00
H148   H     0.56596   0.24367   0.12515   0.00000  Uiso   1.00
H149   H     0.62529   0.26586   0.10308   0.00000  Uiso   1.00
H150   H     0.59193   0.26209   0.05662   0.00000  Uiso   1.00
H151   H     0.63101   0.18797   0.10477   0.00000  Uiso   1.00
H152   H     0.65400   0.20908   0.03820   0.00000  Uiso   1.00
O153   O     0.57508   0.04305   0.17804   0.00000  Uiso   1.00
C154   C     0.56259   0.05680   0.13315   0.00000  Uiso   1.00
H155   H     0.58538   0.08454   0.11600   0.00000  Uiso   1.00
H156   H     0.52497   0.06732   0.14421   0.00000  Uiso   1.00
C157   C     0.57224   0.02274   0.08943   0.00000  Uiso   1.00
H158   H     0.60966   0.01220   0.07903   0.00000  Uiso   1.00
H159   H     0.54809   0.32884   0.10498   0.00000  Uiso   1.00
C160   C     0.56407   0.03888   0.03847   0.00000  Uiso   1.00
H161   H     0.52666   0.04915   0.04784   0.00000  Uiso   1.00
H162   H     0.57102   0.01344   0.00776   0.00000  Uiso   1.00
H163   H     0.58856   0.06560   0.02128   0.00000  Uiso   1.00
C164   C     0.42004   0.04166   0.33259   0.00000  Uiso   1.00
C165   C     0.37494   0.04310   0.31689   0.00000  Uiso   1.00
H166   H     0.34659   0.05967   0.34886   0.00000  Uiso   1.00
H167   H     0.38183   0.06002   0.27812   0.00000  Uiso   1.00
H168   H     0.36215   0.01084   0.31255   0.00000  Uiso   1.00
H169   H     0.41222   0.02402   0.37107   0.00000  Uiso   1.00
H170   H     0.42992   0.07382   0.34174   0.00000  Uiso   1.00
C171   C     0.60457   0.22923   0.31481   0.00000  Uiso   1.00
C172   C     0.61860   0.27223   0.28870   0.00000  Uiso   1.00
H173   H     0.61742   0.27191   0.24673   0.00000  Uiso   1.00
H174   H     0.59354   0.29622   0.31250   0.00000  Uiso   1.00
H175   H     0.65516   0.28112   0.28759   0.00000  Uiso   1.00
H176   H     0.56654   0.22410   0.32272   0.00000  Uiso   1.00
H177   H     0.60904   0.22959   0.35539   0.00000  Uiso   1.00
O178   O     0.41648   0.16263   0.07436   0.00000  Uiso   1.00
C179   C     0.40535   0.20595   0.07904   0.00000  Uiso   1.00
H180   H     0.37432   0.21024   0.11635   0.00000  Uiso   1.00
H181   H     0.39496   0.21844   0.04490   0.00000  Uiso   1.00
C182   C     0.44708   0.23226   0.08441   0.00000  Uiso   1.00
H183   H     0.45605   0.22171   0.12008   0.00000  Uiso   1.00
H184   H     0.47870   0.22828   0.04765   0.00000  Uiso   1.00
C185   C     0.43486   0.27869   0.09161   0.00000  Uiso   1.00
H186   H     0.42652   0.29057   0.05598   0.00000  Uiso   1.00
H187   H     0.46575   0.29676   0.09565   0.00000  Uiso   1.00
H188   H     0.40378   0.28364   0.12869   0.00000  Uiso   1.00
C189   C     0.83349   0.24653   0.25036   0.00000  Uiso   1.00
C190   C     0.81330   0.14289   0.49037   0.00000  Uiso   1.00
C191   C     0.82630   0.13828   0.43362   0.00000  Uiso   1.00
C192   C     0.85067   0.14476   0.01285   0.00000  Uiso   1.00
C193   C     0.89844   0.14848   0.47877   0.00000  Uiso   1.00
C194   C     0.91015   0.13651   0.42494   0.00000  Uiso   1.00
C195   C     0.87389   0.12773   0.40392   0.00000  Uiso   1.00
C196   C     0.84243   0.14439   0.06794   0.00000  Uiso   1.00
C197   C     0.92055   0.17562   0.05413   0.00000  Uiso   1.00
C198   C     0.79232   0.14749   0.40800   0.00000  Uiso   1.00
C199   C     0.87186   0.31223   0.21637   0.00000  Uiso   1.00
C200   C     0.80749   0.16067   0.35107   0.00000  Uiso   1.00
C201   C     0.87039   0.02176   0.21420   0.00000  Uiso   1.00
C202   C     0.83192   0.04257   0.25159   0.00000  Uiso   1.00
C203   C     0.79365   0.02065   0.28885   0.00000  Uiso   1.00
C204   C     0.79440   0.31077   0.28704   0.00000  Uiso   1.00
C205   C     0.83346   0.29058   0.25144   0.00000  Uiso   1.00
C206   C     0.98445   0.13858   0.21925   0.00000  Uiso   1.00
C207   C     0.69895   0.13869   0.21914   0.00000  Uiso   1.00
C208   C     0.68289   0.19461   0.28059   0.00000  Uiso   1.00
C209   C     0.96854   0.19532   0.28060   0.00000  Uiso   1.00
C210   C     0.83266   0.08681   0.25124   0.00000  Uiso   1.00
C211   C     0.85967   0.16656   0.14793   0.00000  Uiso   1.00
C212   C     0.93312   0.16456   0.49927   0.00000  Uiso   1.00
C213   C     0.87550   0.16217   0.08929   0.00000  Uiso   1.00
C214   C     0.74397   0.14749   0.43858   0.00000  Uiso   1.00
C215   C     0.73022   0.14662   0.49459   0.00000  Uiso   1.00
C216   C     0.76448   0.15026   0.02055   0.00000  Uiso   1.00
H217   H     0.76540   0.29280   0.31462   0.00000  Uiso   1.00
H218   H     0.97324   0.11610   0.19453   0.00000  Uiso   1.00
H219   H     0.72371   0.11628   0.19428   0.00000  Uiso   1.00
H220   H     0.69505   0.21677   0.30494   0.00000  Uiso   1.00
H221   H     0.94697   0.13428   0.39920   0.00000  Uiso   1.00
H222   H     0.96858   0.17129   0.47187   0.00000  Uiso   1.00
H223   H     0.80980   0.13087   0.09470   0.00000  Uiso   1.00
H224   H     0.71696   0.15060   0.41941   0.00000  Uiso   1.00
H225   H     0.69291   0.14745   0.01803   0.00000  Uiso   1.00
H226   H     0.88397   0.11523   0.36326   0.00000  Uiso   1.00
H227   H     0.90213   0.29589   0.18948   0.00000  Uiso   1.00
N228   N     0.71426   0.16668   0.25001   0.00000  Uiso   1.00
N229   N     0.95239   0.16665   0.25001   0.00000  Uiso   1.00
O230   O     0.79512   0.22775   0.25001   0.00000  Uiso   1.00
O231   O     0.87157   0.22774   0.25001   0.00000  Uiso   1.00
O232   O     0.77613   0.16666   0.32681   0.00000  Uiso   1.00
O233   O     0.85258   0.16665   0.32681   0.00000  Uiso   1.00
O234   O     0.79510   0.10559   0.25000   0.00000  Uiso   1.00
O235   O     0.87154   0.10558   0.25000   0.00000  Uiso   1.00
O236   O     0.81409   0.16668   0.17319   0.00000  Uiso   1.00
O237   O     0.89053   0.16667   0.17319   0.00000  Uiso   1.00
Zn238  Zn    0.78229   0.16667   0.25000   0.00000  Uiso   1.00
Zn239  Zn    0.88438   0.16666   0.25000   0.00000  Uiso   1.00
C240   C     0.95414   0.20330   0.07238   0.00000  Uiso   1.00
C241   C     0.93282   0.24628   0.09057   0.00000  Uiso   1.00
H242   H     0.89930   0.24367   0.12515   0.00000  Uiso   1.00
H243   H     0.95863   0.26586   0.10308   0.00000  Uiso   1.00
H244   H     0.92526   0.26209   0.05662   0.00000  Uiso   1.00
H245   H     0.96434   0.18797   0.10477   0.00000  Uiso   1.00
H246   H     0.98733   0.20908   0.03820   0.00000  Uiso   1.00
O247   O     0.90842   0.04305   0.17804   0.00000  Uiso   1.00
C248   C     0.89593   0.05680   0.13315   0.00000  Uiso   1.00
H249   H     0.91871   0.08454   0.11600   0.00000  Uiso   1.00
H250   H     0.85830   0.06732   0.14421   0.00000  Uiso   1.00
C251   C     0.90558   0.02274   0.08943   0.00000  Uiso   1.00
H252   H     0.94300   0.01220   0.07903   0.00000  Uiso   1.00
H253   H     0.88142   0.32884   0.10498   0.00000  Uiso   1.00
C254   C     0.89740   0.03888   0.03847   0.00000  Uiso   1.00
H255   H     0.85999   0.04915   0.04784   0.00000  Uiso   1.00
H256   H     0.90435   0.01344   0.00776   0.00000  Uiso   1.00
H257   H     0.92189   0.06560   0.02128   0.00000  Uiso   1.00
C258   C     0.75338   0.04166   0.33259   0.00000  Uiso   1.00
C259   C     0.70828   0.04310   0.31689   0.00000  Uiso   1.00
H260   H     0.67993   0.05967   0.34886   0.00000  Uiso   1.00
H261   H     0.71516   0.06002   0.27812   0.00000  Uiso   1.00
H262   H     0.69549   0.01084   0.31255   0.00000  Uiso   1.00
H263   H     0.74555   0.02402   0.37107   0.00000  Uiso   1.00
H264   H     0.76325   0.07382   0.34174   0.00000  Uiso   1.00
C265   C     0.93790   0.22923   0.31481   0.00000  Uiso   1.00
C266   C     0.95194   0.27223   0.28870   0.00000  Uiso   1.00
H267   H     0.95076   0.27191   0.24673   0.00000  Uiso   1.00
H268   H     0.92687   0.29622   0.31250   0.00000  Uiso   1.00
H269   H     0.98849   0.28112   0.28759   0.00000  Uiso   1.00
H270   H     0.89987   0.22410   0.32272   0.00000  Uiso   1.00
H271   H     0.94238   0.22959   0.35539   0.00000  Uiso   1.00
O272   O     0.74981   0.16263   0.07436   0.00000  Uiso   1.00
C273   C     0.73868   0.20595   0.07904   0.00000  Uiso   1.00
H274   H     0.70765   0.21024   0.11635   0.00000  Uiso   1.00
H275   H     0.72830   0.21844   0.04490   0.00000  Uiso   1.00
C276   C     0.78042   0.23226   0.08441   0.00000  Uiso   1.00
H277   H     0.78938   0.22171   0.12008   0.00000  Uiso   1.00
H278   H     0.81204   0.22828   0.04765   0.00000  Uiso   1.00
C279   C     0.76819   0.27869   0.09161   0.00000  Uiso   1.00
H280   H     0.75986   0.29057   0.05598   0.00000  Uiso   1.00
H281   H     0.79908   0.29676   0.09565   0.00000  Uiso   1.00
H282   H     0.73711   0.28364   0.12869   0.00000  Uiso   1.00
C283   C     0.16683   0.57986   0.25036   0.00000  Uiso   1.00
C284   C     0.14663   0.47623   0.49037   0.00000  Uiso   1.00
C285   C     0.15963   0.47162   0.43362   0.00000  Uiso   1.00
C286   C     0.18401   0.47809   0.01285   0.00000  Uiso   1.00
C287   C     0.23177   0.48181   0.47877   0.00000  Uiso   1.00
C288   C     0.24348   0.46984   0.42494   0.00000  Uiso   1.00
C289   C     0.20723   0.46106   0.40392   0.00000  Uiso   1.00
C290   C     0.17576   0.47773   0.06794   0.00000  Uiso   1.00
C291   C     0.25389   0.50896   0.05413   0.00000  Uiso   1.00
C292   C     0.12565   0.48083   0.40800   0.00000  Uiso   1.00
C293   C     0.20519   0.64556   0.21637   0.00000  Uiso   1.00
C294   C     0.14083   0.49401   0.35107   0.00000  Uiso   1.00
C295   C     0.20372   0.35510   0.21420   0.00000  Uiso   1.00
C296   C     0.16525   0.37591   0.25159   0.00000  Uiso   1.00
C297   C     0.12698   0.35398   0.28885   0.00000  Uiso   1.00
C298   C     0.12773   0.64411   0.28704   0.00000  Uiso   1.00
C299   C     0.16679   0.62392   0.25144   0.00000  Uiso   1.00
C300   C     0.31778   0.47191   0.21925   0.00000  Uiso   1.00
C301   C     0.03229   0.47203   0.21914   0.00000  Uiso   1.00
C302   C     0.01622   0.52794   0.28059   0.00000  Uiso   1.00
C303   C     0.30187   0.52865   0.28060   0.00000  Uiso   1.00
C304   C     0.16600   0.42015   0.25124   0.00000  Uiso   1.00
C305   C     0.19300   0.49989   0.14793   0.00000  Uiso   1.00
C306   C     0.26645   0.49789   0.49927   0.00000  Uiso   1.00
C307   C     0.20884   0.49550   0.08929   0.00000  Uiso   1.00
C308   C     0.07730   0.48082   0.43858   0.00000  Uiso   1.00
C309   C     0.06356   0.47996   0.49459   0.00000  Uiso   1.00
C310   C     0.09781   0.48359   0.02055   0.00000  Uiso   1.00
H311   H     0.09874   0.62613   0.31462   0.00000  Uiso   1.00
H312   H     0.30658   0.44943   0.19453   0.00000  Uiso   1.00
H313   H     0.05704   0.44961   0.19428   0.00000  Uiso   1.00
H314   H     0.02838   0.55010   0.30494   0.00000  Uiso   1.00
H315   H     0.28031   0.46761   0.39920   0.00000  Uiso   1.00
H316   H     0.30192   0.50463   0.47187   0.00000  Uiso   1.00
H317   H     0.14313   0.46421   0.09470   0.00000  Uiso   1.00
H318   H     0.05029   0.48393   0.41941   0.00000  Uiso   1.00
H319   H     0.02624   0.48079   0.01803   0.00000  Uiso   1.00
H320   H     0.21730   0.44857   0.36326   0.00000  Uiso   1.00
H321   H     0.23547   0.62922   0.18948   0.00000  Uiso   1.00
N322   N     0.04760   0.50001   0.25001   0.00000  Uiso   1.00
N323   N     0.28573   0.49998   0.25001   0.00000  Uiso   1.00
O324   O     0.12846   0.56108   0.25001   0.00000  Uiso   1.00
O325   O     0.20490   0.56107   0.25001   0.00000  Uiso   1.00
O326   O     0.10947   0.50000   0.32681   0.00000  Uiso   1.00
O327   O     0.18591   0.49999   0.32681   0.00000  Uiso   1.00
O328   O     0.12843   0.43893   0.25000   0.00000  Uiso   1.00
O329   O     0.20488   0.43892   0.25000   0.00000  Uiso   1.00
O330   O     0.14742   0.50001   0.17319   0.00000  Uiso   1.00
O331   O     0.22387   0.50000   0.17319   0.00000  Uiso   1.00
Zn332  Zn    0.11562   0.50001   0.25000   0.00000  Uiso   1.00
Zn333  Zn    0.21771   0.49999   0.25000   0.00000  Uiso   1.00
C334   C     0.28747   0.53663   0.07238   0.00000  Uiso   1.00
C335   C     0.26615   0.57961   0.09057   0.00000  Uiso   1.00
H336   H     0.23263   0.57700   0.12515   0.00000  Uiso   1.00
H337   H     0.29196   0.59919   0.10308   0.00000  Uiso   1.00
H338   H     0.25859   0.59542   0.05662   0.00000  Uiso   1.00
H339   H     0.29767   0.52130   0.10477   0.00000  Uiso   1.00
H340   H     0.32067   0.54242   0.03820   0.00000  Uiso   1.00
O341   O     0.24175   0.37638   0.17804   0.00000  Uiso   1.00
C342   C     0.22926   0.39013   0.13315   0.00000  Uiso   1.00
H343   H     0.25204   0.41787   0.11600   0.00000  Uiso   1.00
H344   H     0.19164   0.40066   0.14421   0.00000  Uiso   1.00
C345   C     0.23891   0.35607   0.08943   0.00000  Uiso   1.00
H346   H     0.27633   0.34554   0.07903   0.00000  Uiso   1.00
H347   H     0.21475   0.66217   0.10498   0.00000  Uiso   1.00
C348   C     0.23073   0.37221   0.03847   0.00000  Uiso   1.00
H349   H     0.19333   0.38248   0.04784   0.00000  Uiso   1.00
H350   H     0.23768   0.34677   0.00776   0.00000  Uiso   1.00
H351   H     0.25523   0.39894   0.02128   0.00000  Uiso   1.00
C352   C     0.08671   0.37499   0.33259   0.00000  Uiso   1.00
C353   C     0.04161   0.37643   0.31689   0.00000  Uiso   1.00
H354   H     0.01326   0.39300   0.34886   0.00000  Uiso   1.00
H355   H     0.04850   0.39335   0.27812   0.00000  Uiso   1.00
H356   H     0.02882   0.34418   0.31255   0.00000  Uiso   1.00
H357   H     0.07888   0.35736   0.37107   0.00000  Uiso   1.00
H358   H     0.09658   0.40715   0.34174   0.00000  Uiso   1.00
C359   C     0.27124   0.56257   0.31481   0.00000  Uiso   1.00
C360   C     0.28527   0.60556   0.28870   0.00000  Uiso   1.00
H361   H     0.28409   0.60525   0.24673   0.00000  Uiso   1.00
H362   H     0.26021   0.62955   0.31250   0.00000  Uiso   1.00
H363   H     0.32182   0.61446   0.28759   0.00000  Uiso   1.00
H364   H     0.23320   0.55744   0.32272   0.00000  Uiso   1.00
H365   H     0.27571   0.56293   0.35539   0.00000  Uiso   1.00
O366   O     0.08314   0.49597   0.07436   0.00000  Uiso   1.00
C367   C     0.07201   0.53929   0.07904   0.00000  Uiso   1.00
H368   H     0.04098   0.54357   0.11635   0.00000  Uiso   1.00
H369   H     0.06163   0.55178   0.04490   0.00000  Uiso   1.00
C370   C     0.11375   0.56560   0.08441   0.00000  Uiso   1.00
H371   H     0.12271   0.55504   0.12008   0.00000  Uiso   1.00
H372   H     0.14537   0.56162   0.04765   0.00000  Uiso   1.00
C373   C     0.10153   0.61202   0.09161   0.00000  Uiso   1.00
H374   H     0.09319   0.62390   0.05598   0.00000  Uiso   1.00
H375   H     0.13242   0.63009   0.09565   0.00000  Uiso   1.00
H376   H     0.07045   0.61698   0.12869   0.00000  Uiso   1.00
C377   C     0.50016   0.57986   0.25036   0.00000  Uiso   1.00
C378   C     0.47997   0.47623   0.49037   0.00000  Uiso   1.00
C379   C     0.49296   0.47162   0.43362   0.00000  Uiso   1.00
C380   C     0.51734   0.47809   0.01285   0.00000  Uiso   1.00
C381   C     0.56511   0.48181   0.47877   0.00000  Uiso   1.00
C382   C     0.57682   0.46984   0.42494   0.00000  Uiso   1.00
C383   C     0.54056   0.46106   0.40392   0.00000  Uiso   1.00
C384   C     0.50909   0.47773   0.06794   0.00000  Uiso   1.00
C385   C     0.58722   0.50896   0.05413   0.00000  Uiso   1.00
C386   C     0.45899   0.48083   0.40800   0.00000  Uiso   1.00
C387   C     0.53852   0.64556   0.21637   0.00000  Uiso   1.00
C388   C     0.47416   0.49401   0.35107   0.00000  Uiso   1.00
C389   C     0.53705   0.35510   0.21420   0.00000  Uiso   1.00
C390   C     0.49858   0.37591   0.25159   0.00000  Uiso   1.00
C391   C     0.46031   0.35398   0.28885   0.00000  Uiso   1.00
C392   C     0.46106   0.64411   0.28704   0.00000  Uiso   1.00
C393   C     0.50013   0.62392   0.25144   0.00000  Uiso   1.00
C394   C     0.65111   0.47191   0.21925   0.00000  Uiso   1.00
C395   C     0.36562   0.47203   0.21914   0.00000  Uiso   1.00
C396   C     0.34956   0.52794   0.28059   0.00000  Uiso   1.00
C397   C     0.63521   0.52865   0.28060   0.00000  Uiso   1.00
C398   C     0.49933   0.42015   0.25124   0.00000  Uiso   1.00
C399   C     0.52633   0.49989   0.14793   0.00000  Uiso   1.00
C400   C     0.59979   0.49789   0.49927   0.00000  Uiso   1.00
C401   C     0.54217   0.49550   0.08929   0.00000  Uiso   1.00
C402   C     0.41063   0.48082   0.43858   0.00000  Uiso   1.00
C403   C     0.39689   0.47996   0.49459   0.00000  Uiso   1.00
C404   C     0.43114   0.48359   0.02055   0.00000  Uiso   1.00
H405   H     0.43207   0.62613   0.31462   0.00000  Uiso   1.00
H406   H     0.63991   0.44943   0.19453   0.00000  Uiso   1.00
H407   H     0.39037   0.44961   0.19428   0.00000  Uiso   1.00
H408   H     0.36172   0.55010   0.30494   0.00000  Uiso   1.00
H409   H     0.61364   0.46761   0.39920   0.00000  Uiso   1.00
H410   H     0.63525   0.50463   0.47187   0.00000  Uiso   1.00
H411   H     0.47646   0.46421   0.09470   0.00000  Uiso   1.00
H412   H     0.38363   0.48393   0.41941   0.00000  Uiso   1.00
H413   H     0.35957   0.48079   0.01803   0.00000  Uiso   1.00
H414   H     0.55063   0.44857   0.36326   0.00000  Uiso   1.00
H415   H     0.56880   0.62922   0.18948   0.00000  Uiso   1.00
N416   N     0.38093   0.50001   0.25001   0.00000  Uiso   1.00
N417   N     0.61906   0.49998   0.25001   0.00000  Uiso   1.00
O418   O     0.46179   0.56108   0.25001   0.00000  Uiso   1.00
O419   O     0.53823   0.56107   0.25001   0.00000  Uiso   1.00
O420   O     0.44280   0.50000   0.32681   0.00000  Uiso   1.00
O421   O     0.51924   0.49999   0.32681   0.00000  Uiso   1.00
O422   O     0.46177   0.43893   0.25000   0.00000  Uiso   1.00
O423   O     0.53821   0.43892   0.25000   0.00000  Uiso   1.00
O424   O     0.48076   0.50001   0.17319   0.00000  Uiso   1.00
O425   O     0.55720   0.50000   0.17319   0.00000  Uiso   1.00
Zn426  Zn    0.44896   0.50001   0.25000   0.00000  Uiso   1.00
Zn427  Zn    0.55104   0.49999   0.25000   0.00000  Uiso   1.00
C428   C     0.62081   0.53663   0.07238   0.00000  Uiso   1.00
C429   C     0.59948   0.57961   0.09057   0.00000  Uiso   1.00
H430   H     0.56596   0.57700   0.12515   0.00000  Uiso   1.00
H431   H     0.62529   0.59919   0.10308   0.00000  Uiso   1.00
H432   H     0.59193   0.59542   0.05662   0.00000  Uiso   1.00
H433   H     0.63101   0.52130   0.10477   0.00000  Uiso   1.00
H434   H     0.65400   0.54242   0.03820   0.00000  Uiso   1.00
O435   O     0.57508   0.37638   0.17804   0.00000  Uiso   1.00
C436   C     0.56259   0.39013   0.13315   0.00000  Uiso   1.00
H437   H     0.58538   0.41787   0.11600   0.00000  Uiso   1.00
H438   H     0.52497   0.40066   0.14421   0.00000  Uiso   1.00
C439   C     0.57224   0.35607   0.08943   0.00000  Uiso   1.00
H440   H     0.60966   0.34554   0.07903   0.00000  Uiso   1.00
H441   H     0.54809   0.66217   0.10498   0.00000  Uiso   1.00
C442   C     0.56407   0.37221   0.03847   0.00000  Uiso   1.00
H443   H     0.52666   0.38248   0.04784   0.00000  Uiso   1.00
H444   H     0.57102   0.34677   0.00776   0.00000  Uiso   1.00
H445   H     0.58856   0.39894   0.02128   0.00000  Uiso   1.00
C446   C     0.42004   0.37499   0.33259   0.00000  Uiso   1.00
C447   C     0.37494   0.37643   0.31689   0.00000  Uiso   1.00
H448   H     0.34659   0.39300   0.34886   0.00000  Uiso   1.00
H449   H     0.38183   0.39335   0.27812   0.00000  Uiso   1.00
H450   H     0.36215   0.34418   0.31255   0.00000  Uiso   1.00
H451   H     0.41222   0.35736   0.37107   0.00000  Uiso   1.00
H452   H     0.42992   0.40715   0.34174   0.00000  Uiso   1.00
C453   C     0.60457   0.56257   0.31481   0.00000  Uiso   1.00
C454   C     0.61860   0.60556   0.28870   0.00000  Uiso   1.00
H455   H     0.61742   0.60525   0.24673   0.00000  Uiso   1.00
H456   H     0.59354   0.62955   0.31250   0.00000  Uiso   1.00
H457   H     0.65516   0.61446   0.28759   0.00000  Uiso   1.00
H458   H     0.56654   0.55744   0.32272   0.00000  Uiso   1.00
H459   H     0.60904   0.56293   0.35539   0.00000  Uiso   1.00
O460   O     0.41648   0.49597   0.07436   0.00000  Uiso   1.00
C461   C     0.40535   0.53929   0.07904   0.00000  Uiso   1.00
H462   H     0.37432   0.54357   0.11635   0.00000  Uiso   1.00
H463   H     0.39496   0.55178   0.04490   0.00000  Uiso   1.00
C464   C     0.44708   0.56560   0.08441   0.00000  Uiso   1.00
H465   H     0.45605   0.55504   0.12008   0.00000  Uiso   1.00
H466   H     0.47870   0.56162   0.04765   0.00000  Uiso   1.00
C467   C     0.43486   0.61202   0.09161   0.00000  Uiso   1.00
H468   H     0.42652   0.62390   0.05598   0.00000  Uiso   1.00
H469   H     0.46575   0.63009   0.09565   0.00000  Uiso   1.00
H470   H     0.40378   0.61698   0.12869   0.00000  Uiso   1.00
C471   C     0.83349   0.57986   0.25036   0.00000  Uiso   1.00
C472   C     0.81330   0.47623   0.49037   0.00000  Uiso   1.00
C473   C     0.82630   0.47162   0.43362   0.00000  Uiso   1.00
C474   C     0.85067   0.47809   0.01285   0.00000  Uiso   1.00
C475   C     0.89844   0.48181   0.47877   0.00000  Uiso   1.00
C476   C     0.91015   0.46984   0.42494   0.00000  Uiso   1.00
C477   C     0.87389   0.46106   0.40392   0.00000  Uiso   1.00
C478   C     0.84243   0.47773   0.06794   0.00000  Uiso   1.00
C479   C     0.92055   0.50896   0.05413   0.00000  Uiso   1.00
C480   C     0.79232   0.48083   0.40800   0.00000  Uiso   1.00
C481   C     0.87186   0.64556   0.21637   0.00000  Uiso   1.00
C482   C     0.80749   0.49401   0.35107   0.00000  Uiso   1.00
C483   C     0.87039   0.35510   0.21420   0.00000  Uiso   1.00
C484   C     0.83192   0.37591   0.25159   0.00000  Uiso   1.00
C485   C     0.79365   0.35398   0.28885   0.00000  Uiso   1.00
C486   C     0.79440   0.64411   0.28704   0.00000  Uiso   1.00
C487   C     0.83346   0.62392   0.25144   0.00000  Uiso   1.00
C488   C     0.98445   0.47191   0.21925   0.00000  Uiso   1.00
C489   C     0.69895   0.47203   0.21914   0.00000  Uiso   1.00
C490   C     0.68289   0.52794   0.28059   0.00000  Uiso   1.00
C491   C     0.96854   0.52865   0.28060   0.00000  Uiso   1.00
C492   C     0.83266   0.42015   0.25124   0.00000  Uiso   1.00
C493   C     0.85967   0.49989   0.14793   0.00000  Uiso   1.00
C494   C     0.93312   0.49789   0.49927   0.00000  Uiso   1.00
C495   C     0.87550   0.49550   0.08929   0.00000  Uiso   1.00
C496   C     0.74397   0.48082   0.43858   0.00000  Uiso   1.00
C497   C     0.73022   0.47996   0.49459   0.00000  Uiso   1.00
C498   C     0.76448   0.48359   0.02055   0.00000  Uiso   1.00
H499   H     0.76540   0.62613   0.31462   0.00000  Uiso   1.00
H500   H     0.97324   0.44943   0.19453   0.00000  Uiso   1.00
H501   H     0.72371   0.44961   0.19428   0.00000  Uiso   1.00
H502   H     0.69505   0.55010   0.30494   0.00000  Uiso   1.00
H503   H     0.94697   0.46761   0.39920   0.00000  Uiso   1.00
H504   H     0.96858   0.50463   0.47187   0.00000  Uiso   1.00
H505   H     0.80980   0.46421   0.09470   0.00000  Uiso   1.00
H506   H     0.71696   0.48393   0.41941   0.00000  Uiso   1.00
H507   H     0.69291   0.48079   0.01803   0.00000  Uiso   1.00
H508   H     0.88397   0.44857   0.36326   0.00000  Uiso   1.00
H509   H     0.90213   0.62922   0.18948   0.00000  Uiso   1.00
N510   N     0.71426   0.50001   0.25001   0.00000  Uiso   1.00
N511   N     0.95239   0.49998   0.25001   0.00000  Uiso   1.00
O512   O     0.79512   0.56108   0.25001   0.00000  Uiso   1.00
O513   O     0.87157   0.56107   0.25001   0.00000  Uiso   1.00
O514   O     0.77613   0.50000   0.32681   0.00000  Uiso   1.00
O515   O     0.85258   0.49999   0.32681   0.00000  Uiso   1.00
O516   O     0.79510   0.43893   0.25000   0.00000  Uiso   1.00
O517   O     0.87154   0.43892   0.25000   0.00000  Uiso   1.00
O518   O     0.81409   0.50001   0.17319   0.00000  Uiso   1.00
O519   O     0.89053   0.50000   0.17319   0.00000  Uiso   1.00
Zn520  Zn    0.78229   0.50001   0.25000   0.00000  Uiso   1.00
Zn521  Zn    0.88438   0.49999   0.25000   0.00000  Uiso   1.00
C522   C     0.95414   0.53663   0.07238   0.00000  Uiso   1.00
C523   C     0.93282   0.57961   0.09057   0.00000  Uiso   1.00
H524   H     0.89930   0.57700   0.12515   0.00000  Uiso   1.00
H525   H     0.95863   0.59919   0.10308   0.00000  Uiso   1.00
H526   H     0.92526   0.59542   0.05662   0.00000  Uiso   1.00
H527   H     0.96434   0.52130   0.10477   0.00000  Uiso   1.00
H528   H     0.98733   0.54242   0.03820   0.00000  Uiso   1.00
O529   O     0.90842   0.37638   0.17804   0.00000  Uiso   1.00
C530   C     0.89593   0.39013   0.13315   0.00000  Uiso   1.00
H531   H     0.91871   0.41787   0.11600   0.00000  Uiso   1.00
H532   H     0.85830   0.40066   0.14421   0.00000  Uiso   1.00
C533   C     0.90558   0.35607   0.08943   0.00000  Uiso   1.00
H534   H     0.94300   0.34554   0.07903   0.00000  Uiso   1.00
H535   H     0.88142   0.66217   0.10498   0.00000  Uiso   1.00
C536   C     0.89740   0.37221   0.03847   0.00000  Uiso   1.00
H537   H     0.85999   0.38248   0.04784   0.00000  Uiso   1.00
H538   H     0.90435   0.34677   0.00776   0.00000  Uiso   1.00
H539   H     0.92189   0.39894   0.02128   0.00000  Uiso   1.00
C540   C     0.75338   0.37499   0.33259   0.00000  Uiso   1.00
C541   C     0.70828   0.37643   0.31689   0.00000  Uiso   1.00
H542   H     0.67993   0.39300   0.34886   0.00000  Uiso   1.00
H543   H     0.71516   0.39335   0.27812   0.00000  Uiso   1.00
H544   H     0.69549   0.34418   0.31255   0.00000  Uiso   1.00
H545   H     0.74555   0.35736   0.37107   0.00000  Uiso   1.00
H546   H     0.76325   0.40715   0.34174   0.00000  Uiso   1.00
C547   C     0.93790   0.56257   0.31481   0.00000  Uiso   1.00
C548   C     0.95194   0.60556   0.28870   0.00000  Uiso   1.00
H549   H     0.95076   0.60525   0.24673   0.00000  Uiso   1.00
H550   H     0.92687   0.62955   0.31250   0.00000  Uiso   1.00
H551   H     0.98849   0.61446   0.28759   0.00000  Uiso   1.00
H552   H     0.89987   0.55744   0.32272   0.00000  Uiso   1.00
H553   H     0.94238   0.56293   0.35539   0.00000  Uiso   1.00
O554   O     0.74981   0.49597   0.07436   0.00000  Uiso   1.00
C555   C     0.73868   0.53929   0.07904   0.00000  Uiso   1.00
H556   H     0.70765   0.54357   0.11635   0.00000  Uiso   1.00
H557   H     0.72830   0.55178   0.04490   0.00000  Uiso   1.00
C558   C     0.78042   0.56560   0.08441   0.00000  Uiso   1.00
H559   H     0.78938   0.55504   0.12008   0.00000  Uiso   1.00
H560   H     0.81204   0.56162   0.04765   0.00000  Uiso   1.00
C561   C     0.76819   0.61202   0.09161   0.00000  Uiso   1.00
H562   H     0.75986   0.62390   0.05598   0.00000  Uiso   1.00
H563   H     0.79908   0.63009   0.09565   0.00000  Uiso   1.00
H564   H     0.73711   0.61698   0.12869   0.00000  Uiso   1.00
C565   C     0.16683   0.91320   0.25036   0.00000  Uiso   1.00
C566   C     0.14663   0.80956   0.49037   0.00000  Uiso   1.00
C567   C     0.15963   0.80495   0.43362   0.00000  Uiso   1.00
C568   C     0.18401   0.81142   0.01285   0.00000  Uiso   1.00
C569   C     0.23177   0.81514   0.47877   0.00000  Uiso   1.00
C570   C     0.24348   0.80318   0.42494   0.00000  Uiso   1.00
C571   C     0.20723   0.79440   0.40392   0.00000  Uiso   1.00
C572   C     0.17576   0.81106   0.06794   0.00000  Uiso   1.00
C573   C     0.25389   0.84229   0.05413   0.00000  Uiso   1.00
C574   C     0.12565   0.81416   0.40800   0.00000  Uiso   1.00
C575   C     0.20519   0.97889   0.21637   0.00000  Uiso   1.00
C576   C     0.14083   0.82734   0.35107   0.00000  Uiso   1.00
C577   C     0.20372   0.68843   0.21420   0.00000  Uiso   1.00
C578   C     0.16525   0.70924   0.25159   0.00000  Uiso   1.00
C579   C     0.12698   0.68732   0.28885   0.00000  Uiso   1.00
C580   C     0.12773   0.97744   0.28704   0.00000  Uiso   1.00
C581   C     0.16679   0.95725   0.25144   0.00000  Uiso   1.00
C582   C     0.31778   0.80525   0.21925   0.00000  Uiso   1.00
C583   C     0.03229   0.80536   0.21914   0.00000  Uiso   1.00
C584   C     0.01622   0.86128   0.28059   0.00000  Uiso   1.00
C585   C     0.30187   0.86199   0.28060   0.00000  Uiso   1.00
C586   C     0.16600   0.75348   0.25124   0.00000  Uiso   1.00
C587   C     0.19300   0.83322   0.14793   0.00000  Uiso   1.00
C588   C     0.26645   0.83122   0.49927   0.00000  Uiso   1.00
C589   C     0.20884   0.82884   0.08929   0.00000  Uiso   1.00
C590   C     0.07730   0.81415   0.43858   0.00000  Uiso   1.00
C591   C     0.06356   0.81329   0.49459   0.00000  Uiso   1.00
C592   C     0.09781   0.81692   0.02055   0.00000  Uiso   1.00
H593   H     0.09874   0.95946   0.31462   0.00000  Uiso   1.00
H594   H     0.30658   0.78277   0.19453   0.00000  Uiso   1.00
H595   H     0.05704   0.78294   0.19428   0.00000  Uiso   1.00
H596   H     0.02838   0.88343   0.30494   0.00000  Uiso   1.00
H597   H     0.28031   0.80094   0.39920   0.00000  Uiso   1.00
H598   H     0.30192   0.83796   0.47187   0.00000  Uiso   1.00
H599   H     0.14313   0.79754   0.09470   0.00000  Uiso   1.00
H600   H     0.05029   0.81727   0.41941   0.00000  Uiso   1.00
H601   H     0.02624   0.81412   0.01803   0.00000  Uiso   1.00
H602   H     0.21730   0.78190   0.36326   0.00000  Uiso   1.00
H603   H     0.23547   0.96255   0.18948   0.00000  Uiso   1.00
N604   N     0.04760   0.83334   0.25001   0.00000  Uiso   1.00
N605   N     0.28573   0.83331   0.25001   0.00000  Uiso   1.00
O606   O     0.12846   0.89442   0.25001   0.00000  Uiso   1.00
O607   O     0.20490   0.89441   0.25001   0.00000  Uiso   1.00
O608   O     0.10947   0.83333   0.32681   0.00000  Uiso   1.00
O609   O     0.18591   0.83332   0.32681   0.00000  Uiso   1.00
O610   O     0.12843   0.77226   0.25000   0.00000  Uiso   1.00
O611   O     0.20488   0.77225   0.25000   0.00000  Uiso   1.00
O612   O     0.14742   0.83335   0.17319   0.00000  Uiso   1.00
O613   O     0.22387   0.83334   0.17319   0.00000  Uiso   1.00
Zn614  Zn    0.11562   0.83334   0.25000   0.00000  Uiso   1.00
Zn615  Zn    0.21771   0.83333   0.25000   0.00000  Uiso   1.00
C616   C     0.28747   0.86996   0.07238   0.00000  Uiso   1.00
C617   C     0.26615   0.91295   0.09057   0.00000  Uiso   1.00
H618   H     0.23263   0.91033   0.12515   0.00000  Uiso   1.00
H619   H     0.29196   0.93252   0.10308   0.00000  Uiso   1.00
H620   H     0.25859   0.92875   0.05662   0.00000  Uiso   1.00
H621   H     0.29767   0.85463   0.10477   0.00000  Uiso   1.00
H622   H     0.32067   0.87575   0.03820   0.00000  Uiso   1.00
O623   O     0.24175   0.70971   0.17804   0.00000  Uiso   1.00
C624   C     0.22926   0.72346   0.13315   0.00000  Uiso   1.00
H625   H     0.25204   0.75120   0.11600   0.00000  Uiso   1.00
H626   H     0.19164   0.73399   0.14421   0.00000  Uiso   1.00
C627   C     0.23891   0.68941   0.08943   0.00000  Uiso   1.00
H628   H     0.27633   0.67887   0.07903   0.00000  Uiso   1.00
H629   H     0.21475   0.99550   0.10498   0.00000  Uiso   1.00
C630   C     0.23073   0.70554   0.03847   0.00000  Uiso   1.00
H631   H     0.19333   0.71581   0.04784   0.00000  Uiso   1.00
H632   H     0.23768   0.68010   0.00776   0.00000  Uiso   1.00
H633   H     0.25523   0.73227   0.02128   0.00000  Uiso   1.00
C634   C     0.08671   0.70833   0.33259   0.00000  Uiso   1.00
C635   C     0.04161   0.70977   0.31689   0.00000  Uiso   1.00
H636   H     0.01326   0.72633   0.34886   0.00000  Uiso   1.00
H637   H     0.04850   0.72668   0.27812   0.00000  Uiso   1.00
H638   H     0.02882   0.67751   0.31255   0.00000  Uiso   1.00
H639   H     0.07888   0.69069   0.37107   0.00000  Uiso   1.00
H640   H     0.09658   0.74048   0.34174   0.00000  Uiso   1.00
C641   C     0.27124   0.89590   0.31481   0.00000  Uiso   1.00
C642   C     0.28527   0.93890   0.28870   0.00000  Uiso   1.00
H643   H     0.28409   0.93858   0.24673   0.00000  Uiso   1.00
H644   H     0.26021   0.96288   0.31250   0.00000  Uiso   1.00
H645   H     0.32182   0.94779   0.28759   0.00000  Uiso   1.00
H646   H     0.23320   0.89077   0.32272   0.00000  Uiso   1.00
H647   H     0.27571   0.89626   0.35539   0.00000  Uiso   1.00
O648   O     0.08314   0.82930   0.07436   0.00000  Uiso   1.00
C649   C     0.07201   0.87262   0.07904   0.00000  Uiso   1.00
H650   H     0.04098   0.87690   0.11635   0.00000  Uiso   1.00
H651   H     0.06163   0.88511   0.04490   0.00000  Uiso   1.00
C652   C     0.11375   0.89893   0.08441   0.00000  Uiso   1.00
H653   H     0.12271   0.88838   0.12008   0.00000  Uiso   1.00
H654   H     0.14537   0.89495   0.04765   0.00000  Uiso   1.00
C655   C     0.10153   0.94535   0.09161   0.00000  Uiso   1.00
H656   H     0.09319   0.95723   0.05598   0.00000  Uiso   1.00
H657   H     0.13242   0.96343   0.09565   0.00000  Uiso   1.00
H658   H     0.07045   0.95031   0.12869   0.00000  Uiso   1.00
C659   C     0.50016   0.91320   0.25036   0.00000  Uiso   1.00
C660   C     0.47997   0.80956   0.49037   0.00000  Uiso   1.00
C661   C     0.49296   0.80495   0.43362   0.00000  Uiso   1.00
C662   C     0.51734   0.81142   0.01285   0.00000  Uiso   1.00
C663   C     0.56511   0.81514   0.47877   0.00000  Uiso   1.00
C664   C     0.57682   0.80318   0.42494   0.00000  Uiso   1.00
C665   C     0.54056   0.79440   0.40392   0.00000  Uiso   1.00
C666   C     0.50909   0.81106   0.06794   0.00000  Uiso   1.00
C667   C     0.58722   0.84229   0.05413   0.00000  Uiso   1.00
C668   C     0.45899   0.81416   0.40800   0.00000  Uiso   1.00
C669   C     0.53852   0.97889   0.21637   0.00000  Uiso   1.00
C670   C     0.47416   0.82734   0.35107   0.00000  Uiso   1.00
C671   C     0.53705   0.68843   0.21420   0.00000  Uiso   1.00
C672   C     0.49858   0.70924   0.25159   0.00000  Uiso   1.00
C673   C     0.46031   0.68732   0.28885   0.00000  Uiso   1.00
C674   C     0.46106   0.97744   0.28704   0.00000  Uiso   1.00
C675   C     0.50013   0.95725   0.25144   0.00000  Uiso   1.00
C676   C     0.65111   0.80525   0.21925   0.00000  Uiso   1.00
C677   C     0.36562   0.80536   0.21914   0.00000  Uiso   1.00
C678   C     0.34956   0.86128   0.28059   0.00000  Uiso   1.00
C679   C     0.63521   0.86199   0.28060   0.00000  Uiso   1.00
C680   C     0.49933   0.75348   0.25124   0.00000  Uiso   1.00
C681   C     0.52633   0.83322   0.14793   0.00000  Uiso   1.00
C682   C     0.59979   0.83122   0.49927   0.00000  Uiso   1.00
C683   C     0.54217   0.82884   0.08929   0.00000  Uiso   1.00
C684   C     0.41063   0.81415   0.43858   0.00000  Uiso   1.00
C685   C     0.39689   0.81329   0.49459   0.00000  Uiso   1.00
C686   C     0.43114   0.81692   0.02055   0.00000  Uiso   1.00
H687   H     0.43207   0.95946   0.31462   0.00000  Uiso   1.00
H688   H     0.63991   0.78277   0.19453   0.00000  Uiso   1.00
H689   H     0.39037   0.78294   0.19428   0.00000  Uiso   1.00
H690   H     0.36172   0.88343   0.30494   0.00000  Uiso   1.00
H691   H     0.61364   0.80094   0.39920   0.00000  Uiso   1.00
H692   H     0.63525   0.83796   0.47187   0.00000  Uiso   1.00
H693   H     0.47646   0.79754   0.09470   0.00000  Uiso   1.00
H694   H     0.38363   0.81727   0.41941   0.00000  Uiso   1.00
H695   H     0.35957   0.81412   0.01803   0.00000  Uiso   1.00
H696   H     0.55063   0.78190   0.36326   0.00000  Uiso   1.00
H697   H     0.56880   0.96255   0.18948   0.00000  Uiso   1.00
N698   N     0.38093   0.83334   0.25001   0.00000  Uiso   1.00
N699   N     0.61906   0.83331   0.25001   0.00000  Uiso   1.00
O700   O     0.46179   0.89442   0.25001   0.00000  Uiso   1.00
O701   O     0.53823   0.89441   0.25001   0.00000  Uiso   1.00
O702   O     0.44280   0.83333   0.32681   0.00000  Uiso   1.00
O703   O     0.51924   0.83332   0.32681   0.00000  Uiso   1.00
O704   O     0.46177   0.77226   0.25000   0.00000  Uiso   1.00
O705   O     0.53821   0.77225   0.25000   0.00000  Uiso   1.00
O706   O     0.48076   0.83335   0.17319   0.00000  Uiso   1.00
O707   O     0.55720   0.83334   0.17319   0.00000  Uiso   1.00
Zn708  Zn    0.44896   0.83334   0.25000   0.00000  Uiso   1.00
Zn709  Zn    0.55104   0.83333   0.25000   0.00000  Uiso   1.00
C710   C     0.62081   0.86996   0.07238   0.00000  Uiso   1.00
C711   C     0.59948   0.91295   0.09057   0.00000  Uiso   1.00
H712   H     0.56596   0.91033   0.12515   0.00000  Uiso   1.00
H713   H     0.62529   0.93252   0.10308   0.00000  Uiso   1.00
H714   H     0.59193   0.92875   0.05662   0.00000  Uiso   1.00
H715   H     0.63101   0.85463   0.10477   0.00000  Uiso   1.00
H716   H     0.65400   0.87575   0.03820   0.00000  Uiso   1.00
O717   O     0.57508   0.70971   0.17804   0.00000  Uiso   1.00
C718   C     0.56259   0.72346   0.13315   0.00000  Uiso   1.00
H719   H     0.58538   0.75120   0.11600   0.00000  Uiso   1.00
H720   H     0.52497   0.73399   0.14421   0.00000  Uiso   1.00
C721   C     0.57224   0.68941   0.08943   0.00000  Uiso   1.00
H722   H     0.60966   0.67887   0.07903   0.00000  Uiso   1.00
H723   H     0.54809   0.99550   0.10498   0.00000  Uiso   1.00
C724   C     0.56407   0.70554   0.03847   0.00000  Uiso   1.00
H725   H     0.52666   0.71581   0.04784   0.00000  Uiso   1.00
H726   H     0.57102   0.68010   0.00776   0.00000  Uiso   1.00
H727   H     0.58856   0.73227   0.02128   0.00000  Uiso   1.00
C728   C     0.42004   0.70833   0.33259   0.00000  Uiso   1.00
C729   C     0.37494   0.70977   0.31689   0.00000  Uiso   1.00
H730   H     0.34659   0.72633   0.34886   0.00000  Uiso   1.00
H731   H     0.38183   0.72668   0.27812   0.00000  Uiso   1.00
H732   H     0.36215   0.67751   0.31255   0.00000  Uiso   1.00
H733   H     0.41222   0.69069   0.37107   0.00000  Uiso   1.00
H734   H     0.42992   0.74048   0.34174   0.00000  Uiso   1.00
C735   C     0.60457   0.89590   0.31481   0.00000  Uiso   1.00
C736   C     0.61860   0.93890   0.28870   0.00000  Uiso   1.00
H737   H     0.61742   0.93858   0.24673   0.00000  Uiso   1.00
H738   H     0.59354   0.96288   0.31250   0.00000  Uiso   1.00
H739   H     0.65516   0.94779   0.28759   0.00000  Uiso   1.00
H740   H     0.56654   0.89077   0.32272   0.00000  Uiso   1.00
H741   H     0.60904   0.89626   0.35539   0.00000  Uiso   1.00
O742   O     0.41648   0.82930   0.07436   0.00000  Uiso   1.00
C743   C     0.40535   0.87262   0.07904   0.00000  Uiso   1.00
H744   H     0.37432   0.87690   0.11635   0.00000  Uiso   1.00
H745   H     0.39496   0.88511   0.04490   0.00000  Uiso   1.00
C746   C     0.44708   0.89893   0.08441   0.00000  Uiso   1.00
H747   H     0.45605   0.88838   0.12008   0.00000  Uiso   1.00
H748   H     0.47870   0.89495   0.04765   0.00000  Uiso   1.00
C749   C     0.43486   0.94535   0.09161   0.00000  Uiso   1.00
H750   H     0.42652   0.95723   0.05598   0.00000  Uiso   1.00
H751   H     0.46575   0.96343   0.09565   0.00000  Uiso   1.00
H752   H     0.40378   0.95031   0.12869   0.00000  Uiso   1.00
C753   C     0.83349   0.91320   0.25036   0.00000  Uiso   1.00
C754   C     0.81330   0.80956   0.49037   0.00000  Uiso   1.00
C755   C     0.82630   0.80495   0.43362   0.00000  Uiso   1.00
C756   C     0.85067   0.81142   0.01285   0.00000  Uiso   1.00
C757   C     0.89844   0.81514   0.47877   0.00000  Uiso   1.00
C758   C     0.91015   0.80318   0.42494   0.00000  Uiso   1.00
C759   C     0.87389   0.79440   0.40392   0.00000  Uiso   1.00
C760   C     0.84243   0.81106   0.06794   0.00000  Uiso   1.00
C761   C     0.92055   0.84229   0.05413   0.00000  Uiso   1.00
C762   C     0.79232   0.81416   0.40800   0.00000  Uiso   1.00
C763   C     0.87186   0.97889   0.21637   0.00000  Uiso   1.00
C764   C     0.80749   0.82734   0.35107   0.00000  Uiso   1.00
C765   C     0.87039   0.68843   0.21420   0.00000  Uiso   1.00
C766   C     0.83192   0.70924   0.25159   0.00000  Uiso   1.00
C767   C     0.79365   0.68732   0.28885   0.00000  Uiso   1.00
C768   C     0.79440   0.97744   0.28704   0.00000  Uiso   1.00
C769   C     0.83346   0.95725   0.25144   0.00000  Uiso   1.00
C770   C     0.98445   0.80525   0.21925   0.00000  Uiso   1.00
C771   C     0.69895   0.80536   0.21914   0.00000  Uiso   1.00
C772   C     0.68289   0.86128   0.28059   0.00000  Uiso   1.00
C773   C     0.96854   0.86199   0.28060   0.00000  Uiso   1.00
C774   C     0.83266   0.75348   0.25124   0.00000  Uiso   1.00
C775   C     0.85967   0.83322   0.14793   0.00000  Uiso   1.00
C776   C     0.93312   0.83122   0.49927   0.00000  Uiso   1.00
C777   C     0.87550   0.82884   0.08929   0.00000  Uiso   1.00
C778   C     0.74397   0.81415   0.43858   0.00000  Uiso   1.00
C779   C     0.73022   0.81329   0.49459   0.00000  Uiso   1.00
C780   C     0.76448   0.81692   0.02055   0.00000  Uiso   1.00
H781   H     0.76540   0.95946   0.31462   0.00000  Uiso   1.00
H782   H     0.97324   0.78277   0.19453   0.00000  Uiso   1.00
H783   H     0.72371   0.78294   0.19428   0.00000  Uiso   1.00
H784   H     0.69505   0.88343   0.30494   0.00000  Uiso   1.00
H785   H     0.94697   0.80094   0.39920   0.00000  Uiso   1.00
H786   H     0.96858   0.83796   0.47187   0.00000  Uiso   1.00
H787   H     0.80980   0.79754   0.09470   0.00000  Uiso   1.00
H788   H     0.71696   0.81727   0.41941   0.00000  Uiso   1.00
H789   H     0.69291   0.81412   0.01803   0.00000  Uiso   1.00
H790   H     0.88397   0.78190   0.36326   0.00000  Uiso   1.00
H791   H     0.90213   0.96255   0.18948   0.00000  Uiso   1.00
N792   N     0.71426   0.83334   0.25001   0.00000  Uiso   1.00
N793   N     0.95239   0.83331   0.25001   0.00000  Uiso   1.00
O794   O     0.79512   0.89442   0.25001   0.00000  Uiso   1.00
O795   O     0.87157   0.89441   0.25001   0.00000  Uiso   1.00
O796   O     0.77613   0.83333   0.32681   0.00000  Uiso   1.00
O797   O     0.85258   0.83332   0.32681   0.00000  Uiso   1.00
O798   O     0.79510   0.77226   0.25000   0.00000  Uiso   1.00
O799   O     0.87154   0.77225   0.25000   0.00000  Uiso   1.00
O800   O     0.81409   0.83335   0.17319   0.00000  Uiso   1.00
O801   O     0.89053   0.83334   0.17319   0.00000  Uiso   1.00
Zn802  Zn    0.78229   0.83334   0.25000   0.00000  Uiso   1.00
Zn803  Zn    0.88438   0.83333   0.25000   0.00000  Uiso   1.00
C804   C     0.95414   0.86996   0.07238   0.00000  Uiso   1.00
C805   C     0.93282   0.91295   0.09057   0.00000  Uiso   1.00
H806   H     0.89930   0.91033   0.12515   0.00000  Uiso   1.00
H807   H     0.95863   0.93252   0.10308   0.00000  Uiso   1.00
H808   H     0.92526   0.92875   0.05662   0.00000  Uiso   1.00
H809   H     0.96434   0.85463   0.10477   0.00000  Uiso   1.00
H810   H     0.98733   0.87575   0.03820   0.00000  Uiso   1.00
O811   O     0.90842   0.70971   0.17804   0.00000  Uiso   1.00
C812   C     0.89593   0.72346   0.13315   0.00000  Uiso   1.00
H813   H     0.91871   0.75120   0.11600   0.00000  Uiso   1.00
H814   H     0.85830   0.73399   0.14421   0.00000  Uiso   1.00
C815   C     0.90558   0.68941   0.08943   0.00000  Uiso   1.00
H816   H     0.94300   0.67887   0.07903   0.00000  Uiso   1.00
H817   H     0.88142   0.99550   0.10498   0.00000  Uiso   1.00
C818   C     0.89740   0.70554   0.03847   0.00000  Uiso   1.00
H819   H     0.85999   0.71581   0.04784   0.00000  Uiso   1.00
H820   H     0.90435   0.68010   0.00776   0.00000  Uiso   1.00
H821   H     0.92189   0.73227   0.02128   0.00000  Uiso   1.00
C822   C     0.75338   0.70833   0.33259   0.00000  Uiso   1.00
C823   C     0.70828   0.70977   0.31689   0.00000  Uiso   1.00
H824   H     0.67993   0.72633   0.34886   0.00000  Uiso   1.00
H825   H     0.71516   0.72668   0.27812   0.00000  Uiso   1.00
H826   H     0.69549   0.67751   0.31255   0.00000  Uiso   1.00
H827   H     0.74555   0.69069   0.37107   0.00000  Uiso   1.00
H828   H     0.76325   0.74048   0.34174   0.00000  Uiso   1.00
C829   C     0.93790   0.89590   0.31481   0.00000  Uiso   1.00
C830   C     0.95194   0.93890   0.28870   0.00000  Uiso   1.00
H831   H     0.95076   0.93858   0.24673   0.00000  Uiso   1.00
H832   H     0.92687   0.96288   0.31250   0.00000  Uiso   1.00
H833   H     0.98849   0.94779   0.28759   0.00000  Uiso   1.00
H834   H     0.89987   0.89077   0.32272   0.00000  Uiso   1.00
H835   H     0.94238   0.89626   0.35539   0.00000  Uiso   1.00
O836   O     0.74981   0.82930   0.07436   0.00000  Uiso   1.00
C837   C     0.73868   0.87262   0.07904   0.00000  Uiso   1.00
H838   H     0.70765   0.87690   0.11635   0.00000  Uiso   1.00
H839   H     0.72830   0.88511   0.04490   0.00000  Uiso   1.00
C840   C     0.78042   0.89893   0.08441   0.00000  Uiso   1.00
H841   H     0.78938   0.88838   0.12008   0.00000  Uiso   1.00
H842   H     0.81204   0.89495   0.04765   0.00000  Uiso   1.00
C843   C     0.76819   0.94535   0.09161   0.00000  Uiso   1.00
H844   H     0.75986   0.95723   0.05598   0.00000  Uiso   1.00
H845   H     0.79908   0.96343   0.09565   0.00000  Uiso   1.00
H846   H     0.73711   0.95031   0.12869   0.00000  Uiso   1.00
C847   C     0.16683   0.24653   0.75036   0.00000  Uiso   1.00
C848   C     0.14663   0.14289   0.99037   0.00000  Uiso   1.00
C849   C     0.15963   0.13828   0.93362   0.00000  Uiso   1.00
C850   C     0.18401   0.14476   0.51285   0.00000  Uiso   1.00
C851   C     0.23177   0.14848   0.97877   0.00000  Uiso   1.00
C852   C     0.24348   0.13651   0.92494   0.00000  Uiso   1.00
C853   C     0.20723   0.12773   0.90392   0.00000  Uiso   1.00
C854   C     0.17576   0.14439   0.56794   0.00000  Uiso   1.00
C855   C     0.25389   0.17562   0.55413   0.00000  Uiso   1.00
C856   C     0.12565   0.14749   0.90800   0.00000  Uiso   1.00
C857   C     0.20519   0.31223   0.71637   0.00000  Uiso   1.00
C858   C     0.14083   0.16067   0.85107   0.00000  Uiso   1.00
C859   C     0.20372   0.02176   0.71420   0.00000  Uiso   1.00
C860   C     0.16525   0.04257   0.75159   0.00000  Uiso   1.00
C861   C     0.12698   0.02065   0.78885   0.00000  Uiso   1.00
C862   C     0.12773   0.31077   0.78704   0.00000  Uiso   1.00
C863   C     0.16679   0.29058   0.75144   0.00000  Uiso   1.00
C864   C     0.31778   0.13858   0.71925   0.00000  Uiso   1.00
C865   C     0.03229   0.13869   0.71914   0.00000  Uiso   1.00
C866   C     0.01622   0.19461   0.78059   0.00000  Uiso   1.00
C867   C     0.30187   0.19532   0.78060   0.00000  Uiso   1.00
C868   C     0.16600   0.08681   0.75124   0.00000  Uiso   1.00
C869   C     0.19300   0.16656   0.64793   0.00000  Uiso   1.00
C870   C     0.26645   0.16456   0.99927   0.00000  Uiso   1.00
C871   C     0.20884   0.16217   0.58929   0.00000  Uiso   1.00
C872   C     0.07730   0.14749   0.93858   0.00000  Uiso   1.00
C873   C     0.06356   0.14662   0.99459   0.00000  Uiso   1.00
C874   C     0.09781   0.15026   0.52055   0.00000  Uiso   1.00
H875   H     0.09874   0.29280   0.81462   0.00000  Uiso   1.00
H876   H     0.30658   0.11610   0.69453   0.00000  Uiso   1.00
H877   H     0.05704   0.11628   0.69428   0.00000  Uiso   1.00
H878   H     0.02838   0.21677   0.80494   0.00000  Uiso   1.00
H879   H     0.28031   0.13428   0.89920   0.00000  Uiso   1.00
H880   H     0.30192   0.17129   0.97187   0.00000  Uiso   1.00
H881   H     0.14313   0.13087   0.59470   0.00000  Uiso   1.00
H882   H     0.05029   0.15060   0.91941   0.00000  Uiso   1.00
H883   H     0.02624   0.14745   0.51803   0.00000  Uiso   1.00
H884   H     0.21730   0.11523   0.86326   0.00000  Uiso   1.00
H885   H     0.23547   0.29589   0.68948   0.00000  Uiso   1.00
N886   N     0.04760   0.16668   0.75001   0.00000  Uiso   1.00
N887   N     0.28573   0.16665   0.75001   0.00000  Uiso   1.00
O888   O     0.12846   0.22775   0.75001   0.00000  Uiso   1.00
O889   O     0.20490   0.22774   0.75001   0.00000  Uiso   1.00
O890   O     0.10947   0.16666   0.82681   0.00000  Uiso   1.00
O891   O     0.18591   0.16665   0.82681   0.00000  Uiso   1.00
O892   O     0.12843   0.10559   0.75000   0.00000  Uiso   1.00
O893   O     0.20488   0.10558   0.75000   0.00000  Uiso   1.00
O894   O     0.14742   0.16668   0.67319   0.00000  Uiso   1.00
O895   O     0.22387   0.16667   0.67319   0.00000  Uiso   1.00
Zn896  Zn    0.11562   0.16667   0.75000   0.00000  Uiso   1.00
Zn897  Zn    0.21771   0.16666   0.75000   0.00000  Uiso   1.00
C898   C     0.28747   0.20330   0.57238   0.00000  Uiso   1.00
C899   C     0.26615   0.24628   0.59057   0.00000  Uiso   1.00
H900   H     0.23263   0.24367   0.62515   0.00000  Uiso   1.00
H901   H     0.29196   0.26586   0.60308   0.00000  Uiso   1.00
H902   H     0.25859   0.26209   0.55662   0.00000  Uiso   1.00
H903   H     0.29767   0.18797   0.60477   0.00000  Uiso   1.00
H904   H     0.32067   0.20908   0.53820   0.00000  Uiso   1.00
O905   O     0.24175   0.04305   0.67804   0.00000  Uiso   1.00
C906   C     0.22926   0.05680   0.63315   0.00000  Uiso   1.00
H907   H     0.25204   0.08454   0.61600   0.00000  Uiso   1.00
H908   H     0.19164   0.06732   0.64421   0.00000  Uiso   1.00
C909   C     0.23891   0.02274   0.58943   0.00000  Uiso   1.00
H910   H     0.27633   0.01220   0.57903   0.00000  Uiso   1.00
H911   H     0.21475   0.32884   0.60498   0.00000  Uiso   1.00
C912   C     0.23073   0.03888   0.53847   0.00000  Uiso   1.00
H913   H     0.19333   0.04915   0.54784   0.00000  Uiso   1.00
H914   H     0.23768   0.01344   0.50776   0.00000  Uiso   1.00
H915   H     0.25523   0.06560   0.52128   0.00000  Uiso   1.00
C916   C     0.08671   0.04166   0.83259   0.00000  Uiso   1.00
C917   C     0.04161   0.04310   0.81689   0.00000  Uiso   1.00
H918   H     0.01326   0.05967   0.84886   0.00000  Uiso   1.00
H919   H     0.04850   0.06002   0.77812   0.00000  Uiso   1.00
H920   H     0.02882   0.01084   0.81255   0.00000  Uiso   1.00
H921   H     0.07888   0.02402   0.87107   0.00000  Uiso   1.00
H922   H     0.09658   0.07382   0.84174   0.00000  Uiso   1.00
C923   C     0.27124   0.22923   0.81481   0.00000  Uiso   1.00
C924   C     0.28527   0.27223   0.78870   0.00000  Uiso   1.00
H925   H     0.28409   0.27191   0.74673   0.00000  Uiso   1.00
H926   H     0.26021   0.29622   0.81250   0.00000  Uiso   1.00
H927   H     0.32182   0.28112   0.78759   0.00000  Uiso   1.00
H928   H     0.23320   0.22410   0.82272   0.00000  Uiso   1.00
H929   H     0.27571   0.22959   0.85539   0.00000  Uiso   1.00
O930   O     0.08314   0.16263   0.57436   0.00000  Uiso   1.00
C931   C     0.07201   0.20595   0.57904   0.00000  Uiso   1.00
H932   H     0.04098   0.21024   0.61635   0.00000  Uiso   1.00
H933   H     0.06163   0.21844   0.54490   0.00000  Uiso   1.00
C934   C     0.11375   0.23226   0.58441   0.00000  Uiso   1.00
H935   H     0.12271   0.22171   0.62008   0.00000  Uiso   1.00
H936   H     0.14537   0.22828   0.54765   0.00000  Uiso   1.00
C937   C     0.10153   0.27869   0.59161   0.00000  Uiso   1.00
H938   H     0.09319   0.29057   0.55598   0.00000  Uiso   1.00
H939   H     0.13242   0.29676   0.59565   0.00000  Uiso   1.00
H940   H     0.07045   0.28364   0.62869   0.00000  Uiso   1.00
C941   C     0.50016   0.24653   0.75036   0.00000  Uiso   1.00
C942   C     0.47997   0.14289   0.99037   0.00000  Uiso   1.00
C943   C     0.49296   0.13828   0.93362   0.00000  Uiso   1.00
C944   C     0.51734   0.14476   0.51285   0.00000  Uiso   1.00
C945   C     0.56511   0.14848   0.97877   0.00000  Uiso   1.00
C946   C     0.57682   0.13651   0.92494   0.00000  Uiso   1.00
C947   C     0.54056   0.12773   0.90392   0.00000  Uiso   1.00
C948   C     0.50909   0.14439   0.56794   0.00000  Uiso   1.00
C949   C     0.58722   0.17562   0.55413   0.00000  Uiso   1.00
C950   C     0.45899   0.14749   0.90800   0.00000  Uiso   1.00
C951   C     0.53852   0.31223   0.71637   0.00000  Uiso   1.00
C952   C     0.47416   0.16067   0.85107   0.00000  Uiso   1.00
C953   C     0.53705   0.02176   0.71420   0.00000  Uiso   1.00
C954   C     0.49858   0.04257   0.75159   0.00000  Uiso   1.00
C955   C     0.46031   0.02065   0.78885   0.00000  Uiso   1.00
C956   C     0.46106   0.31077   0.78704   0.00000  Uiso   1.00
C957   C     0.50013   0.29058   0.75144   0.00000  Uiso   1.00
C958   C     0.65111   0.13858   0.71925   0.00000  Uiso   1.00
C959   C     0.36562   0.13869   0.71914   0.00000  Uiso   1.00
C960   C     0.34956   0.19461   0.78059   0.00000  Uiso   1.00
C961   C     0.63521   0.19532   0.78060   0.00000  Uiso   1.00
C962   C     0.49933   0.08681   0.75124   0.00000  Uiso   1.00
C963   C     0.52633   0.16656   0.64793   0.00000  Uiso   1.00
C964   C     0.59979   0.16456   0.99927   0.00000  Uiso   1.00
C965   C     0.54217   0.16217   0.58929   0.00000  Uiso   1.00
C966   C     0.41063   0.14749   0.93858   0.00000  Uiso   1.00
C967   C     0.39689   0.14662   0.99459   0.00000  Uiso   1.00
C968   C     0.43114   0.15026   0.52055   0.00000  Uiso   1.00
H969   H     0.43207   0.29280   0.81462   0.00000  Uiso   1.00
H970   H     0.63991   0.11610   0.69453   0.00000  Uiso   1.00
H971   H     0.39037   0.11628   0.69428   0.00000  Uiso   1.00
H972   H     0.36172   0.21677   0.80494   0.00000  Uiso   1.00
H973   H     0.61364   0.13428   0.89920   0.00000  Uiso   1.00
H974   H     0.63525   0.17129   0.97187   0.00000  Uiso   1.00
H975   H     0.47646   0.13087   0.59470   0.00000  Uiso   1.00
H976   H     0.38363   0.15060   0.91941   0.00000  Uiso   1.00
H977   H     0.35957   0.14745   0.51803   0.00000  Uiso   1.00
H978   H     0.55063   0.11523   0.86326   0.00000  Uiso   1.00
H979   H     0.56880   0.29589   0.68948   0.00000  Uiso   1.00
N980   N     0.38093   0.16668   0.75001   0.00000  Uiso   1.00
N981   N     0.61906   0.16665   0.75001   0.00000  Uiso   1.00
O982   O     0.46179   0.22775   0.75001   0.00000  Uiso   1.00
O983   O     0.53823   0.22774   0.75001   0.00000  Uiso   1.00
O984   O     0.44280   0.16666   0.82681   0.00000  Uiso   1.00
O985   O     0.51924   0.16665   0.82681   0.00000  Uiso   1.00
O986   O     0.46177   0.10559   0.75000   0.00000  Uiso   1.00
O987   O     0.53821   0.10558   0.75000   0.00000  Uiso   1.00
O988   O     0.48076   0.16668   0.67319   0.00000  Uiso   1.00
O989   O     0.55720   0.16667   0.67319   0.00000  Uiso   1.00
Zn990  Zn    0.44896   0.16667   0.75000   0.00000  Uiso   1.00
Zn991  Zn    0.55104   0.16666   0.75000   0.00000  Uiso   1.00
C992   C     0.62081   0.20330   0.57238   0.00000  Uiso   1.00
C993   C     0.59948   0.24628   0.59057   0.00000  Uiso   1.00
H994   H     0.56596   0.24367   0.62515   0.00000  Uiso   1.00
H995   H     0.62529   0.26586   0.60308   0.00000  Uiso   1.00
H996   H     0.59193   0.26209   0.55662   0.00000  Uiso   1.00
H997   H     0.63101   0.18797   0.60477   0.00000  Uiso   1.00
H998   H     0.65400   0.20908   0.53820   0.00000  Uiso   1.00
O999   O     0.57508   0.04305   0.67804   0.00000  Uiso   1.00
C1000  C     0.56259   0.05680   0.63315   0.00000  Uiso   1.00
H1001  H     0.58538   0.08454   0.61600   0.00000  Uiso   1.00
H1002  H     0.52497   0.06732   0.64421   0.00000  Uiso   1.00
C1003  C     0.57224   0.02274   0.58943   0.00000  Uiso   1.00
H1004  H     0.60966   0.01220   0.57903   0.00000  Uiso   1.00
H1005  H     0.54809   0.32884   0.60498   0.00000  Uiso   1.00
C1006  C     0.56407   0.03888   0.53847   0.00000  Uiso   1.00
H1007  H     0.52666   0.04915   0.54784   0.00000  Uiso   1.00
H1008  H     0.57102   0.01344   0.50776   0.00000  Uiso   1.00
H1009  H     0.58856   0.06560   0.52128   0.00000  Uiso   1.00
C1010  C     0.42004   0.04166   0.83259   0.00000  Uiso   1.00
C1011  C     0.37494   0.04310   0.81689   0.00000  Uiso   1.00
H1012  H     0.34659   0.05967   0.84886   0.00000  Uiso   1.00
H1013  H     0.38183   0.06002   0.77812   0.00000  Uiso   1.00
H1014  H     0.36215   0.01084   0.81255   0.00000  Uiso   1.00
H1015  H     0.41222   0.02402   0.87107   0.00000  Uiso   1.00
H1016  H     0.42992   0.07382   0.84174   0.00000  Uiso   1.00
C1017  C     0.60457   0.22923   0.81481   0.00000  Uiso   1.00
C1018  C     0.61860   0.27223   0.78870   0.00000  Uiso   1.00
H1019  H     0.61742   0.27191   0.74673   0.00000  Uiso   1.00
H1020  H     0.59354   0.29622   0.81250   0.00000  Uiso   1.00
H1021  H     0.65516   0.28112   0.78759   0.00000  Uiso   1.00
H1022  H     0.56654   0.22410   0.82272   0.00000  Uiso   1.00
H1023  H     0.60904   0.22959   0.85539   0.00000  Uiso   1.00
O1024  O     0.41648   0.16263   0.57436   0.00000  Uiso   1.00
C1025  C     0.40535   0.20595   0.57904   0.00000  Uiso   1.00
H1026  H     0.37432   0.21024   0.61635   0.00000  Uiso   1.00
H1027  H     0.39496   0.21844   0.54490   0.00000  Uiso   1.00
C1028  C     0.44708   0.23226   0.58441   0.00000  Uiso   1.00
H1029  H     0.45605   0.22171   0.62008   0.00000  Uiso   1.00
H1030  H     0.47870   0.22828   0.54765   0.00000  Uiso   1.00
C1031  C     0.43486   0.27869   0.59161   0.00000  Uiso   1.00
H1032  H     0.42652   0.29057   0.55598   0.00000  Uiso   1.00
H1033  H     0.46575   0.29676   0.59565   0.00000  Uiso   1.00
H1034  H     0.40378   0.28364   0.62869   0.00000  Uiso   1.00
C1035  C     0.83349   0.24653   0.75036   0.00000  Uiso   1.00
C1036  C     0.81330   0.14289   0.99037   0.00000  Uiso   1.00
C1037  C     0.82630   0.13828   0.93362   0.00000  Uiso   1.00
C1038  C     0.85067   0.14476   0.51285   0.00000  Uiso   1.00
C1039  C     0.89844   0.14848   0.97877   0.00000  Uiso   1.00
C1040  C     0.91015   0.13651   0.92494   0.00000  Uiso   1.00
C1041  C     0.87389   0.12773   0.90392   0.00000  Uiso   1.00
C1042  C     0.84243   0.14439   0.56794   0.00000  Uiso   1.00
C1043  C     0.92055   0.17562   0.55413   0.00000  Uiso   1.00
C1044  C     0.79232   0.14749   0.90800   0.00000  Uiso   1.00
C1045  C     0.87186   0.31223   0.71637   0.00000  Uiso   1.00
C1046  C     0.80749   0.16067   0.85107   0.00000  Uiso   1.00
C1047  C     0.87039   0.02176   0.71420   0.00000  Uiso   1.00
C1048  C     0.83192   0.04257   0.75159   0.00000  Uiso   1.00
C1049  C     0.79365   0.02065   0.78885   0.00000  Uiso   1.00
C1050  C     0.79440   0.31077   0.78704   0.00000  Uiso   1.00
C1051  C     0.83346   0.29058   0.75144   0.00000  Uiso   1.00
C1052  C     0.98445   0.13858   0.71925   0.00000  Uiso   1.00
C1053  C     0.69895   0.13869   0.71914   0.00000  Uiso   1.00
C1054  C     0.68289   0.19461   0.78059   0.00000  Uiso   1.00
C1055  C     0.96854   0.19532   0.78060   0.00000  Uiso   1.00
C1056  C     0.83266   0.08681   0.75124   0.00000  Uiso   1.00
C1057  C     0.85967   0.16656   0.64793   0.00000  Uiso   1.00
C1058  C     0.93312   0.16456   0.99927   0.00000  Uiso   1.00
C1059  C     0.87550   0.16217   0.58929   0.00000  Uiso   1.00
C1060  C     0.74397   0.14749   0.93858   0.00000  Uiso   1.00
C1061  C     0.73022   0.14662   0.99459   0.00000  Uiso   1.00
C1062  C     0.76448   0.15026   0.52055   0.00000  Uiso   1.00
H1063  H     0.76540   0.29280   0.81462   0.00000  Uiso   1.00
H1064  H     0.97324   0.11610   0.69453   0.00000  Uiso   1.00
H1065  H     0.72371   0.11628   0.69428   0.00000  Uiso   1.00
H1066  H     0.69505   0.21677   0.80494   0.00000  Uiso   1.00
H1067  H     0.94697   0.13428   0.89920   0.00000  Uiso   1.00
H1068  H     0.96858   0.17129   0.97187   0.00000  Uiso   1.00
H1069  H     0.80980   0.13087   0.59470   0.00000  Uiso   1.00
H1070  H     0.71696   0.15060   0.91941   0.00000  Uiso   1.00
H1071  H     0.69291   0.14745   0.51803   0.00000  Uiso   1.00
H1072  H     0.88397   0.11523   0.86326   0.00000  Uiso   1.00
H1073  H     0.90213   0.29589   0.68948   0.00000  Uiso   1.00
N1074  N     0.71426   0.16668   0.75001   0.00000  Uiso   1.00
N1075  N     0.95239   0.16665   0.75001   0.00000  Uiso   1.00
O1076  O     0.79512   0.22775   0.75001   0.00000  Uiso   1.00
O1077  O     0.87157   0.22774   0.75001   0.00000  Uiso   1.00
O1078  O     0.77613   0.16666   0.82681   0.00000  Uiso   1.00
O1079  O     0.85258   0.16665   0.82681   0.00000  Uiso   1.00
O1080  O     0.79510   0.10559   0.75000   0.00000  Uiso   1.00
O1081  O     0.87154   0.10558   0.75000   0.00000  Uiso   1.00
O1082  O     0.81409   0.16668   0.67319   0.00000  Uiso   1.00
O1083  O     0.89053   0.16667   0.67319   0.00000  Uiso   1.00
Zn1084 Zn    0.78229   0.16667   0.75000   0.00000  Uiso   1.00
Zn1085 Zn    0.88438   0.16666   0.75000   0.00000  Uiso   1.00
C1086  C     0.95414   0.20330   0.57238   0.00000  Uiso   1.00
C1087  C     0.93282   0.24628   0.59057   0.00000  Uiso   1.00
H1088  H     0.89930   0.24367   0.62515   0.00000  Uiso   1.00
H1089  H     0.95863   0.26586   0.60308   0.00000  Uiso   1.00
H1090  H     0.92526   0.26209   0.55662   0.00000  Uiso   1.00
H1091  H     0.96434   0.18797   0.60477   0.00000  Uiso   1.00
H1092  H     0.98733   0.20908   0.53820   0.00000  Uiso   1.00
O1093  O     0.90842   0.04305   0.67804   0.00000  Uiso   1.00
C1094  C     0.89593   0.05680   0.63315   0.00000  Uiso   1.00
H1095  H     0.91871   0.08454   0.61600   0.00000  Uiso   1.00
H1096  H     0.85830   0.06732   0.64421   0.00000  Uiso   1.00
C1097  C     0.90558   0.02274   0.58943   0.00000  Uiso   1.00
H1098  H     0.94300   0.01220   0.57903   0.00000  Uiso   1.00
H1099  H     0.88142   0.32884   0.60498   0.00000  Uiso   1.00
C1100  C     0.89740   0.03888   0.53847   0.00000  Uiso   1.00
H1101  H     0.85999   0.04915   0.54784   0.00000  Uiso   1.00
H1102  H     0.90435   0.01344   0.50776   0.00000  Uiso   1.00
H1103  H     0.92189   0.06560   0.52128   0.00000  Uiso   1.00
C1104  C     0.75338   0.04166   0.83259   0.00000  Uiso   1.00
C1105  C     0.70828   0.04310   0.81689   0.00000  Uiso   1.00
H1106  H     0.67993   0.05967   0.84886   0.00000  Uiso   1.00
H1107  H     0.71516   0.06002   0.77812   0.00000  Uiso   1.00
H1108  H     0.69549   0.01084   0.81255   0.00000  Uiso   1.00
H1109  H     0.74555   0.02402   0.87107   0.00000  Uiso   1.00
H1110  H     0.76325   0.07382   0.84174   0.00000  Uiso   1.00
C1111  C     0.93790   0.22923   0.81481   0.00000  Uiso   1.00
C1112  C     0.95194   0.27223   0.78870   0.00000  Uiso   1.00
H1113  H     0.95076   0.27191   0.74673   0.00000  Uiso   1.00
H1114  H     0.92687   0.29622   0.81250   0.00000  Uiso   1.00
H1115  H     0.98849   0.28112   0.78759   0.00000  Uiso   1.00
H1116  H     0.89987   0.22410   0.82272   0.00000  Uiso   1.00
H1117  H     0.94238   0.22959   0.85539   0.00000  Uiso   1.00
O1118  O     0.74981   0.16263   0.57436   0.00000  Uiso   1.00
C1119  C     0.73868   0.20595   0.57904   0.00000  Uiso   1.00
H1120  H     0.70765   0.21024   0.61635   0.00000  Uiso   1.00
H1121  H     0.72830   0.21844   0.54490   0.00000  Uiso   1.00
C1122  C     0.78042   0.23226   0.58441   0.00000  Uiso   1.00
H1123  H     0.78938   0.22171   0.62008   0.00000  Uiso   1.00
H1124  H     0.81204   0.22828   0.54765   0.00000  Uiso   1.00
C1125  C     0.76819   0.27869   0.59161   0.00000  Uiso   1.00
H1126  H     0.75986   0.29057   0.55598   0.00000  Uiso   1.00
H1127  H     0.79908   0.29676   0.59565   0.00000  Uiso   1.00
H1128  H     0.73711   0.28364   0.62869   0.00000  Uiso   1.00
C1129  C     0.16683   0.57986   0.75036   0.00000  Uiso   1.00
C1130  C     0.14663   0.47623   0.99037   0.00000  Uiso   1.00
C1131  C     0.15963   0.47162   0.93362   0.00000  Uiso   1.00
C1132  C     0.18401   0.47809   0.51285   0.00000  Uiso   1.00
C1133  C     0.23177   0.48181   0.97877   0.00000  Uiso   1.00
C1134  C     0.24348   0.46984   0.92494   0.00000  Uiso   1.00
C1135  C     0.20723   0.46106   0.90392   0.00000  Uiso   1.00
C1136  C     0.17576   0.47773   0.56794   0.00000  Uiso   1.00
C1137  C     0.25389   0.50896   0.55413   0.00000  Uiso   1.00
C1138  C     0.12565   0.48083   0.90800   0.00000  Uiso   1.00
C1139  C     0.20519   0.64556   0.71637   0.00000  Uiso   1.00
C1140  C     0.14083   0.49401   0.85107   0.00000  Uiso   1.00
C1141  C     0.20372   0.35510   0.71420   0.00000  Uiso   1.00
C1142  C     0.16525   0.37591   0.75159   0.00000  Uiso   1.00
C1143  C     0.12698   0.35398   0.78885   0.00000  Uiso   1.00
C1144  C     0.12773   0.64411   0.78704   0.00000  Uiso   1.00
C1145  C     0.16679   0.62392   0.75144   0.00000  Uiso   1.00
C1146  C     0.31778   0.47191   0.71925   0.00000  Uiso   1.00
C1147  C     0.03229   0.47203   0.71914   0.00000  Uiso   1.00
C1148  C     0.01622   0.52794   0.78059   0.00000  Uiso   1.00
C1149  C     0.30187   0.52865   0.78060   0.00000  Uiso   1.00
C1150  C     0.16600   0.42015   0.75124   0.00000  Uiso   1.00
C1151  C     0.19300   0.49989   0.64793   0.00000  Uiso   1.00
C1152  C     0.26645   0.49789   0.99927   0.00000  Uiso   1.00
C1153  C     0.20884   0.49550   0.58929   0.00000  Uiso   1.00
C1154  C     0.07730   0.48082   0.93858   0.00000  Uiso   1.00
C1155  C     0.06356   0.47996   0.99459   0.00000  Uiso   1.00
C1156  C     0.09781   0.48359   0.52055   0.00000  Uiso   1.00
H1157  H     0.09874   0.62613   0.81462   0.00000  Uiso   1.00
H1158  H     0.30658   0.44943   0.69453   0.00000  Uiso   1.00
H1159  H     0.05704   0.44961   0.69428   0.00000  Uiso   1.00
H1160  H     0.02838   0.55010   0.80494   0.00000  Uiso   1.00
H1161  H     0.28031   0.46761   0.89920   0.00000  Uiso   1.00
H1162  H     0.30192   0.50463   0.97187   0.00000  Uiso   1.00
H1163  H     0.14313   0.46421   0.59470   0.00000  Uiso   1.00
H1164  H     0.05029   0.48393   0.91941   0.00000  Uiso   1.00
H1165  H     0.02624   0.48079   0.51803   0.00000  Uiso   1.00
H1166  H     0.21730   0.44857   0.86326   0.00000  Uiso   1.00
H1167  H     0.23547   0.62922   0.68948   0.00000  Uiso   1.00
N1168  N     0.04760   0.50001   0.75001   0.00000  Uiso   1.00
N1169  N     0.28573   0.49998   0.75001   0.00000  Uiso   1.00
O1170  O     0.12846   0.56108   0.75001   0.00000  Uiso   1.00
O1171  O     0.20490   0.56107   0.75001   0.00000  Uiso   1.00
O1172  O     0.10947   0.50000   0.82681   0.00000  Uiso   1.00
O1173  O     0.18591   0.49999   0.82681   0.00000  Uiso   1.00
O1174  O     0.12843   0.43893   0.75000   0.00000  Uiso   1.00
O1175  O     0.20488   0.43892   0.75000   0.00000  Uiso   1.00
O1176  O     0.14742   0.50001   0.67319   0.00000  Uiso   1.00
O1177  O     0.22387   0.50000   0.67319   0.00000  Uiso   1.00
Zn1178 Zn    0.11562   0.50001   0.75000   0.00000  Uiso   1.00
Zn1179 Zn    0.21771   0.49999   0.75000   0.00000  Uiso   1.00
C1180  C     0.28747   0.53663   0.57238   0.00000  Uiso   1.00
C1181  C     0.26615   0.57961   0.59057   0.00000  Uiso   1.00
H1182  H     0.23263   0.57700   0.62515   0.00000  Uiso   1.00
H1183  H     0.29196   0.59919   0.60308   0.00000  Uiso   1.00
H1184  H     0.25859   0.59542   0.55662   0.00000  Uiso   1.00
H1185  H     0.29767   0.52130   0.60477   0.00000  Uiso   1.00
H1186  H     0.32067   0.54242   0.53820   0.00000  Uiso   1.00
O1187  O     0.24175   0.37638   0.67804   0.00000  Uiso   1.00
C1188  C     0.22926   0.39013   0.63315   0.00000  Uiso   1.00
H1189  H     0.25204   0.41787   0.61600   0.00000  Uiso   1.00
H1190  H     0.19164   0.40066   0.64421   0.00000  Uiso   1.00
C1191  C     0.23891   0.35607   0.58943   0.00000  Uiso   1.00
H1192  H     0.27633   0.34554   0.57903   0.00000  Uiso   1.00
H1193  H     0.21475   0.66217   0.60498   0.00000  Uiso   1.00
C1194  C     0.23073   0.37221   0.53847   0.00000  Uiso   1.00
H1195  H     0.19333   0.38248   0.54784   0.00000  Uiso   1.00
H1196  H     0.23768   0.34677   0.50776   0.00000  Uiso   1.00
H1197  H     0.25523   0.39894   0.52128   0.00000  Uiso   1.00
C1198  C     0.08671   0.37499   0.83259   0.00000  Uiso   1.00
C1199  C     0.04161   0.37643   0.81689   0.00000  Uiso   1.00
H1200  H     0.01326   0.39300   0.84886   0.00000  Uiso   1.00
H1201  H     0.04850   0.39335   0.77812   0.00000  Uiso   1.00
H1202  H     0.02882   0.34418   0.81255   0.00000  Uiso   1.00
H1203  H     0.07888   0.35736   0.87107   0.00000  Uiso   1.00
H1204  H     0.09658   0.40715   0.84174   0.00000  Uiso   1.00
C1205  C     0.27124   0.56257   0.81481   0.00000  Uiso   1.00
C1206  C     0.28527   0.60556   0.78870   0.00000  Uiso   1.00
H1207  H     0.28409   0.60525   0.74673   0.00000  Uiso   1.00
H1208  H     0.26021   0.62955   0.81250   0.00000  Uiso   1.00
H1209  H     0.32182   0.61446   0.78759   0.00000  Uiso   1.00
H1210  H     0.23320   0.55744   0.82272   0.00000  Uiso   1.00
H1211  H     0.27571   0.56293   0.85539   0.00000  Uiso   1.00
O1212  O     0.08314   0.49597   0.57436   0.00000  Uiso   1.00
C1213  C     0.07201   0.53929   0.57904   0.00000  Uiso   1.00
H1214  H     0.04098   0.54357   0.61635   0.00000  Uiso   1.00
H1215  H     0.06163   0.55178   0.54490   0.00000  Uiso   1.00
C1216  C     0.11375   0.56560   0.58441   0.00000  Uiso   1.00
H1217  H     0.12271   0.55504   0.62008   0.00000  Uiso   1.00
H1218  H     0.14537   0.56162   0.54765   0.00000  Uiso   1.00
C1219  C     0.10153   0.61202   0.59161   0.00000  Uiso   1.00
H1220  H     0.09319   0.62390   0.55598   0.00000  Uiso   1.00
H1221  H     0.13242   0.63009   0.59565   0.00000  Uiso   1.00
H1222  H     0.07045   0.61698   0.62869   0.00000  Uiso   1.00
C1223  C     0.50016   0.57986   0.75036   0.00000  Uiso   1.00
C1224  C     0.47997   0.47623   0.99037   0.00000  Uiso   1.00
C1225  C     0.49296   0.47162   0.93362   0.00000  Uiso   1.00
C1226  C     0.51734   0.47809   0.51285   0.00000  Uiso   1.00
C1227  C     0.56511   0.48181   0.97877   0.00000  Uiso   1.00
C1228  C     0.57682   0.46984   0.92494   0.00000  Uiso   1.00
C1229  C     0.54056   0.46106   0.90392   0.00000  Uiso   1.00
C1230  C     0.50909   0.47773   0.56794   0.00000  Uiso   1.00
C1231  C     0.58722   0.50896   0.55413   0.00000  Uiso   1.00
C1232  C     0.45899   0.48083   0.90800   0.00000  Uiso   1.00
C1233  C     0.53852   0.64556   0.71637   0.00000  Uiso   1.00
C1234  C     0.47416   0.49401   0.85107   0.00000  Uiso   1.00
C1235  C     0.53705   0.35510   0.71420   0.00000  Uiso   1.00
C1236  C     0.49858   0.37591   0.75159   0.00000  Uiso   1.00
C1237  C     0.46031   0.35398   0.78885   0.00000  Uiso   1.00
C1238  C     0.46106   0.64411   0.78704   0.00000  Uiso   1.00
C1239  C     0.50013   0.62392   0.75144   0.00000  Uiso   1.00
C1240  C     0.65111   0.47191   0.71925   0.00000  Uiso   1.00
C1241  C     0.36562   0.47203   0.71914   0.00000  Uiso   1.00
C1242  C     0.34956   0.52794   0.78059   0.00000  Uiso   1.00
C1243  C     0.63521   0.52865   0.78060   0.00000  Uiso   1.00
C1244  C     0.49933   0.42015   0.75124   0.00000  Uiso   1.00
C1245  C     0.52633   0.49989   0.64793   0.00000  Uiso   1.00
C1246  C     0.59979   0.49789   0.99927   0.00000  Uiso   1.00
C1247  C     0.54217   0.49550   0.58929   0.00000  Uiso   1.00
C1248  C     0.41063   0.48082   0.93858   0.00000  Uiso   1.00
C1249  C     0.39689   0.47996   0.99459   0.00000  Uiso   1.00
C1250  C     0.43114   0.48359   0.52055   0.00000  Uiso   1.00
H1251  H     0.43207   0.62613   0.81462   0.00000  Uiso   1.00
H1252  H     0.63991   0.44943   0.69453   0.00000  Uiso   1.00
H1253  H     0.39037   0.44961   0.69428   0.00000  Uiso   1.00
H1254  H     0.36172   0.55010   0.80494   0.00000  Uiso   1.00
H1255  H     0.61364   0.46761   0.89920   0.00000  Uiso   1.00
H1256  H     0.63525   0.50463   0.97187   0.00000  Uiso   1.00
H1257  H     0.47646   0.46421   0.59470   0.00000  Uiso   1.00
H1258  H     0.38363   0.48393   0.91941   0.00000  Uiso   1.00
H1259  H     0.35957   0.48079   0.51803   0.00000  Uiso   1.00
H1260  H     0.55063   0.44857   0.86326   0.00000  Uiso   1.00
H1261  H     0.56880   0.62922   0.68948   0.00000  Uiso   1.00
N1262  N     0.38093   0.50001   0.75001   0.00000  Uiso   1.00
N1263  N     0.61906   0.49998   0.75001   0.00000  Uiso   1.00
O1264  O     0.46179   0.56108   0.75001   0.00000  Uiso   1.00
O1265  O     0.53823   0.56107   0.75001   0.00000  Uiso   1.00
O1266  O     0.44280   0.50000   0.82681   0.00000  Uiso   1.00
O1267  O     0.51924   0.49999   0.82681   0.00000  Uiso   1.00
O1268  O     0.46177   0.43893   0.75000   0.00000  Uiso   1.00
O1269  O     0.53821   0.43892   0.75000   0.00000  Uiso   1.00
O1270  O     0.48076   0.50001   0.67319   0.00000  Uiso   1.00
O1271  O     0.55720   0.50000   0.67319   0.00000  Uiso   1.00
Zn1272 Zn    0.44896   0.50001   0.75000   0.00000  Uiso   1.00
Zn1273 Zn    0.55104   0.49999   0.75000   0.00000  Uiso   1.00
C1274  C     0.62081   0.53663   0.57238   0.00000  Uiso   1.00
C1275  C     0.59948   0.57961   0.59057   0.00000  Uiso   1.00
H1276  H     0.56596   0.57700   0.62515   0.00000  Uiso   1.00
H1277  H     0.62529   0.59919   0.60308   0.00000  Uiso   1.00
H1278  H     0.59193   0.59542   0.55662   0.00000  Uiso   1.00
H1279  H     0.63101   0.52130   0.60477   0.00000  Uiso   1.00
H1280  H     0.65400   0.54242   0.53820   0.00000  Uiso   1.00
O1281  O     0.57508   0.37638   0.67804   0.00000  Uiso   1.00
C1282  C     0.56259   0.39013   0.63315   0.00000  Uiso   1.00
H1283  H     0.58538   0.41787   0.61600   0.00000  Uiso   1.00
H1284  H     0.52497   0.40066   0.64421   0.00000  Uiso   1.00
C1285  C     0.57224   0.35607   0.58943   0.00000  Uiso   1.00
H1286  H     0.60966   0.34554   0.57903   0.00000  Uiso   1.00
H1287  H     0.54809   0.66217   0.60498   0.00000  Uiso   1.00
C1288  C     0.56407   0.37221   0.53847   0.00000  Uiso   1.00
H1289  H     0.52666   0.38248   0.54784   0.00000  Uiso   1.00
H1290  H     0.57102   0.34677   0.50776   0.00000  Uiso   1.00
H1291  H     0.58856   0.39894   0.52128   0.00000  Uiso   1.00
C1292  C     0.42004   0.37499   0.83259   0.00000  Uiso   1.00
C1293  C     0.37494   0.37643   0.81689   0.00000  Uiso   1.00
H1294  H     0.34659   0.39300   0.84886   0.00000  Uiso   1.00
H1295  H     0.38183   0.39335   0.77812   0.00000  Uiso   1.00
H1296  H     0.36215   0.34418   0.81255   0.00000  Uiso   1.00
H1297  H     0.41222   0.35736   0.87107   0.00000  Uiso   1.00
H1298  H     0.42992   0.40715   0.84174   0.00000  Uiso   1.00
C1299  C     0.60457   0.56257   0.81481   0.00000  Uiso   1.00
C1300  C     0.61860   0.60556   0.78870   0.00000  Uiso   1.00
H1301  H     0.61742   0.60525   0.74673   0.00000  Uiso   1.00
H1302  H     0.59354   0.62955   0.81250   0.00000  Uiso   1.00
H1303  H     0.65516   0.61446   0.78759   0.00000  Uiso   1.00
H1304  H     0.56654   0.55744   0.82272   0.00000  Uiso   1.00
H1305  H     0.60904   0.56293   0.85539   0.00000  Uiso   1.00
O1306  O     0.41648   0.49597   0.57436   0.00000  Uiso   1.00
C1307  C     0.40535   0.53929   0.57904   0.00000  Uiso   1.00
H1308  H     0.37432   0.54357   0.61635   0.00000  Uiso   1.00
H1309  H     0.39496   0.55178   0.54490   0.00000  Uiso   1.00
C1310  C     0.44708   0.56560   0.58441   0.00000  Uiso   1.00
H1311  H     0.45605   0.55504   0.62008   0.00000  Uiso   1.00
H1312  H     0.47870   0.56162   0.54765   0.00000  Uiso   1.00
C1313  C     0.43486   0.61202   0.59161   0.00000  Uiso   1.00
H1314  H     0.42652   0.62390   0.55598   0.00000  Uiso   1.00
H1315  H     0.46575   0.63009   0.59565   0.00000  Uiso   1.00
H1316  H     0.40378   0.61698   0.62869   0.00000  Uiso   1.00
C1317  C     0.83349   0.57986   0.75036   0.00000  Uiso   1.00
C1318  C     0.81330   0.47623   0.99037   0.00000  Uiso   1.00
C1319  C     0.82630   0.47162   0.93362   0.00000  Uiso   1.00
C1320  C     0.85067   0.47809   0.51285   0.00000  Uiso   1.00
C1321  C     0.89844   0.48181   0.97877   0.00000  Uiso   1.00
C1322  C     0.91015   0.46984   0.92494   0.00000  Uiso   1.00
C1323  C     0.87389   0.46106   0.90392   0.00000  Uiso   1.00
C1324  C     0.84243   0.47773   0.56794   0.00000  Uiso   1.00
C1325  C     0.92055   0.50896   0.55413   0.00000  Uiso   1.00
C1326  C     0.79232   0.48083   0.90800   0.00000  Uiso   1.00
C1327  C     0.87186   0.64556   0.71637   0.00000  Uiso   1.00
C1328  C     0.80749   0.49401   0.85107   0.00000  Uiso   1.00
C1329  C     0.87039   0.35510   0.71420   0.00000  Uiso   1.00
C1330  C     0.83192   0.37591   0.75159   0.00000  Uiso   1.00
C1331  C     0.79365   0.35398   0.78885   0.00000  Uiso   1.00
C1332  C     0.79440   0.64411   0.78704   0.00000  Uiso   1.00
C1333  C     0.83346   0.62392   0.75144   0.00000  Uiso   1.00
C1334  C     0.98445   0.47191   0.71925   0.00000  Uiso   1.00
C1335  C     0.69895   0.47203   0.71914   0.00000  Uiso   1.00
C1336  C     0.68289   0.52794   0.78059   0.00000  Uiso   1.00
C1337  C     0.96854   0.52865   0.78060   0.00000  Uiso   1.00
C1338  C     0.83266   0.42015   0.75124   0.00000  Uiso   1.00
C1339  C     0.85967   0.49989   0.64793   0.00000  Uiso   1.00
C1340  C     0.93312   0.49789   0.99927   0.00000  Uiso   1.00
C1341  C     0.87550   0.49550   0.58929   0.00000  Uiso   1.00
C1342  C     0.74397   0.48082   0.93858   0.00000  Uiso   1.00
C1343  C     0.73022   0.47996   0.99459   0.00000  Uiso   1.00
C1344  C     0.76448   0.48359   0.52055   0.00000  Uiso   1.00
H1345  H     0.76540   0.62613   0.81462   0.00000  Uiso   1.00
H1346  H     0.97324   0.44943   0.69453   0.00000  Uiso   1.00
H1347  H     0.72371   0.44961   0.69428   0.00000  Uiso   1.00
H1348  H     0.69505   0.55010   0.80494   0.00000  Uiso   1.00
H1349  H     0.94697   0.46761   0.89920   0.00000  Uiso   1.00
H1350  H     0.96858   0.50463   0.97187   0.00000  Uiso   1.00
H1351  H     0.80980   0.46421   0.59470   0.00000  Uiso   1.00
H1352  H     0.71696   0.48393   0.91941   0.00000  Uiso   1.00
H1353  H     0.69291   0.48079   0.51803   0.00000  Uiso   1.00
H1354  H     0.88397   0.44857   0.86326   0.00000  Uiso   1.00
H1355  H     0.90213   0.62922   0.68948   0.00000  Uiso   1.00
N1356  N     0.71426   0.50001   0.75001   0.00000  Uiso   1.00
N1357  N     0.95239   0.49998   0.75001   0.00000  Uiso   1.00
O1358  O     0.79512   0.56108   0.75001   0.00000  Uiso   1.00
O1359  O     0.87157   0.56107   0.75001   0.00000  Uiso   1.00
O1360  O     0.77613   0.50000   0.82681   0.00000  Uiso   1.00
O1361  O     0.85258   0.49999   0.82681   0.00000  Uiso   1.00
O1362  O     0.79510   0.43893   0.75000   0.00000  Uiso   1.00
O1363  O     0.87154   0.43892   0.75000   0.00000  Uiso   1.00
O1364  O     0.81409   0.50001   0.67319   0.00000  Uiso   1.00
O1365  O     0.89053   0.50000   0.67319   0.00000  Uiso   1.00
Zn1366 Zn    0.78229   0.50001   0.75000   0.00000  Uiso   1.00
Zn1367 Zn    0.88438   0.49999   0.75000   0.00000  Uiso   1.00
C1368  C     0.95414   0.53663   0.57238   0.00000  Uiso   1.00
C1369  C     0.93282   0.57961   0.59057   0.00000  Uiso   1.00
H1370  H     0.89930   0.57700   0.62515   0.00000  Uiso   1.00
H1371  H     0.95863   0.59919   0.60308   0.00000  Uiso   1.00
H1372  H     0.92526   0.59542   0.55662   0.00000  Uiso   1.00
H1373  H     0.96434   0.52130   0.60477   0.00000  Uiso   1.00
H1374  H     0.98733   0.54242   0.53820   0.00000  Uiso   1.00
O1375  O     0.90842   0.37638   0.67804   0.00000  Uiso   1.00
C1376  C     0.89593   0.39013   0.63315   0.00000  Uiso   1.00
H1377  H     0.91871   0.41787   0.61600   0.00000  Uiso   1.00
H1378  H     0.85830   0.40066   0.64421   0.00000  Uiso   1.00
C1379  C     0.90558   0.35607   0.58943   0.00000  Uiso   1.00
H1380  H     0.94300   0.34554   0.57903   0.00000  Uiso   1.00
H1381  H     0.88142   0.66217   0.60498   0.00000  Uiso   1.00
C1382  C     0.89740   0.37221   0.53847   0.00000  Uiso   1.00
H1383  H     0.85999   0.38248   0.54784   0.00000  Uiso   1.00
H1384  H     0.90435   0.34677   0.50776   0.00000  Uiso   1.00
H1385  H     0.92189   0.39894   0.52128   0.00000  Uiso   1.00
C1386  C     0.75338   0.37499   0.83259   0.00000  Uiso   1.00
C1387  C     0.70828   0.37643   0.81689   0.00000  Uiso   1.00
H1388  H     0.67993   0.39300   0.84886   0.00000  Uiso   1.00
H1389  H     0.71516   0.39335   0.77812   0.00000  Uiso   1.00
H1390  H     0.69549   0.34418   0.81255   0.00000  Uiso   1.00
H1391  H     0.74555   0.35736   0.87107   0.00000  Uiso   1.00
H1392  H     0.76325   0.40715   0.84174   0.00000  Uiso   1.00
C1393  C     0.93790   0.56257   0.81481   0.00000  Uiso   1.00
C1394  C     0.95194   0.60556   0.78870   0.00000  Uiso   1.00
H1395  H     0.95076   0.60525   0.74673   0.00000  Uiso   1.00
H1396  H     0.92687   0.62955   0.81250   0.00000  Uiso   1.00
H1397  H     0.98849   0.61446   0.78759   0.00000  Uiso   1.00
H1398  H     0.89987   0.55744   0.82272   0.00000  Uiso   1.00
H1399  H     0.94238   0.56293   0.85539   0.00000  Uiso   1.00
O1400  O     0.74981   0.49597   0.57436   0.00000  Uiso   1.00
C1401  C     0.73868   0.53929   0.57904   0.00000  Uiso   1.00
H1402  H     0.70765   0.54357   0.61635   0.00000  Uiso   1.00
H1403  H     0.72830   0.55178   0.54490   0.00000  Uiso   1.00
C1404  C     0.78042   0.56560   0.58441   0.00000  Uiso   1.00
H1405  H     0.78938   0.55504   0.62008   0.00000  Uiso   1.00
H1406  H     0.81204   0.56162   0.54765   0.00000  Uiso   1.00
C1407  C     0.76819   0.61202   0.59161   0.00000  Uiso   1.00
H1408  H     0.75986   0.62390   0.55598   0.00000  Uiso   1.00
H1409  H     0.79908   0.63009   0.59565   0.00000  Uiso   1.00
H1410  H     0.73711   0.61698   0.62869   0.00000  Uiso   1.00
C1411  C     0.16683   0.91320   0.75036   0.00000  Uiso   1.00
C1412  C     0.14663   0.80956   0.99037   0.00000  Uiso   1.00
C1413  C     0.15963   0.80495   0.93362   0.00000  Uiso   1.00
C1414  C     0.18401   0.81142   0.51285   0.00000  Uiso   1.00
C1415  C     0.23177   0.81514   0.97877   0.00000  Uiso   1.00
C1416  C     0.24348   0.80318   0.92494   0.00000  Uiso   1.00
C1417  C     0.20723   0.79440   0.90392   0.00000  Uiso   1.00
C1418  C     0.17576   0.81106   0.56794   0.00000  Uiso   1.00
C1419  C     0.25389   0.84229   0.55413   0.00000  Uiso   1.00
C1420  C     0.12565   0.81416   0.90800   0.00000  Uiso   1.00
C1421  C     0.20519   0.97889   0.71637   0.00000  Uiso   1.00
C1422  C     0.14083   0.82734   0.85107   0.00000  Uiso   1.00
C1423  C     0.20372   0.68843   0.71420   0.00000  Uiso   1.00
C1424  C     0.16525   0.70924   0.75159   0.00000  Uiso   1.00
C1425  C     0.12698   0.68732   0.78885   0.00000  Uiso   1.00
C1426  C     0.12773   0.97744   0.78704   0.00000  Uiso   1.00
C1427  C     0.16679   0.95725   0.75144   0.00000  Uiso   1.00
C1428  C     0.31778   0.80525   0.71925   0.00000  Uiso   1.00
C1429  C     0.03229   0.80536   0.71914   0.00000  Uiso   1.00
C1430  C     0.01622   0.86128   0.78059   0.00000  Uiso   1.00
C1431  C     0.30187   0.86199   0.78060   0.00000  Uiso   1.00
C1432  C     0.16600   0.75348   0.75124   0.00000  Uiso   1.00
C1433  C     0.19300   0.83322   0.64793   0.00000  Uiso   1.00
C1434  C     0.26645   0.83122   0.99927   0.00000  Uiso   1.00
C1435  C     0.20884   0.82884   0.58929   0.00000  Uiso   1.00
C1436  C     0.07730   0.81415   0.93858   0.00000  Uiso   1.00
C1437  C     0.06356   0.81329   0.99459   0.00000  Uiso   1.00
C1438  C     0.09781   0.81692   0.52055   0.00000  Uiso   1.00
H1439  H     0.09874   0.95946   0.81462   0.00000  Uiso   1.00
H1440  H     0.30658   0.78277   0.69453   0.00000  Uiso   1.00
H1441  H     0.05704   0.78294   0.69428   0.00000  Uiso   1.00
H1442  H     0.02838   0.88343   0.80494   0.00000  Uiso   1.00
H1443  H     0.28031   0.80094   0.89920   0.00000  Uiso   1.00
H1444  H     0.30192   0.83796   0.97187   0.00000  Uiso   1.00
H1445  H     0.14313   0.79754   0.59470   0.00000  Uiso   1.00
H1446  H     0.05029   0.81727   0.91941   0.00000  Uiso   1.00
H1447  H     0.02624   0.81412   0.51803   0.00000  Uiso   1.00
H1448  H     0.21730   0.78190   0.86326   0.00000  Uiso   1.00
H1449  H     0.23547   0.96255   0.68948   0.00000  Uiso   1.00
N1450  N     0.04760   0.83334   0.75001   0.00000  Uiso   1.00
N1451  N     0.28573   0.83331   0.75001   0.00000  Uiso   1.00
O1452  O     0.12846   0.89442   0.75001   0.00000  Uiso   1.00
O1453  O     0.20490   0.89441   0.75001   0.00000  Uiso   1.00
O1454  O     0.10947   0.83333   0.82681   0.00000  Uiso   1.00
O1455  O     0.18591   0.83332   0.82681   0.00000  Uiso   1.00
O1456  O     0.12843   0.77226   0.75000   0.00000  Uiso   1.00
O1457  O     0.20488   0.77225   0.75000   0.00000  Uiso   1.00
O1458  O     0.14742   0.83335   0.67319   0.00000  Uiso   1.00
O1459  O     0.22387   0.83334   0.67319   0.00000  Uiso   1.00
Zn1460 Zn    0.11562   0.83334   0.75000   0.00000  Uiso   1.00
Zn1461 Zn    0.21771   0.83333   0.75000   0.00000  Uiso   1.00
C1462  C     0.28747   0.86996   0.57238   0.00000  Uiso   1.00
C1463  C     0.26615   0.91295   0.59057   0.00000  Uiso   1.00
H1464  H     0.23263   0.91033   0.62515   0.00000  Uiso   1.00
H1465  H     0.29196   0.93252   0.60308   0.00000  Uiso   1.00
H1466  H     0.25859   0.92875   0.55662   0.00000  Uiso   1.00
H1467  H     0.29767   0.85463   0.60477   0.00000  Uiso   1.00
H1468  H     0.32067   0.87575   0.53820   0.00000  Uiso   1.00
O1469  O     0.24175   0.70971   0.67804   0.00000  Uiso   1.00
C1470  C     0.22926   0.72346   0.63315   0.00000  Uiso   1.00
H1471  H     0.25204   0.75120   0.61600   0.00000  Uiso   1.00
H1472  H     0.19164   0.73399   0.64421   0.00000  Uiso   1.00
C1473  C     0.23891   0.68941   0.58943   0.00000  Uiso   1.00
H1474  H     0.27633   0.67887   0.57903   0.00000  Uiso   1.00
H1475  H     0.21475   0.99550   0.60498   0.00000  Uiso   1.00
C1476  C     0.23073   0.70554   0.53847   0.00000  Uiso   1.00
H1477  H     0.19333   0.71581   0.54784   0.00000  Uiso   1.00
H1478  H     0.23768   0.68010   0.50776   0.00000  Uiso   1.00
H1479  H     0.25523   0.73227   0.52128   0.00000  Uiso   1.00
C1480  C     0.08671   0.70833   0.83259   0.00000  Uiso   1.00
C1481  C     0.04161   0.70977   0.81689   0.00000  Uiso   1.00
H1482  H     0.01326   0.72633   0.84886   0.00000  Uiso   1.00
H1483  H     0.04850   0.72668   0.77812   0.00000  Uiso   1.00
H1484  H     0.02882   0.67751   0.81255   0.00000  Uiso   1.00
H1485  H     0.07888   0.69069   0.87107   0.00000  Uiso   1.00
H1486  H     0.09658   0.74048   0.84174   0.00000  Uiso   1.00
C1487  C     0.27124   0.89590   0.81481   0.00000  Uiso   1.00
C1488  C     0.28527   0.93890   0.78870   0.00000  Uiso   1.00
H1489  H     0.28409   0.93858   0.74673   0.00000  Uiso   1.00
H1490  H     0.26021   0.96288   0.81250   0.00000  Uiso   1.00
H1491  H     0.32182   0.94779   0.78759   0.00000  Uiso   1.00
H1492  H     0.23320   0.89077   0.82272   0.00000  Uiso   1.00
H1493  H     0.27571   0.89626   0.85539   0.00000  Uiso   1.00
O1494  O     0.08314   0.82930   0.57436   0.00000  Uiso   1.00
C1495  C     0.07201   0.87262   0.57904   0.00000  Uiso   1.00
H1496  H     0.04098   0.87690   0.61635   0.00000  Uiso   1.00
H1497  H     0.06163   0.88511   0.54490   0.00000  Uiso   1.00
C1498  C     0.11375   0.89893   0.58441   0.00000  Uiso   1.00
H1499  H     0.12271   0.88838   0.62008   0.00000  Uiso   1.00
H1500  H     0.14537   0.89495   0.54765   0.00000  Uiso   1.00
C1501  C     0.10153   0.94535   0.59161   0.00000  Uiso   1.00
H1502  H     0.09319   0.95723   0.55598   0.00000  Uiso   1.00
H1503  H     0.13242   0.96343   0.59565   0.00000  Uiso   1.00
H1504  H     0.07045   0.95031   0.62869   0.00000  Uiso   1.00
C1505  C     0.50016   0.91320   0.75036   0.00000  Uiso   1.00
C1506  C     0.47997   0.80956   0.99037   0.00000  Uiso   1.00
C1507  C     0.49296   0.80495   0.93362   0.00000  Uiso   1.00
C1508  C     0.51734   0.81142   0.51285   0.00000  Uiso   1.00
C1509  C     0.56511   0.81514   0.97877   0.00000  Uiso   1.00
C1510  C     0.57682   0.80318   0.92494   0.00000  Uiso   1.00
C1511  C     0.54056   0.79440   0.90392   0.00000  Uiso   1.00
C1512  C     0.50909   0.81106   0.56794   0.00000  Uiso   1.00
C1513  C     0.58722   0.84229   0.55413   0.00000  Uiso   1.00
C1514  C     0.45899   0.81416   0.90800   0.00000  Uiso   1.00
C1515  C     0.53852   0.97889   0.71637   0.00000  Uiso   1.00
C1516  C     0.47416   0.82734   0.85107   0.00000  Uiso   1.00
C1517  C     0.53705   0.68843   0.71420   0.00000  Uiso   1.00
C1518  C     0.49858   0.70924   0.75159   0.00000  Uiso   1.00
C1519  C     0.46031   0.68732   0.78885   0.00000  Uiso   1.00
C1520  C     0.46106   0.97744   0.78704   0.00000  Uiso   1.00
C1521  C     0.50013   0.95725   0.75144   0.00000  Uiso   1.00
C1522  C     0.65111   0.80525   0.71925   0.00000  Uiso   1.00
C1523  C     0.36562   0.80536   0.71914   0.00000  Uiso   1.00
C1524  C     0.34956   0.86128   0.78059   0.00000  Uiso   1.00
C1525  C     0.63521   0.86199   0.78060   0.00000  Uiso   1.00
C1526  C     0.49933   0.75348   0.75124   0.00000  Uiso   1.00
C1527  C     0.52633   0.83322   0.64793   0.00000  Uiso   1.00
C1528  C     0.59979   0.83122   0.99927   0.00000  Uiso   1.00
C1529  C     0.54217   0.82884   0.58929   0.00000  Uiso   1.00
C1530  C     0.41063   0.81415   0.93858   0.00000  Uiso   1.00
C1531  C     0.39689   0.81329   0.99459   0.00000  Uiso   1.00
C1532  C     0.43114   0.81692   0.52055   0.00000  Uiso   1.00
H1533  H     0.43207   0.95946   0.81462   0.00000  Uiso   1.00
H1534  H     0.63991   0.78277   0.69453   0.00000  Uiso   1.00
H1535  H     0.39037   0.78294   0.69428   0.00000  Uiso   1.00
H1536  H     0.36172   0.88343   0.80494   0.00000  Uiso   1.00
H1537  H     0.61364   0.80094   0.89920   0.00000  Uiso   1.00
H1538  H     0.63525   0.83796   0.97187   0.00000  Uiso   1.00
H1539  H     0.47646   0.79754   0.59470   0.00000  Uiso   1.00
H1540  H     0.38363   0.81727   0.91941   0.00000  Uiso   1.00
H1541  H     0.35957   0.81412   0.51803   0.00000  Uiso   1.00
H1542  H     0.55063   0.78190   0.86326   0.00000  Uiso   1.00
H1543  H     0.56880   0.96255   0.68948   0.00000  Uiso   1.00
N1544  N     0.38093   0.83334   0.75001   0.00000  Uiso   1.00
N1545  N     0.61906   0.83331   0.75001   0.00000  Uiso   1.00
O1546  O     0.46179   0.89442   0.75001   0.00000  Uiso   1.00
O1547  O     0.53823   0.89441   0.75001   0.00000  Uiso   1.00
O1548  O     0.44280   0.83333   0.82681   0.00000  Uiso   1.00
O1549  O     0.51924   0.83332   0.82681   0.00000  Uiso   1.00
O1550  O     0.46177   0.77226   0.75000   0.00000  Uiso   1.00
O1551  O     0.53821   0.77225   0.75000   0.00000  Uiso   1.00
O1552  O     0.48076   0.83335   0.67319   0.00000  Uiso   1.00
O1553  O     0.55720   0.83334   0.67319   0.00000  Uiso   1.00
Zn1554 Zn    0.44896   0.83334   0.75000   0.00000  Uiso   1.00
Zn1555 Zn    0.55104   0.83333   0.75000   0.00000  Uiso   1.00
C1556  C     0.62081   0.86996   0.57238   0.00000  Uiso   1.00
C1557  C     0.59948   0.91295   0.59057   0.00000  Uiso   1.00
H1558  H     0.56596   0.91033   0.62515   0.00000  Uiso   1.00
H1559  H     0.62529   0.93252   0.60308   0.00000  Uiso   1.00
H1560  H     0.59193   0.92875   0.55662   0.00000  Uiso   1.00
H1561  H     0.63101   0.85463   0.60477   0.00000  Uiso   1.00
H1562  H     0.65400   0.87575   0.53820   0.00000  Uiso   1.00
O1563  O     0.57508   0.70971   0.67804   0.00000  Uiso   1.00
C1564  C     0.56259   0.72346   0.63315   0.00000  Uiso   1.00
H1565  H     0.58538   0.75120   0.61600   0.00000  Uiso   1.00
H1566  H     0.52497   0.73399   0.64421   0.00000  Uiso   1.00
C1567  C     0.57224   0.68941   0.58943   0.00000  Uiso   1.00
H1568  H     0.60966   0.67887   0.57903   0.00000  Uiso   1.00
H1569  H     0.54809   0.99550   0.60498   0.00000  Uiso   1.00
C1570  C     0.56407   0.70554   0.53847   0.00000  Uiso   1.00
H1571  H     0.52666   0.71581   0.54784   0.00000  Uiso   1.00
H1572  H     0.57102   0.68010   0.50776   0.00000  Uiso   1.00
H1573  H     0.58856   0.73227   0.52128   0.00000  Uiso   1.00
C1574  C     0.42004   0.70833   0.83259   0.00000  Uiso   1.00
C1575  C     0.37494   0.70977   0.81689   0.00000  Uiso   1.00
H1576  H     0.34659   0.72633   0.84886   0.00000  Uiso   1.00
H1577  H     0.38183   0.72668   0.77812   0.00000  Uiso   1.00
H1578  H     0.36215   0.67751   0.81255   0.00000  Uiso   1.00
H1579  H     0.41222   0.69069   0.87107   0.00000  Uiso   1.00
H1580  H     0.42992   0.74048   0.84174   0.00000  Uiso   1.00
C1581  C     0.60457   0.89590   0.81481   0.00000  Uiso   1.00
C1582  C     0.61860   0.93890   0.78870   0.00000  Uiso   1.00
H1583  H     0.61742   0.93858   0.74673   0.00000  Uiso   1.00
H1584  H     0.59354   0.96288   0.81250   0.00000  Uiso   1.00
H1585  H     0.65516   0.94779   0.78759   0.00000  Uiso   1.00
H1586  H     0.56654   0.89077   0.82272   0.00000  Uiso   1.00
H1587  H     0.60904   0.89626   0.85539   0.00000  Uiso   1.00
O1588  O     0.41648   0.82930   0.57436   0.00000  Uiso   1.00
C1589  C     0.40535   0.87262   0.57904   0.00000  Uiso   1.00
H1590  H     0.37432   0.87690   0.61635   0.00000  Uiso   1.00
H1591  H     0.39496   0.88511   0.54490   0.00000  Uiso   1.00
C1592  C     0.44708   0.89893   0.58441   0.00000  Uiso   1.00
H1593  H     0.45605   0.88838   0.62008   0.00000  Uiso   1.00
H1594  H     0.47870   0.89495   0.54765   0.00000  Uiso   1.00
C1595  C     0.43486   0.94535   0.59161   0.00000  Uiso   1.00
H1596  H     0.42652   0.95723   0.55598   0.00000  Uiso   1.00
H1597  H     0.46575   0.96343   0.59565   0.00000  Uiso   1.00
H1598  H     0.40378   0.95031   0.62869   0.00000  Uiso   1.00
C1599  C     0.83349   0.91320   0.75036   0.00000  Uiso   1.00
C1600  C     0.81330   0.80956   0.99037   0.00000  Uiso   1.00
C1601  C     0.82630   0.80495   0.93362   0.00000  Uiso   1.00
C1602  C     0.85067   0.81142   0.51285   0.00000  Uiso   1.00
C1603  C     0.89844   0.81514   0.97877   0.00000  Uiso   1.00
C1604  C     0.91015   0.80318   0.92494   0.00000  Uiso   1.00
C1605  C     0.87389   0.79440   0.90392   0.00000  Uiso   1.00
C1606  C     0.84243   0.81106   0.56794   0.00000  Uiso   1.00
C1607  C     0.92055   0.84229   0.55413   0.00000  Uiso   1.00
C1608  C     0.79232   0.81416   0.90800   0.00000  Uiso   1.00
C1609  C     0.87186   0.97889   0.71637   0.00000  Uiso   1.00
C1610  C     0.80749   0.82734   0.85107   0.00000  Uiso   1.00
C1611  C     0.87039   0.68843   0.71420   0.00000  Uiso   1.00
C1612  C     0.83192   0.70924   0.75159   0.00000  Uiso   1.00
C1613  C     0.79365   0.68732   0.78885   0.00000  Uiso   1.00
C1614  C     0.79440   0.97744   0.78704   0.00000  Uiso   1.00
C1615  C     0.83346   0.95725   0.75144   0.00000  Uiso   1.00
C1616  C     0.98445   0.80525   0.71925   0.00000  Uiso   1.00
C1617  C     0.69895   0.80536   0.71914   0.00000  Uiso   1.00
C1618  C     0.68289   0.86128   0.78059   0.00000  Uiso   1.00
C1619  C     0.96854   0.86199   0.78060   0.00000  Uiso   1.00
C1620  C     0.83266   0.75348   0.75124   0.00000  Uiso   1.00
C1621  C     0.85967   0.83322   0.64793   0.00000  Uiso   1.00
C1622  C     0.93312   0.83122   0.99927   0.00000  Uiso   1.00
C1623  C     0.87550   0.82884   0.58929   0.00000  Uiso   1.00
C1624  C     0.74397   0.81415   0.93858   0.00000  Uiso   1.00
C1625  C     0.73022   0.81329   0.99459   0.00000  Uiso   1.00
C1626  C     0.76448   0.81692   0.52055   0.00000  Uiso   1.00
H1627  H     0.76540   0.95946   0.81462   0.00000  Uiso   1.00
H1628  H     0.97324   0.78277   0.69453   0.00000  Uiso   1.00
H1629  H     0.72371   0.78294   0.69428   0.00000  Uiso   1.00
H1630  H     0.69505   0.88343   0.80494   0.00000  Uiso   1.00
H1631  H     0.94697   0.80094   0.89920   0.00000  Uiso   1.00
H1632  H     0.96858   0.83796   0.97187   0.00000  Uiso   1.00
H1633  H     0.80980   0.79754   0.59470   0.00000  Uiso   1.00
H1634  H     0.71696   0.81727   0.91941   0.00000  Uiso   1.00
H1635  H     0.69291   0.81412   0.51803   0.00000  Uiso   1.00
H1636  H     0.88397   0.78190   0.86326   0.00000  Uiso   1.00
H1637  H     0.90213   0.96255   0.68948   0.00000  Uiso   1.00
N1638  N     0.71426   0.83334   0.75001   0.00000  Uiso   1.00
N1639  N     0.95239   0.83331   0.75001   0.00000  Uiso   1.00
O1640  O     0.79512   0.89442   0.75001   0.00000  Uiso   1.00
O1641  O     0.87157   0.89441   0.75001   0.00000  Uiso   1.00
O1642  O     0.77613   0.83333   0.82681   0.00000  Uiso   1.00
O1643  O     0.85258   0.83332   0.82681   0.00000  Uiso   1.00
O1644  O     0.79510   0.77226   0.75000   0.00000  Uiso   1.00
O1645  O     0.87154   0.77225   0.75000   0.00000  Uiso   1.00
O1646  O     0.81409   0.83335   0.67319   0.00000  Uiso   1.00
O1647  O     0.89053   0.83334   0.67319   0.00000  Uiso   1.00
Zn1648 Zn    0.78229   0.83334   0.75000   0.00000  Uiso   1.00
Zn1649 Zn    0.88438   0.83333   0.75000   0.00000  Uiso   1.00
C1650  C     0.95414   0.86996   0.57238   0.00000  Uiso   1.00
C1651  C     0.93282   0.91295   0.59057   0.00000  Uiso   1.00
H1652  H     0.89930   0.91033   0.62515   0.00000  Uiso   1.00
H1653  H     0.95863   0.93252   0.60308   0.00000  Uiso   1.00
H1654  H     0.92526   0.92875   0.55662   0.00000  Uiso   1.00
H1655  H     0.96434   0.85463   0.60477   0.00000  Uiso   1.00
H1656  H     0.98733   0.87575   0.53820   0.00000  Uiso   1.00
O1657  O     0.90842   0.70971   0.67804   0.00000  Uiso   1.00
C1658  C     0.89593   0.72346   0.63315   0.00000  Uiso   1.00
H1659  H     0.91871   0.75120   0.61600   0.00000  Uiso   1.00
H1660  H     0.85830   0.73399   0.64421   0.00000  Uiso   1.00
C1661  C     0.90558   0.68941   0.58943   0.00000  Uiso   1.00
H1662  H     0.94300   0.67887   0.57903   0.00000  Uiso   1.00
H1663  H     0.88142   0.99550   0.60498   0.00000  Uiso   1.00
C1664  C     0.89740   0.70554   0.53847   0.00000  Uiso   1.00
H1665  H     0.85999   0.71581   0.54784   0.00000  Uiso   1.00
H1666  H     0.90435   0.68010   0.50776   0.00000  Uiso   1.00
H1667  H     0.92189   0.73227   0.52128   0.00000  Uiso   1.00
C1668  C     0.75338   0.70833   0.83259   0.00000  Uiso   1.00
C1669  C     0.70828   0.70977   0.81689   0.00000  Uiso   1.00
H1670  H     0.67993   0.72633   0.84886   0.00000  Uiso   1.00
H1671  H     0.71516   0.72668   0.77812   0.00000  Uiso   1.00
H1672  H     0.69549   0.67751   0.81255   0.00000  Uiso   1.00
H1673  H     0.74555   0.69069   0.87107   0.00000  Uiso   1.00
H1674  H     0.76325   0.74048   0.84174   0.00000  Uiso   1.00
C1675  C     0.93790   0.89590   0.81481   0.00000  Uiso   1.00
C1676  C     0.95194   0.93890   0.78870   0.00000  Uiso   1.00
H1677  H     0.95076   0.93858   0.74673   0.00000  Uiso   1.00
H1678  H     0.92687   0.96288   0.81250   0.00000  Uiso   1.00
H1679  H     0.98849   0.94779   0.78759   0.00000  Uiso   1.00
H1680  H     0.89987   0.89077   0.82272   0.00000  Uiso   1.00
H1681  H     0.94238   0.89626   0.85539   0.00000  Uiso   1.00
O1682  O     0.74981   0.82930   0.57436   0.00000  Uiso   1.00
C1683  C     0.73868   0.87262   0.57904   0.00000  Uiso   1.00
H1684  H     0.70765   0.87690   0.61635   0.00000  Uiso   1.00
H1685  H     0.72830   0.88511   0.54490   0.00000  Uiso   1.00
C1686  C     0.78042   0.89893   0.58441   0.00000  Uiso   1.00
H1687  H     0.78938   0.88838   0.62008   0.00000  Uiso   1.00
H1688  H     0.81204   0.89495   0.54765   0.00000  Uiso   1.00
C1689  C     0.76819   0.94535   0.59161   0.00000  Uiso   1.00
H1690  H     0.75986   0.95723   0.55598   0.00000  Uiso   1.00
H1691  H     0.79908   0.96343   0.59565   0.00000  Uiso   1.00
H1692  H     0.73711   0.95031   0.62869   0.00000  Uiso   1.00
loop_
_geom_bond_atom_site_label_1
_geom_bond_atom_site_label_2
_geom_bond_distance
_geom_bond_site_symmetry_2
_ccdc_geom_bond_type
C1     O43     1.286   .     A
C1     C17     1.406   .     S
C1     O42     1.283   .     A
C2     C3      1.414   .     A
C2     C850    1.417   .     S
C2     C874    1.429   .     S
C3     C7      1.417   .     A
C3     C10     1.418   .     A
C4     C8      1.381   .     A
C4     C848    1.417   1_554 S
C4     C851    1.412   1_554 S
C5     C6      1.387   .     A
C5     C24     1.398   .     A
C5     C850    1.412   .     S
C6     C7      1.385   .     A
C6     H33     1.084   .     S
C7     H38     1.081   .     S
C8     C25     1.392   .     A
C8     H35     1.080   .     S
C9     C25     1.417   .     A
C9     C52     1.511   .     S
C9     C870    1.403   1_554 S
C10    C26     1.397   .     A
C10    C12     1.471   .     S
C11    H39     1.082   .     S
C11    C17     1.387   .     A
C11    C295    1.372   .     S
C12    O45     1.293   .     A
C12    O44     1.305   .     A
C13    C14     1.409   .     A
C13    O59     1.387   .     S
C13    C575    1.372   1_545 S
C14    C22     1.412   .     S
C14    C15     1.413   .     A
C15    C70     1.518   .     S
C15    C580    1.380   1_545 S
C16    C17     1.391   .     A
C16    H29     1.085   .     S
C16    C297    1.380   .     S
C18    H30     1.082   .     S
C18    N41     1.367   .     A
C18    C113    1.421   .     S
C19    H31     1.082   .     S
C19    N40     1.369   .     A
C19    C206    1.421   1_455 S
C20    N40     1.352   .     A
C20    H32     1.083   .     S
C20    C209    1.418   1_455 S
C21    N41     1.391   .     A
C21    C77     1.510   .     S
C21    C114    1.418   .     S
C22    O47     1.285   .     A
C22    O46     1.285   .     A
C23    O49     1.294   .     A
C23    O48     1.298   .     A
C23    C25     1.456   .     S
C24    H34     1.083   .     S
C24    C855    1.403   .     S
C26    C27     1.387   .     A
C26    H36     1.083   .     S
C27    C874    1.400   .     S
C27    H883    1.078   .     S
C28    O84     1.386   .     S
C28    C873    1.400   1_554 S
C28    C848    1.429   1_554 S
H37    C873    1.078   1_554 S
N40    Zn50    2.022   .     S
N41    Zn51    2.022   .     S
O42    Zn50    1.981   .     S
O43    Zn51    1.992   .     S
O44    Zn50    1.957   .     S
O45    Zn51    1.921   .     S
O46    Zn50    1.992   .     S
O47    Zn51    1.981   .     S
O48    Zn50    1.921   .     S
O49    Zn51    1.957   .     S
C52    H57     1.108   .     S
C52    H58     1.108   .     S
C52    C53     1.525   .     S
C53    H54     1.108   .     S
C53    H56     1.111   .     S
C53    H55     1.111   .     S
O59    C60     1.417   .     S
C60    C63     1.532   .     S
C60    H62     1.115   .     S
C60    H61     1.111   .     S
C63    C66     1.526   .     S
C63    H64     1.111   .     S
C63    H629    1.111   1_545 S
H65    C345    1.111   .     S
C66    H68     1.110   .     S
C66    H69     1.111   .     S
C66    H67     1.111   .     S
C70    C71     1.527   .     S
C70    H76     1.109   .     S
C70    H75     1.112   .     S
C71    H73     1.110   .     S
C71    H74     1.110   .     S
C71    H72     1.111   .     S
C77    H83     1.112   .     S
C77    C78     1.528   .     S
C77    H82     1.091   .     S
C78    H80     1.111   .     S
C78    H79     1.110   .     S
C78    H81     1.110   .     S
O84    C85     1.421   .     S
C85    H86     1.111   .     S
C85    H87     1.114   .     S
C85    C88     1.532   .     S
C88    C91     1.526   .     S
C88    H89     1.107   .     S
C88    H90     1.111   .     S
C91    H92     1.111   .     S
C91    H93     1.111   .     S
C91    H94     1.111   .     S
C95    O137    1.286   .     A
C95    C111    1.406   .     S
C95    O136    1.283   .     A
C96    C97     1.414   .     A
C96    C944    1.417   .     S
C96    C968    1.429   .     S
C97    C101    1.417   .     A
C97    C104    1.418   .     A
C98    C102    1.381   .     A
C98    C942    1.417   1_554 S
C98    C945    1.412   1_554 S
C99    C100    1.387   .     A
C99    C118    1.398   .     A
C99    C944    1.412   .     S
C100   C101    1.385   .     A
C100   H127    1.084   .     S
C101   H132    1.081   .     S
C102   C119    1.392   .     A
C102   H129    1.080   .     S
C103   C119    1.417   .     A
C103   C146    1.511   .     S
C103   C964    1.403   1_554 S
C104   C120    1.397   .     A
C104   C106    1.471   .     S
C105   H133    1.082   .     S
C105   C111    1.387   .     A
C105   C389    1.372   .     S
C106   O139    1.293   .     A
C106   O138    1.305   .     A
C107   C108    1.409   .     A
C107   O153    1.387   .     S
C107   C669    1.372   1_545 S
C108   C116    1.412   .     S
C108   C109    1.413   .     A
C109   C164    1.518   .     S
C109   C674    1.380   1_545 S
C110   C111    1.391   .     A
C110   H123    1.085   .     S
C110   C391    1.380   .     S
C112   H124    1.082   .     S
C112   N135    1.367   .     A
C112   C207    1.421   .     S
C113   H125    1.082   .     S
C113   N134    1.369   .     A
C114   N134    1.352   .     A
C114   H126    1.083   .     S
C115   N135    1.391   .     A
C115   C171    1.510   .     S
C115   C208    1.418   .     S
C116   O141    1.285   .     A
C116   O140    1.285   .     A
C117   O143    1.294   .     A
C117   O142    1.298   .     A
C117   C119    1.456   .     S
C118   H128    1.083   .     S
C118   C949    1.403   .     S
C120   C121    1.387   .     A
C120   H130    1.083   .     S
C121   C968    1.400   .     S
C121   H977    1.078   .     S
C122   O178    1.386   .     S
C122   C967    1.400   1_554 S
C122   C942    1.429   1_554 S
H131   C967    1.078   1_554 S
N134   Zn144   2.022   .     S
N135   Zn145   2.022   .     S
O136   Zn144   1.981   .     S
O137   Zn145   1.992   .     S
O138   Zn144   1.957   .     S
O139   Zn145   1.921   .     S
O140   Zn144   1.992   .     S
O141   Zn145   1.981   .     S
O142   Zn144   1.921   .     S
O143   Zn145   1.957   .     S
C146   H151    1.108   .     S
C146   H152    1.108   .     S
C146   C147    1.525   .     S
C147   H148    1.108   .     S
C147   H150    1.111   .     S
C147   H149    1.111   .     S
O153   C154    1.417   .     S
C154   C157    1.532   .     S
C154   H156    1.115   .     S
C154   H155    1.111   .     S
C157   C160    1.526   .     S
C157   H158    1.111   .     S
C157   H723    1.111   1_545 S
H159   C439    1.111   .     S
C160   H162    1.110   .     S
C160   H163    1.111   .     S
C160   H161    1.111   .     S
C164   C165    1.527   .     S
C164   H170    1.109   .     S
C164   H169    1.112   .     S
C165   H167    1.110   .     S
C165   H168    1.110   .     S
C165   H166    1.111   .     S
C171   H177    1.112   .     S
C171   C172    1.528   .     S
C171   H176    1.091   .     S
C172   H174    1.111   .     S
C172   H173    1.110   .     S
C172   H175    1.110   .     S
O178   C179    1.421   .     S
C179   H180    1.111   .     S
C179   H181    1.114   .     S
C179   C182    1.532   .     S
C182   C185    1.526   .     S
C182   H183    1.107   .     S
C182   H184    1.111   .     S
C185   H186    1.111   .     S
C185   H187    1.111   .     S
C185   H188    1.111   .     S
C189   O231    1.286   .     A
C189   C205    1.406   .     S
C189   O230    1.283   .     A
C190   C191    1.414   .     A
C190   C1038   1.417   .     S
C190   C1062   1.429   .     S
C191   C195    1.417   .     A
C191   C198    1.418   .     A
C192   C196    1.381   .     A
C192   C1036   1.417   1_554 S
C192   C1039   1.412   1_554 S
C193   C194    1.387   .     A
C193   C212    1.398   .     A
C193   C1038   1.412   .     S
C194   C195    1.385   .     A
C194   H221    1.084   .     S
C195   H226    1.081   .     S
C196   C213    1.392   .     A
C196   H223    1.080   .     S
C197   C213    1.417   .     A
C197   C240    1.511   .     S
C197   C1058   1.403   1_554 S
C198   C214    1.397   .     A
C198   C200    1.471   .     S
C199   H227    1.082   .     S
C199   C205    1.387   .     A
C199   C483    1.372   .     S
C200   O233    1.293   .     A
C200   O232    1.305   .     A
C201   C202    1.409   .     A
C201   O247    1.387   .     S
C201   C763    1.372   1_545 S
C202   C210    1.412   .     S
C202   C203    1.413   .     A
C203   C258    1.518   .     S
C203   C768    1.380   1_545 S
C204   C205    1.391   .     A
C204   H217    1.085   .     S
C204   C485    1.380   .     S
C206   H218    1.082   .     S
C206   N229    1.367   .     A
C206   C19     1.421   1_655 S
C207   H219    1.082   .     S
C207   N228    1.369   .     A
C208   N228    1.352   .     A
C208   H220    1.083   .     S
C209   N229    1.391   .     A
C209   C265    1.510   .     S
C209   C20     1.418   1_655 S
C210   O235    1.285   .     A
C210   O234    1.285   .     A
C211   O237    1.294   .     A
C211   O236    1.298   .     A
C211   C213    1.456   .     S
C212   H222    1.083   .     S
C212   C1043   1.403   .     S
C214   C215    1.387   .     A
C214   H224    1.083   .     S
C215   C1062   1.400   .     S
C215   H1071   1.078   .     S
C216   O272    1.386   .     S
C216   C1061   1.400   1_554 S
C216   C1036   1.429   1_554 S
H225   C1061   1.078   1_554 S
N228   Zn238   2.022   .     S
N229   Zn239   2.022   .     S
O230   Zn238   1.981   .     S
O231   Zn239   1.992   .     S
O232   Zn238   1.957   .     S
O233   Zn239   1.921   .     S
O234   Zn238   1.992   .     S
O235   Zn239   1.981   .     S
O236   Zn238   1.921   .     S
O237   Zn239   1.957   .     S
C240   H245    1.108   .     S
C240   H246    1.108   .     S
C240   C241    1.525   .     S
C241   H242    1.108   .     S
C241   H244    1.111   .     S
C241   H243    1.111   .     S
O247   C248    1.417   .     S
C248   C251    1.532   .     S
C248   H250    1.115   .     S
C248   H249    1.111   .     S
C251   C254    1.526   .     S
C251   H252    1.111   .     S
C251   H817    1.111   1_545 S
H253   C533    1.111   .     S
C254   H256    1.110   .     S
C254   H257    1.111   .     S
C254   H255    1.111   .     S
C258   C259    1.527   .     S
C258   H264    1.109   .     S
C258   H263    1.112   .     S
C259   H261    1.110   .     S
C259   H262    1.110   .     S
C259   H260    1.111   .     S
C265   H271    1.112   .     S
C265   C266    1.528   .     S
C265   H270    1.091   .     S
C266   H268    1.111   .     S
C266   H267    1.110   .     S
C266   H269    1.110   .     S
O272   C273    1.421   .     S
C273   H274    1.111   .     S
C273   H275    1.114   .     S
C273   C276    1.532   .     S
C276   C279    1.526   .     S
C276   H277    1.107   .     S
C276   H278    1.111   .     S
C279   H280    1.111   .     S
C279   H281    1.111   .     S
C279   H282    1.111   .     S
C283   O325    1.286   .     A
C283   C299    1.406   .     S
C283   O324    1.283   .     A
C284   C285    1.414   .     A
C284   C1132   1.417   .     S
C284   C1156   1.429   .     S
C285   C289    1.417   .     A
C285   C292    1.418   .     A
C286   C290    1.381   .     A
C286   C1130   1.417   1_554 S
C286   C1133   1.412   1_554 S
C287   C288    1.387   .     A
C287   C306    1.398   .     A
C287   C1132   1.412   .     S
C288   C289    1.385   .     A
C288   H315    1.084   .     S
C289   H320    1.081   .     S
C290   C307    1.392   .     A
C290   H317    1.080   .     S
C291   C307    1.417   .     A
C291   C334    1.511   .     S
C291   C1152   1.403   1_554 S
C292   C308    1.397   .     A
C292   C294    1.471   .     S
C293   H321    1.082   .     S
C293   C299    1.387   .     A
C293   C577    1.372   .     S
C294   O327    1.293   .     A
C294   O326    1.305   .     A
C295   C296    1.409   .     A
C295   O341    1.387   .     S
C296   C304    1.412   .     S
C296   C297    1.413   .     A
C297   C352    1.518   .     S
C298   C299    1.391   .     A
C298   H311    1.085   .     S
C298   C579    1.380   .     S
C300   H312    1.082   .     S
C300   N323    1.367   .     A
C300   C395    1.421   .     S
C301   H313    1.082   .     S
C301   N322    1.369   .     A
C301   C488    1.421   1_455 S
C302   N322    1.352   .     A
C302   H314    1.083   .     S
C302   C491    1.418   1_455 S
C303   N323    1.391   .     A
C303   C359    1.510   .     S
C303   C396    1.418   .     S
C304   O329    1.285   .     A
C304   O328    1.285   .     A
C305   O331    1.294   .     A
C305   O330    1.298   .     A
C305   C307    1.456   .     S
C306   H316    1.083   .     S
C306   C1137   1.403   .     S
C308   C309    1.387   .     A
C308   H318    1.083   .     S
C309   C1156   1.400   .     S
C309   H1165   1.078   .     S
C310   O366    1.386   .     S
C310   C1155   1.400   1_554 S
C310   C1130   1.429   1_554 S
H319   C1155   1.078   1_554 S
N322   Zn332   2.022   .     S
N323   Zn333   2.022   .     S
O324   Zn332   1.981   .     S
O325   Zn333   1.992   .     S
O326   Zn332   1.957   .     S
O327   Zn333   1.921   .     S
O328   Zn332   1.992   .     S
O329   Zn333   1.981   .     S
O330   Zn332   1.921   .     S
O331   Zn333   1.957   .     S
C334   H339    1.108   .     S
C334   H340    1.108   .     S
C334   C335    1.525   .     S
C335   H336    1.108   .     S
C335   H338    1.111   .     S
C335   H337    1.111   .     S
O341   C342    1.417   .     S
C342   C345    1.532   .     S
C342   H344    1.115   .     S
C342   H343    1.111   .     S
C345   C348    1.526   .     S
C345   H346    1.111   .     S
H347   C627    1.111   .     S
C348   H350    1.110   .     S
C348   H351    1.111   .     S
C348   H349    1.111   .     S
C352   C353    1.527   .     S
C352   H358    1.109   .     S
C352   H357    1.112   .     S
C353   H355    1.110   .     S
C353   H356    1.110   .     S
C353   H354    1.111   .     S
C359   H365    1.112   .     S
C359   C360    1.528   .     S
C359   H364    1.091   .     S
C360   H362    1.111   .     S
C360   H361    1.110   .     S
C360   H363    1.110   .     S
O366   C367    1.421   .     S
C367   H368    1.111   .     S
C367   H369    1.114   .     S
C367   C370    1.532   .     S
C370   C373    1.526   .     S
C370   H371    1.107   .     S
C370   H372    1.111   .     S
C373   H374    1.111   .     S
C373   H375    1.111   .     S
C373   H376    1.111   .     S
C377   O419    1.286   .     A
C377   C393    1.406   .     S
C377   O418    1.283   .     A
C378   C379    1.414   .     A
C378   C1226   1.417   .     S
C378   C1250   1.429   .     S
C379   C383    1.417   .     A
C379   C386    1.418   .     A
C380   C384    1.381   .     A
C380   C1224   1.417   1_554 S
C380   C1227   1.412   1_554 S
C381   C382    1.387   .     A
C381   C400    1.398   .     A
C381   C1226   1.412   .     S
C382   C383    1.385   .     A
C382   H409    1.084   .     S
C383   H414    1.081   .     S
C384   C401    1.392   .     A
C384   H411    1.080   .     S
C385   C401    1.417   .     A
C385   C428    1.511   .     S
C385   C1246   1.403   1_554 S
C386   C402    1.397   .     A
C386   C388    1.471   .     S
C387   H415    1.082   .     S
C387   C393    1.387   .     A
C387   C671    1.372   .     S
C388   O421    1.293   .     A
C388   O420    1.305   .     A
C389   C390    1.409   .     A
C389   O435    1.387   .     S
C390   C398    1.412   .     S
C390   C391    1.413   .     A
C391   C446    1.518   .     S
C392   C393    1.391   .     A
C392   H405    1.085   .     S
C392   C673    1.380   .     S
C394   H406    1.082   .     S
C394   N417    1.367   .     A
C394   C489    1.421   .     S
C395   H407    1.082   .     S
C395   N416    1.369   .     A
C396   N416    1.352   .     A
C396   H408    1.083   .     S
C397   N417    1.391   .     A
C397   C453    1.510   .     S
C397   C490    1.418   .     S
C398   O423    1.285   .     A
C398   O422    1.285   .     A
C399   O425    1.294   .     A
C399   O424    1.298   .     A
C399   C401    1.456   .     S
C400   H410    1.083   .     S
C400   C1231   1.403   .     S
C402   C403    1.387   .     A
C402   H412    1.083   .     S
C403   C1250   1.400   .     S
C403   H1259   1.078   .     S
C404   O460    1.386   .     S
C404   C1249   1.400   1_554 S
C404   C1224   1.429   1_554 S
H413   C1249   1.078   1_554 S
N416   Zn426   2.022   .     S
N417   Zn427   2.022   .     S
O418   Zn426   1.981   .     S
O419   Zn427   1.992   .     S
O420   Zn426   1.957   .     S
O421   Zn427   1.921   .     S
O422   Zn426   1.992   .     S
O423   Zn427   1.981   .     S
O424   Zn426   1.921   .     S
O425   Zn427   1.957   .     S
C428   H433    1.108   .     S
C428   H434    1.108   .     S
C428   C429    1.525   .     S
C429   H430    1.108   .     S
C429   H432    1.111   .     S
C429   H431    1.111   .     S
O435   C436    1.417   .     S
C436   C439    1.532   .     S
C436   H438    1.115   .     S
C436   H437    1.111   .     S
C439   C442    1.526   .     S
C439   H440    1.111   .     S
H441   C721    1.111   .     S
C442   H444    1.110   .     S
C442   H445    1.111   .     S
C442   H443    1.111   .     S
C446   C447    1.527   .     S
C446   H452    1.109   .     S
C446   H451    1.112   .     S
C447   H449    1.110   .     S
C447   H450    1.110   .     S
C447   H448    1.111   .     S
C453   H459    1.112   .     S
C453   C454    1.528   .     S
C453   H458    1.091   .     S
C454   H456    1.111   .     S
C454   H455    1.110   .     S
C454   H457    1.110   .     S
O460   C461    1.421   .     S
C461   H462    1.111   .     S
C461   H463    1.114   .     S
C461   C464    1.532   .     S
C464   C467    1.526   .     S
C464   H465    1.107   .     S
C464   H466    1.111   .     S
C467   H468    1.111   .     S
C467   H469    1.111   .     S
C467   H470    1.111   .     S
C471   O513    1.286   .     A
C471   C487    1.406   .     S
C471   O512    1.283   .     A
C472   C473    1.414   .     A
C472   C1320   1.417   .     S
C472   C1344   1.429   .     S
C473   C477    1.417   .     A
C473   C480    1.418   .     A
C474   C478    1.381   .     A
C474   C1318   1.417   1_554 S
C474   C1321   1.412   1_554 S
C475   C476    1.387   .     A
C475   C494    1.398   .     A
C475   C1320   1.412   .     S
C476   C477    1.385   .     A
C476   H503    1.084   .     S
C477   H508    1.081   .     S
C478   C495    1.392   .     A
C478   H505    1.080   .     S
C479   C495    1.417   .     A
C479   C522    1.511   .     S
C479   C1340   1.403   1_554 S
C480   C496    1.397   .     A
C480   C482    1.471   .     S
C481   H509    1.082   .     S
C481   C487    1.387   .     A
C481   C765    1.372   .     S
C482   O515    1.293   .     A
C482   O514    1.305   .     A
C483   C484    1.409   .     A
C483   O529    1.387   .     S
C484   C492    1.412   .     S
C484   C485    1.413   .     A
C485   C540    1.518   .     S
C486   C487    1.391   .     A
C486   H499    1.085   .     S
C486   C767    1.380   .     S
C488   H500    1.082   .     S
C488   N511    1.367   .     A
C488   C301    1.421   1_655 S
C489   H501    1.082   .     S
C489   N510    1.369   .     A
C490   N510    1.352   .     A
C490   H502    1.083   .     S
C491   N511    1.391   .     A
C491   C547    1.510   .     S
C491   C302    1.418   1_655 S
C492   O517    1.285   .     A
C492   O516    1.285   .     A
C493   O519    1.294   .     A
C493   O518    1.298   .     A
C493   C495    1.456   .     S
C494   H504    1.083   .     S
C494   C1325   1.403   .     S
C496   C497    1.387   .     A
C496   H506    1.083   .     S
C497   C1344   1.400   .     S
C497   H1353   1.078   .     S
C498   O554    1.386   .     S
C498   C1343   1.400   1_554 S
C498   C1318   1.429   1_554 S
H507   C1343   1.078   1_554 S
N510   Zn520   2.022   .     S
N511   Zn521   2.022   .     S
O512   Zn520   1.981   .     S
O513   Zn521   1.992   .     S
O514   Zn520   1.957   .     S
O515   Zn521   1.921   .     S
O516   Zn520   1.992   .     S
O517   Zn521   1.981   .     S
O518   Zn520   1.921   .     S
O519   Zn521   1.957   .     S
C522   H527    1.108   .     S
C522   H528    1.108   .     S
C522   C523    1.525   .     S
C523   H524    1.108   .     S
C523   H526    1.111   .     S
C523   H525    1.111   .     S
O529   C530    1.417   .     S
C530   C533    1.532   .     S
C530   H532    1.115   .     S
C530   H531    1.111   .     S
C533   C536    1.526   .     S
C533   H534    1.111   .     S
H535   C815    1.111   .     S
C536   H538    1.110   .     S
C536   H539    1.111   .     S
C536   H537    1.111   .     S
C540   C541    1.527   .     S
C540   H546    1.109   .     S
C540   H545    1.112   .     S
C541   H543    1.110   .     S
C541   H544    1.110   .     S
C541   H542    1.111   .     S
C547   H553    1.112   .     S
C547   C548    1.528   .     S
C547   H552    1.091   .     S
C548   H550    1.111   .     S
C548   H549    1.110   .     S
C548   H551    1.110   .     S
O554   C555    1.421   .     S
C555   H556    1.111   .     S
C555   H557    1.114   .     S
C555   C558    1.532   .     S
C558   C561    1.526   .     S
C558   H559    1.107   .     S
C558   H560    1.111   .     S
C561   H562    1.111   .     S
C561   H563    1.111   .     S
C561   H564    1.111   .     S
C565   O607    1.286   .     A
C565   C581    1.406   .     S
C565   O606    1.283   .     A
C566   C567    1.414   .     A
C566   C1414   1.417   .     S
C566   C1438   1.429   .     S
C567   C571    1.417   .     A
C567   C574    1.418   .     A
C568   C572    1.381   .     A
C568   C1412   1.417   1_554 S
C568   C1415   1.412   1_554 S
C569   C570    1.387   .     A
C569   C588    1.398   .     A
C569   C1414   1.412   .     S
C570   C571    1.385   .     A
C570   H597    1.084   .     S
C571   H602    1.081   .     S
C572   C589    1.392   .     A
C572   H599    1.080   .     S
C573   C589    1.417   .     A
C573   C616    1.511   .     S
C573   C1434   1.403   1_554 S
C574   C590    1.397   .     A
C574   C576    1.471   .     S
C575   H603    1.082   .     S
C575   C581    1.387   .     A
C575   C13     1.372   1_565 S
C576   O609    1.293   .     A
C576   O608    1.305   .     A
C577   C578    1.409   .     A
C577   O623    1.387   .     S
C578   C586    1.412   .     S
C578   C579    1.413   .     A
C579   C634    1.518   .     S
C580   C581    1.391   .     A
C580   H593    1.085   .     S
C580   C15     1.380   1_565 S
C582   H594    1.082   .     S
C582   N605    1.367   .     A
C582   C677    1.421   .     S
C583   H595    1.082   .     S
C583   N604    1.369   .     A
C583   C770    1.421   1_455 S
C584   N604    1.352   .     A
C584   H596    1.083   .     S
C584   C773    1.418   1_455 S
C585   N605    1.391   .     A
C585   C641    1.510   .     S
C585   C678    1.418   .     S
C586   O611    1.285   .     A
C586   O610    1.285   .     A
C587   O613    1.294   .     A
C587   O612    1.298   .     A
C587   C589    1.456   .     S
C588   H598    1.083   .     S
C588   C1419   1.403   .     S
C590   C591    1.387   .     A
C590   H600    1.083   .     S
C591   C1438   1.400   .     S
C591   H1447   1.078   .     S
C592   O648    1.386   .     S
C592   C1437   1.400   1_554 S
C592   C1412   1.429   1_554 S
H601   C1437   1.078   1_554 S
N604   Zn614   2.022   .     S
N605   Zn615   2.022   .     S
O606   Zn614   1.981   .     S
O607   Zn615   1.992   .     S
O608   Zn614   1.957   .     S
O609   Zn615   1.921   .     S
O610   Zn614   1.992   .     S
O611   Zn615   1.981   .     S
O612   Zn614   1.921   .     S
O613   Zn615   1.957   .     S
C616   H621    1.108   .     S
C616   H622    1.108   .     S
C616   C617    1.525   .     S
C617   H618    1.108   .     S
C617   H620    1.111   .     S
C617   H619    1.111   .     S
O623   C624    1.417   .     S
C624   C627    1.532   .     S
C624   H626    1.115   .     S
C624   H625    1.111   .     S
C627   C630    1.526   .     S
C627   H628    1.111   .     S
H629   C63     1.111   1_565 S
C630   H632    1.110   .     S
C630   H633    1.111   .     S
C630   H631    1.111   .     S
C634   C635    1.527   .     S
C634   H640    1.109   .     S
C634   H639    1.112   .     S
C635   H637    1.110   .     S
C635   H638    1.110   .     S
C635   H636    1.111   .     S
C641   H647    1.112   .     S
C641   C642    1.528   .     S
C641   H646    1.091   .     S
C642   H644    1.111   .     S
C642   H643    1.110   .     S
C642   H645    1.110   .     S
O648   C649    1.421   .     S
C649   H650    1.111   .     S
C649   H651    1.114   .     S
C649   C652    1.532   .     S
C652   C655    1.526   .     S
C652   H653    1.107   .     S
C652   H654    1.111   .     S
C655   H656    1.111   .     S
C655   H657    1.111   .     S
C655   H658    1.111   .     S
C659   O701    1.286   .     A
C659   C675    1.406   .     S
C659   O700    1.283   .     A
C660   C661    1.414   .     A
C660   C1508   1.417   .     S
C660   C1532   1.429   .     S
C661   C665    1.417   .     A
C661   C668    1.418   .     A
C662   C666    1.381   .     A
C662   C1506   1.417   1_554 S
C662   C1509   1.412   1_554 S
C663   C664    1.387   .     A
C663   C682    1.398   .     A
C663   C1508   1.412   .     S
C664   C665    1.385   .     A
C664   H691    1.084   .     S
C665   H696    1.081   .     S
C666   C683    1.392   .     A
C666   H693    1.080   .     S
C667   C683    1.417   .     A
C667   C710    1.511   .     S
C667   C1528   1.403   1_554 S
C668   C684    1.397   .     A
C668   C670    1.471   .     S
C669   H697    1.082   .     S
C669   C675    1.387   .     A
C669   C107    1.372   1_565 S
C670   O703    1.293   .     A
C670   O702    1.305   .     A
C671   C672    1.409   .     A
C671   O717    1.387   .     S
C672   C680    1.412   .     S
C672   C673    1.413   .     A
C673   C728    1.518   .     S
C674   C675    1.391   .     A
C674   H687    1.085   .     S
C674   C109    1.380   1_565 S
C676   H688    1.082   .     S
C676   N699    1.367   .     A
C676   C771    1.421   .     S
C677   H689    1.082   .     S
C677   N698    1.369   .     A
C678   N698    1.352   .     A
C678   H690    1.083   .     S
C679   N699    1.391   .     A
C679   C735    1.510   .     S
C679   C772    1.418   .     S
C680   O705    1.285   .     A
C680   O704    1.285   .     A
C681   O707    1.294   .     A
C681   O706    1.298   .     A
C681   C683    1.456   .     S
C682   H692    1.083   .     S
C682   C1513   1.403   .     S
C684   C685    1.387   .     A
C684   H694    1.083   .     S
C685   C1532   1.400   .     S
C685   H1541   1.078   .     S
C686   O742    1.386   .     S
C686   C1531   1.400   1_554 S
C686   C1506   1.429   1_554 S
H695   C1531   1.078   1_554 S
N698   Zn708   2.022   .     S
N699   Zn709   2.022   .     S
O700   Zn708   1.981   .     S
O701   Zn709   1.992   .     S
O702   Zn708   1.957   .     S
O703   Zn709   1.921   .     S
O704   Zn708   1.992   .     S
O705   Zn709   1.981   .     S
O706   Zn708   1.921   .     S
O707   Zn709   1.957   .     S
C710   H715    1.108   .     S
C710   H716    1.108   .     S
C710   C711    1.525   .     S
C711   H712    1.108   .     S
C711   H714    1.111   .     S
C711   H713    1.111   .     S
O717   C718    1.417   .     S
C718   C721    1.532   .     S
C718   H720    1.115   .     S
C718   H719    1.111   .     S
C721   C724    1.526   .     S
C721   H722    1.111   .     S
H723   C157    1.111   1_565 S
C724   H726    1.110   .     S
C724   H727    1.111   .     S
C724   H725    1.111   .     S
C728   C729    1.527   .     S
C728   H734    1.109   .     S
C728   H733    1.112   .     S
C729   H731    1.110   .     S
C729   H732    1.110   .     S
C729   H730    1.111   .     S
C735   H741    1.112   .     S
C735   C736    1.528   .     S
C735   H740    1.091   .     S
C736   H738    1.111   .     S
C736   H737    1.110   .     S
C736   H739    1.110   .     S
O742   C743    1.421   .     S
C743   H744    1.111   .     S
C743   H745    1.114   .     S
C743   C746    1.532   .     S
C746   C749    1.526   .     S
C746   H747    1.107   .     S
C746   H748    1.111   .     S
C749   H750    1.111   .     S
C749   H751    1.111   .     S
C749   H752    1.111   .     S
C753   O795    1.286   .     A
C753   C769    1.406   .     S
C753   O794    1.283   .     A
C754   C755    1.414   .     A
C754   C1602   1.417   .     S
C754   C1626   1.429   .     S
C755   C759    1.417   .     A
C755   C762    1.418   .     A
C756   C760    1.381   .     A
C756   C1600   1.417   1_554 S
C756   C1603   1.412   1_554 S
C757   C758    1.387   .     A
C757   C776    1.398   .     A
C757   C1602   1.412   .     S
C758   C759    1.385   .     A
C758   H785    1.084   .     S
C759   H790    1.081   .     S
C760   C777    1.392   .     A
C760   H787    1.080   .     S
C761   C777    1.417   .     A
C761   C804    1.511   .     S
C761   C1622   1.403   1_554 S
C762   C778    1.397   .     A
C762   C764    1.471   .     S
C763   H791    1.082   .     S
C763   C769    1.387   .     A
C763   C201    1.372   1_565 S
C764   O797    1.293   .     A
C764   O796    1.305   .     A
C765   C766    1.409   .     A
C765   O811    1.387   .     S
C766   C774    1.412   .     S
C766   C767    1.413   .     A
C767   C822    1.518   .     S
C768   C769    1.391   .     A
C768   H781    1.085   .     S
C768   C203    1.380   1_565 S
C770   H782    1.082   .     S
C770   N793    1.367   .     A
C770   C583    1.421   1_655 S
C771   H783    1.082   .     S
C771   N792    1.369   .     A
C772   N792    1.352   .     A
C772   H784    1.083   .     S
C773   N793    1.391   .     A
C773   C829    1.510   .     S
C773   C584    1.418   1_655 S
C774   O799    1.285   .     A
C774   O798    1.285   .     A
C775   O801    1.294   .     A
C775   O800    1.298   .     A
C775   C777    1.456   .     S
C776   H786    1.083   .     S
C776   C1607   1.403   .     S
C778   C779    1.387   .     A
C778   H788    1.083   .     S
C779   C1626   1.400   .     S
C779   H1635   1.078   .     S
C780   O836    1.386   .     S
C780   C1625   1.400   1_554 S
C780   C1600   1.429   1_554 S
H789   C1625   1.078   1_554 S
N792   Zn802   2.022   .     S
N793   Zn803   2.022   .     S
O794   Zn802   1.981   .     S
O795   Zn803   1.992   .     S
O796   Zn802   1.957   .     S
O797   Zn803   1.921   .     S
O798   Zn802   1.992   .     S
O799   Zn803   1.981   .     S
O800   Zn802   1.921   .     S
O801   Zn803   1.957   .     S
C804   H809    1.108   .     S
C804   H810    1.108   .     S
C804   C805    1.525   .     S
C805   H806    1.108   .     S
C805   H808    1.111   .     S
C805   H807    1.111   .     S
O811   C812    1.417   .     S
C812   C815    1.532   .     S
C812   H814    1.115   .     S
C812   H813    1.111   .     S
C815   C818    1.526   .     S
C815   H816    1.111   .     S
H817   C251    1.111   1_565 S
C818   H820    1.110   .     S
C818   H821    1.111   .     S
C818   H819    1.111   .     S
C822   C823    1.527   .     S
C822   H828    1.109   .     S
C822   H827    1.112   .     S
C823   H825    1.110   .     S
C823   H826    1.110   .     S
C823   H824    1.111   .     S
C829   H835    1.112   .     S
C829   C830    1.528   .     S
C829   H834    1.091   .     S
C830   H832    1.111   .     S
C830   H831    1.110   .     S
C830   H833    1.110   .     S
O836   C837    1.421   .     S
C837   H838    1.111   .     S
C837   H839    1.114   .     S
C837   C840    1.532   .     S
C840   C843    1.526   .     S
C840   H841    1.107   .     S
C840   H842    1.111   .     S
C843   H844    1.111   .     S
C843   H845    1.111   .     S
C843   H846    1.111   .     S
C847   O889    1.286   .     A
C847   C863    1.406   .     S
C847   O888    1.283   .     A
C848   C849    1.414   .     A
C848   C4      1.417   1_556 S
C848   C28     1.429   1_556 S
C849   C853    1.417   .     A
C849   C856    1.418   .     A
C850   C854    1.381   .     A
C851   C852    1.387   .     A
C851   C870    1.398   .     A
C851   C4      1.412   1_556 S
C852   C853    1.385   .     A
C852   H879    1.084   .     S
C853   H884    1.081   .     S
C854   C871    1.392   .     A
C854   H881    1.080   .     S
C855   C871    1.417   .     A
C855   C898    1.511   .     S
C856   C872    1.397   .     A
C856   C858    1.471   .     S
C857   H885    1.082   .     S
C857   C863    1.387   .     A
C857   C1141   1.372   .     S
C858   O891    1.293   .     A
C858   O890    1.305   .     A
C859   C860    1.409   .     A
C859   O905    1.387   .     S
C859   C1421   1.372   1_545 S
C860   C868    1.412   .     S
C860   C861    1.413   .     A
C861   C916    1.518   .     S
C861   C1426   1.380   1_545 S
C862   C863    1.391   .     A
C862   H875    1.085   .     S
C862   C1143   1.380   .     S
C864   H876    1.082   .     S
C864   N887    1.367   .     A
C864   C959    1.421   .     S
C865   H877    1.082   .     S
C865   N886    1.369   .     A
C865   C1052   1.421   1_455 S
C866   N886    1.352   .     A
C866   H878    1.083   .     S
C866   C1055   1.418   1_455 S
C867   N887    1.391   .     A
C867   C923    1.510   .     S
C867   C960    1.418   .     S
C868   O893    1.285   .     A
C868   O892    1.285   .     A
C869   O895    1.294   .     A
C869   O894    1.298   .     A
C869   C871    1.456   .     S
C870   H880    1.083   .     S
C870   C9      1.403   1_556 S
C872   C873    1.387   .     A
C872   H882    1.083   .     S
C873   C28     1.400   1_556 S
C873   H37     1.078   1_556 S
C874   O930    1.386   .     S
N886   Zn896   2.022   .     S
N887   Zn897   2.022   .     S
O888   Zn896   1.981   .     S
O889   Zn897   1.992   .     S
O890   Zn896   1.957   .     S
O891   Zn897   1.921   .     S
O892   Zn896   1.992   .     S
O893   Zn897   1.981   .     S
O894   Zn896   1.921   .     S
O895   Zn897   1.957   .     S
C898   H903    1.108   .     S
C898   H904    1.108   .     S
C898   C899    1.525   .     S
C899   H900    1.108   .     S
C899   H902    1.111   .     S
C899   H901    1.111   .     S
O905   C906    1.417   .     S
C906   C909    1.532   .     S
C906   H908    1.115   .     S
C906   H907    1.111   .     S
C909   C912    1.526   .     S
C909   H910    1.111   .     S
C909   H1475   1.111   1_545 S
H911   C1191   1.111   .     S
C912   H914    1.110   .     S
C912   H915    1.111   .     S
C912   H913    1.111   .     S
C916   C917    1.527   .     S
C916   H922    1.109   .     S
C916   H921    1.112   .     S
C917   H919    1.110   .     S
C917   H920    1.110   .     S
C917   H918    1.111   .     S
C923   H929    1.112   .     S
C923   C924    1.528   .     S
C923   H928    1.091   .     S
C924   H926    1.111   .     S
C924   H925    1.110   .     S
C924   H927    1.110   .     S
O930   C931    1.421   .     S
C931   H932    1.111   .     S
C931   H933    1.114   .     S
C931   C934    1.532   .     S
C934   C937    1.526   .     S
C934   H935    1.107   .     S
C934   H936    1.111   .     S
C937   H938    1.111   .     S
C937   H939    1.111   .     S
C937   H940    1.111   .     S
C941   O983    1.286   .     A
C941   C957    1.406   .     S
C941   O982    1.283   .     A
C942   C943    1.414   .     A
C942   C98     1.417   1_556 S
C942   C122    1.429   1_556 S
C943   C947    1.417   .     A
C943   C950    1.418   .     A
C944   C948    1.381   .     A
C945   C946    1.387   .     A
C945   C964    1.398   .     A
C945   C98     1.412   1_556 S
C946   C947    1.385   .     A
C946   H973    1.084   .     S
C947   H978    1.081   .     S
C948   C965    1.392   .     A
C948   H975    1.080   .     S
C949   C965    1.417   .     A
C949   C992    1.511   .     S
C950   C966    1.397   .     A
C950   C952    1.471   .     S
C951   H979    1.082   .     S
C951   C957    1.387   .     A
C951   C1235   1.372   .     S
C952   O985    1.293   .     A
C952   O984    1.305   .     A
C953   C954    1.409   .     A
C953   O999    1.387   .     S
C953   C1515   1.372   1_545 S
C954   C962    1.412   .     S
C954   C955    1.413   .     A
C955   C1010   1.518   .     S
C955   C1520   1.380   1_545 S
C956   C957    1.391   .     A
C956   H969    1.085   .     S
C956   C1237   1.380   .     S
C958   H970    1.082   .     S
C958   N981    1.367   .     A
C958   C1053   1.421   .     S
C959   H971    1.082   .     S
C959   N980    1.369   .     A
C960   N980    1.352   .     A
C960   H972    1.083   .     S
C961   N981    1.391   .     A
C961   C1017   1.510   .     S
C961   C1054   1.418   .     S
C962   O987    1.285   .     A
C962   O986    1.285   .     A
C963   O989    1.294   .     A
C963   O988    1.298   .     A
C963   C965    1.456   .     S
C964   H974    1.083   .     S
C964   C103    1.403   1_556 S
C966   C967    1.387   .     A
C966   H976    1.083   .     S
C967   C122    1.400   1_556 S
C967   H131    1.078   1_556 S
C968   O1024   1.386   .     S
N980   Zn990   2.022   .     S
N981   Zn991   2.022   .     S
O982   Zn990   1.981   .     S
O983   Zn991   1.992   .     S
O984   Zn990   1.957   .     S
O985   Zn991   1.921   .     S
O986   Zn990   1.992   .     S
O987   Zn991   1.981   .     S
O988   Zn990   1.921   .     S
O989   Zn991   1.957   .     S
C992   H997    1.108   .     S
C992   H998    1.108   .     S
C992   C993    1.525   .     S
C993   H994    1.108   .     S
C993   H996    1.111   .     S
C993   H995    1.111   .     S
O999   C1000   1.417   .     S
C1000  C1003   1.532   .     S
C1000  H1002   1.115   .     S
C1000  H1001   1.111   .     S
C1003  C1006   1.526   .     S
C1003  H1004   1.111   .     S
C1003  H1569   1.111   1_545 S
H1005  C1285   1.111   .     S
C1006  H1008   1.110   .     S
C1006  H1009   1.111   .     S
C1006  H1007   1.111   .     S
C1010  C1011   1.527   .     S
C1010  H1016   1.109   .     S
C1010  H1015   1.112   .     S
C1011  H1013   1.110   .     S
C1011  H1014   1.110   .     S
C1011  H1012   1.111   .     S
C1017  H1023   1.112   .     S
C1017  C1018   1.528   .     S
C1017  H1022   1.091   .     S
C1018  H1020   1.111   .     S
C1018  H1019   1.110   .     S
C1018  H1021   1.110   .     S
O1024  C1025   1.421   .     S
C1025  H1026   1.111   .     S
C1025  H1027   1.114   .     S
C1025  C1028   1.532   .     S
C1028  C1031   1.526   .     S
C1028  H1029   1.107   .     S
C1028  H1030   1.111   .     S
C1031  H1032   1.111   .     S
C1031  H1033   1.111   .     S
C1031  H1034   1.111   .     S
C1035  O1077   1.286   .     A
C1035  C1051   1.406   .     S
C1035  O1076   1.283   .     A
C1036  C1037   1.414   .     A
C1036  C192    1.417   1_556 S
C1036  C216    1.429   1_556 S
C1037  C1041   1.417   .     A
C1037  C1044   1.418   .     A
C1038  C1042   1.381   .     A
C1039  C1040   1.387   .     A
C1039  C1058   1.398   .     A
C1039  C192    1.412   1_556 S
C1040  C1041   1.385   .     A
C1040  H1067   1.084   .     S
C1041  H1072   1.081   .     S
C1042  C1059   1.392   .     A
C1042  H1069   1.080   .     S
C1043  C1059   1.417   .     A
C1043  C1086   1.511   .     S
C1044  C1060   1.397   .     A
C1044  C1046   1.471   .     S
C1045  H1073   1.082   .     S
C1045  C1051   1.387   .     A
C1045  C1329   1.372   .     S
C1046  O1079   1.293   .     A
C1046  O1078   1.305   .     A
C1047  C1048   1.409   .     A
C1047  O1093   1.387   .     S
C1047  C1609   1.372   1_545 S
C1048  C1056   1.412   .     S
C1048  C1049   1.413   .     A
C1049  C1104   1.518   .     S
C1049  C1614   1.380   1_545 S
C1050  C1051   1.391   .     A
C1050  H1063   1.085   .     S
C1050  C1331   1.380   .     S
C1052  H1064   1.082   .     S
C1052  N1075   1.367   .     A
C1052  C865    1.421   1_655 S
C1053  H1065   1.082   .     S
C1053  N1074   1.369   .     A
C1054  N1074   1.352   .     A
C1054  H1066   1.083   .     S
C1055  N1075   1.391   .     A
C1055  C1111   1.510   .     S
C1055  C866    1.418   1_655 S
C1056  O1081   1.285   .     A
C1056  O1080   1.285   .     A
C1057  O1083   1.294   .     A
C1057  O1082   1.298   .     A
C1057  C1059   1.456   .     S
C1058  H1068   1.083   .     S
C1058  C197    1.403   1_556 S
C1060  C1061   1.387   .     A
C1060  H1070   1.083   .     S
C1061  C216    1.400   1_556 S
C1061  H225    1.078   1_556 S
C1062  O1118   1.386   .     S
N1074  Zn1084  2.022   .     S
N1075  Zn1085  2.022   .     S
O1076  Zn1084  1.981   .     S
O1077  Zn1085  1.992   .     S
O1078  Zn1084  1.957   .     S
O1079  Zn1085  1.921   .     S
O1080  Zn1084  1.992   .     S
O1081  Zn1085  1.981   .     S
O1082  Zn1084  1.921   .     S
O1083  Zn1085  1.957   .     S
C1086  H1091   1.108   .     S
C1086  H1092   1.108   .     S
C1086  C1087   1.525   .     S
C1087  H1088   1.108   .     S
C1087  H1090   1.111   .     S
C1087  H1089   1.111   .     S
O1093  C1094   1.417   .     S
C1094  C1097   1.532   .     S
C1094  H1096   1.115   .     S
C1094  H1095   1.111   .     S
C1097  C1100   1.526   .     S
C1097  H1098   1.111   .     S
C1097  H1663   1.111   1_545 S
H1099  C1379   1.111   .     S
C1100  H1102   1.110   .     S
C1100  H1103   1.111   .     S
C1100  H1101   1.111   .     S
C1104  C1105   1.527   .     S
C1104  H1110   1.109   .     S
C1104  H1109   1.112   .     S
C1105  H1107   1.110   .     S
C1105  H1108   1.110   .     S
C1105  H1106   1.111   .     S
C1111  H1117   1.112   .     S
C1111  C1112   1.528   .     S
C1111  H1116   1.091   .     S
C1112  H1114   1.111   .     S
C1112  H1113   1.110   .     S
C1112  H1115   1.110   .     S
O1118  C1119   1.421   .     S
C1119  H1120   1.111   .     S
C1119  H1121   1.114   .     S
C1119  C1122   1.532   .     S
C1122  C1125   1.526   .     S
C1122  H1123   1.107   .     S
C1122  H1124   1.111   .     S
C1125  H1126   1.111   .     S
C1125  H1127   1.111   .     S
C1125  H1128   1.111   .     S
C1129  O1171   1.286   .     A
C1129  C1145   1.406   .     S
C1129  O1170   1.283   .     A
C1130  C1131   1.414   .     A
C1130  C286    1.417   1_556 S
C1130  C310    1.429   1_556 S
C1131  C1135   1.417   .     A
C1131  C1138   1.418   .     A
C1132  C1136   1.381   .     A
C1133  C1134   1.387   .     A
C1133  C1152   1.398   .     A
C1133  C286    1.412   1_556 S
C1134  C1135   1.385   .     A
C1134  H1161   1.084   .     S
C1135  H1166   1.081   .     S
C1136  C1153   1.392   .     A
C1136  H1163   1.080   .     S
C1137  C1153   1.417   .     A
C1137  C1180   1.511   .     S
C1138  C1154   1.397   .     A
C1138  C1140   1.471   .     S
C1139  H1167   1.082   .     S
C1139  C1145   1.387   .     A
C1139  C1423   1.372   .     S
C1140  O1173   1.293   .     A
C1140  O1172   1.305   .     A
C1141  C1142   1.409   .     A
C1141  O1187   1.387   .     S
C1142  C1150   1.412   .     S
C1142  C1143   1.413   .     A
C1143  C1198   1.518   .     S
C1144  C1145   1.391   .     A
C1144  H1157   1.085   .     S
C1144  C1425   1.380   .     S
C1146  H1158   1.082   .     S
C1146  N1169   1.367   .     A
C1146  C1241   1.421   .     S
C1147  H1159   1.082   .     S
C1147  N1168   1.369   .     A
C1147  C1334   1.421   1_455 S
C1148  N1168   1.352   .     A
C1148  H1160   1.083   .     S
C1148  C1337   1.418   1_455 S
C1149  N1169   1.391   .     A
C1149  C1205   1.510   .     S
C1149  C1242   1.418   .     S
C1150  O1175   1.285   .     A
C1150  O1174   1.285   .     A
C1151  O1177   1.294   .     A
C1151  O1176   1.298   .     A
C1151  C1153   1.456   .     S
C1152  H1162   1.083   .     S
C1152  C291    1.403   1_556 S
C1154  C1155   1.387   .     A
C1154  H1164   1.083   .     S
C1155  C310    1.400   1_556 S
C1155  H319    1.078   1_556 S
C1156  O1212   1.386   .     S
N1168  Zn1178  2.022   .     S
N1169  Zn1179  2.022   .     S
O1170  Zn1178  1.981   .     S
O1171  Zn1179  1.992   .     S
O1172  Zn1178  1.957   .     S
O1173  Zn1179  1.921   .     S
O1174  Zn1178  1.992   .     S
O1175  Zn1179  1.981   .     S
O1176  Zn1178  1.921   .     S
O1177  Zn1179  1.957   .     S
C1180  H1185   1.108   .     S
C1180  H1186   1.108   .     S
C1180  C1181   1.525   .     S
C1181  H1182   1.108   .     S
C1181  H1184   1.111   .     S
C1181  H1183   1.111   .     S
O1187  C1188   1.417   .     S
C1188  C1191   1.532   .     S
C1188  H1190   1.115   .     S
C1188  H1189   1.111   .     S
C1191  C1194   1.526   .     S
C1191  H1192   1.111   .     S
H1193  C1473   1.111   .     S
C1194  H1196   1.110   .     S
C1194  H1197   1.111   .     S
C1194  H1195   1.111   .     S
C1198  C1199   1.527   .     S
C1198  H1204   1.109   .     S
C1198  H1203   1.112   .     S
C1199  H1201   1.110   .     S
C1199  H1202   1.110   .     S
C1199  H1200   1.111   .     S
C1205  H1211   1.112   .     S
C1205  C1206   1.528   .     S
C1205  H1210   1.091   .     S
C1206  H1208   1.111   .     S
C1206  H1207   1.110   .     S
C1206  H1209   1.110   .     S
O1212  C1213   1.421   .     S
C1213  H1214   1.111   .     S
C1213  H1215   1.114   .     S
C1213  C1216   1.532   .     S
C1216  C1219   1.526   .     S
C1216  H1217   1.107   .     S
C1216  H1218   1.111   .     S
C1219  H1220   1.111   .     S
C1219  H1221   1.111   .     S
C1219  H1222   1.111   .     S
C1223  O1265   1.286   .     A
C1223  C1239   1.406   .     S
C1223  O1264   1.283   .     A
C1224  C1225   1.414   .     A
C1224  C380    1.417   1_556 S
C1224  C404    1.429   1_556 S
C1225  C1229   1.417   .     A
C1225  C1232   1.418   .     A
C1226  C1230   1.381   .     A
C1227  C1228   1.387   .     A
C1227  C1246   1.398   .     A
C1227  C380    1.412   1_556 S
C1228  C1229   1.385   .     A
C1228  H1255   1.084   .     S
C1229  H1260   1.081   .     S
C1230  C1247   1.392   .     A
C1230  H1257   1.080   .     S
C1231  C1247   1.417   .     A
C1231  C1274   1.511   .     S
C1232  C1248   1.397   .     A
C1232  C1234   1.471   .     S
C1233  H1261   1.082   .     S
C1233  C1239   1.387   .     A
C1233  C1517   1.372   .     S
C1234  O1267   1.293   .     A
C1234  O1266   1.305   .     A
C1235  C1236   1.409   .     A
C1235  O1281   1.387   .     S
C1236  C1244   1.412   .     S
C1236  C1237   1.413   .     A
C1237  C1292   1.518   .     S
C1238  C1239   1.391   .     A
C1238  H1251   1.085   .     S
C1238  C1519   1.380   .     S
C1240  H1252   1.082   .     S
C1240  N1263   1.367   .     A
C1240  C1335   1.421   .     S
C1241  H1253   1.082   .     S
C1241  N1262   1.369   .     A
C1242  N1262   1.352   .     A
C1242  H1254   1.083   .     S
C1243  N1263   1.391   .     A
C1243  C1299   1.510   .     S
C1243  C1336   1.418   .     S
C1244  O1269   1.285   .     A
C1244  O1268   1.285   .     A
C1245  O1271   1.294   .     A
C1245  O1270   1.298   .     A
C1245  C1247   1.456   .     S
C1246  H1256   1.083   .     S
C1246  C385    1.403   1_556 S
C1248  C1249   1.387   .     A
C1248  H1258   1.083   .     S
C1249  C404    1.400   1_556 S
C1249  H413    1.078   1_556 S
C1250  O1306   1.386   .     S
N1262  Zn1272  2.022   .     S
N1263  Zn1273  2.022   .     S
O1264  Zn1272  1.981   .     S
O1265  Zn1273  1.992   .     S
O1266  Zn1272  1.957   .     S
O1267  Zn1273  1.921   .     S
O1268  Zn1272  1.992   .     S
O1269  Zn1273  1.981   .     S
O1270  Zn1272  1.921   .     S
O1271  Zn1273  1.957   .     S
C1274  H1279   1.108   .     S
C1274  H1280   1.108   .     S
C1274  C1275   1.525   .     S
C1275  H1276   1.108   .     S
C1275  H1278   1.111   .     S
C1275  H1277   1.111   .     S
O1281  C1282   1.417   .     S
C1282  C1285   1.532   .     S
C1282  H1284   1.115   .     S
C1282  H1283   1.111   .     S
C1285  C1288   1.526   .     S
C1285  H1286   1.111   .     S
H1287  C1567   1.111   .     S
C1288  H1290   1.110   .     S
C1288  H1291   1.111   .     S
C1288  H1289   1.111   .     S
C1292  C1293   1.527   .     S
C1292  H1298   1.109   .     S
C1292  H1297   1.112   .     S
C1293  H1295   1.110   .     S
C1293  H1296   1.110   .     S
C1293  H1294   1.111   .     S
C1299  H1305   1.112   .     S
C1299  C1300   1.528   .     S
C1299  H1304   1.091   .     S
C1300  H1302   1.111   .     S
C1300  H1301   1.110   .     S
C1300  H1303   1.110   .     S
O1306  C1307   1.421   .     S
C1307  H1308   1.111   .     S
C1307  H1309   1.114   .     S
C1307  C1310   1.532   .     S
C1310  C1313   1.526   .     S
C1310  H1311   1.107   .     S
C1310  H1312   1.111   .     S
C1313  H1314   1.111   .     S
C1313  H1315   1.111   .     S
C1313  H1316   1.111   .     S
C1317  O1359   1.286   .     A
C1317  C1333   1.406   .     S
C1317  O1358   1.283   .     A
C1318  C1319   1.414   .     A
C1318  C474    1.417   1_556 S
C1318  C498    1.429   1_556 S
C1319  C1323   1.417   .     A
C1319  C1326   1.418   .     A
C1320  C1324   1.381   .     A
C1321  C1322   1.387   .     A
C1321  C1340   1.398   .     A
C1321  C474    1.412   1_556 S
C1322  C1323   1.385   .     A
C1322  H1349   1.084   .     S
C1323  H1354   1.081   .     S
C1324  C1341   1.392   .     A
C1324  H1351   1.080   .     S
C1325  C1341   1.417   .     A
C1325  C1368   1.511   .     S
C1326  C1342   1.397   .     A
C1326  C1328   1.471   .     S
C1327  H1355   1.082   .     S
C1327  C1333   1.387   .     A
C1327  C1611   1.372   .     S
C1328  O1361   1.293   .     A
C1328  O1360   1.305   .     A
C1329  C1330   1.409   .     A
C1329  O1375   1.387   .     S
C1330  C1338   1.412   .     S
C1330  C1331   1.413   .     A
C1331  C1386   1.518   .     S
C1332  C1333   1.391   .     A
C1332  H1345   1.085   .     S
C1332  C1613   1.380   .     S
C1334  H1346   1.082   .     S
C1334  N1357   1.367   .     A
C1334  C1147   1.421   1_655 S
C1335  H1347   1.082   .     S
C1335  N1356   1.369   .     A
C1336  N1356   1.352   .     A
C1336  H1348   1.083   .     S
C1337  N1357   1.391   .     A
C1337  C1393   1.510   .     S
C1337  C1148   1.418   1_655 S
C1338  O1363   1.285   .     A
C1338  O1362   1.285   .     A
C1339  O1365   1.294   .     A
C1339  O1364   1.298   .     A
C1339  C1341   1.456   .     S
C1340  H1350   1.083   .     S
C1340  C479    1.403   1_556 S
C1342  C1343   1.387   .     A
C1342  H1352   1.083   .     S
C1343  C498    1.400   1_556 S
C1343  H507    1.078   1_556 S
C1344  O1400   1.386   .     S
N1356  Zn1366  2.022   .     S
N1357  Zn1367  2.022   .     S
O1358  Zn1366  1.981   .     S
O1359  Zn1367  1.992   .     S
O1360  Zn1366  1.957   .     S
O1361  Zn1367  1.921   .     S
O1362  Zn1366  1.992   .     S
O1363  Zn1367  1.981   .     S
O1364  Zn1366  1.921   .     S
O1365  Zn1367  1.957   .     S
C1368  H1373   1.108   .     S
C1368  H1374   1.108   .     S
C1368  C1369   1.525   .     S
C1369  H1370   1.108   .     S
C1369  H1372   1.111   .     S
C1369  H1371   1.111   .     S
O1375  C1376   1.417   .     S
C1376  C1379   1.532   .     S
C1376  H1378   1.115   .     S
C1376  H1377   1.111   .     S
C1379  C1382   1.526   .     S
C1379  H1380   1.111   .     S
H1381  C1661   1.111   .     S
C1382  H1384   1.110   .     S
C1382  H1385   1.111   .     S
C1382  H1383   1.111   .     S
C1386  C1387   1.527   .     S
C1386  H1392   1.109   .     S
C1386  H1391   1.112   .     S
C1387  H1389   1.110   .     S
C1387  H1390   1.110   .     S
C1387  H1388   1.111   .     S
C1393  H1399   1.112   .     S
C1393  C1394   1.528   .     S
C1393  H1398   1.091   .     S
C1394  H1396   1.111   .     S
C1394  H1395   1.110   .     S
C1394  H1397   1.110   .     S
O1400  C1401   1.421   .     S
C1401  H1402   1.111   .     S
C1401  H1403   1.114   .     S
C1401  C1404   1.532   .     S
C1404  C1407   1.526   .     S
C1404  H1405   1.107   .     S
C1404  H1406   1.111   .     S
C1407  H1408   1.111   .     S
C1407  H1409   1.111   .     S
C1407  H1410   1.111   .     S
C1411  O1453   1.286   .     A
C1411  C1427   1.406   .     S
C1411  O1452   1.283   .     A
C1412  C1413   1.414   .     A
C1412  C568    1.417   1_556 S
C1412  C592    1.429   1_556 S
C1413  C1417   1.417   .     A
C1413  C1420   1.418   .     A
C1414  C1418   1.381   .     A
C1415  C1416   1.387   .     A
C1415  C1434   1.398   .     A
C1415  C568    1.412   1_556 S
C1416  C1417   1.385   .     A
C1416  H1443   1.084   .     S
C1417  H1448   1.081   .     S
C1418  C1435   1.392   .     A
C1418  H1445   1.080   .     S
C1419  C1435   1.417   .     A
C1419  C1462   1.511   .     S
C1420  C1436   1.397   .     A
C1420  C1422   1.471   .     S
C1421  H1449   1.082   .     S
C1421  C1427   1.387   .     A
C1421  C859    1.372   1_565 S
C1422  O1455   1.293   .     A
C1422  O1454   1.305   .     A
C1423  C1424   1.409   .     A
C1423  O1469   1.387   .     S
C1424  C1432   1.412   .     S
C1424  C1425   1.413   .     A
C1425  C1480   1.518   .     S
C1426  C1427   1.391   .     A
C1426  H1439   1.085   .     S
C1426  C861    1.380   1_565 S
C1428  H1440   1.082   .     S
C1428  N1451   1.367   .     A
C1428  C1523   1.421   .     S
C1429  H1441   1.082   .     S
C1429  N1450   1.369   .     A
C1429  C1616   1.421   1_455 S
C1430  N1450   1.352   .     A
C1430  H1442   1.083   .     S
C1430  C1619   1.418   1_455 S
C1431  N1451   1.391   .     A
C1431  C1487   1.510   .     S
C1431  C1524   1.418   .     S
C1432  O1457   1.285   .     A
C1432  O1456   1.285   .     A
C1433  O1459   1.294   .     A
C1433  O1458   1.298   .     A
C1433  C1435   1.456   .     S
C1434  H1444   1.083   .     S
C1434  C573    1.403   1_556 S
C1436  C1437   1.387   .     A
C1436  H1446   1.083   .     S
C1437  C592    1.400   1_556 S
C1437  H601    1.078   1_556 S
C1438  O1494   1.386   .     S
N1450  Zn1460  2.022   .     S
N1451  Zn1461  2.022   .     S
O1452  Zn1460  1.981   .     S
O1453  Zn1461  1.992   .     S
O1454  Zn1460  1.957   .     S
O1455  Zn1461  1.921   .     S
O1456  Zn1460  1.992   .     S
O1457  Zn1461  1.981   .     S
O1458  Zn1460  1.921   .     S
O1459  Zn1461  1.957   .     S
C1462  H1467   1.108   .     S
C1462  H1468   1.108   .     S
C1462  C1463   1.525   .     S
C1463  H1464   1.108   .     S
C1463  H1466   1.111   .     S
C1463  H1465   1.111   .     S
O1469  C1470   1.417   .     S
C1470  C1473   1.532   .     S
C1470  H1472   1.115   .     S
C1470  H1471   1.111   .     S
C1473  C1476   1.526   .     S
C1473  H1474   1.111   .     S
H1475  C909    1.111   1_565 S
C1476  H1478   1.110   .     S
C1476  H1479   1.111   .     S
C1476  H1477   1.111   .     S
C1480  C1481   1.527   .     S
C1480  H1486   1.109   .     S
C1480  H1485   1.112   .     S
C1481  H1483   1.110   .     S
C1481  H1484   1.110   .     S
C1481  H1482   1.111   .     S
C1487  H1493   1.112   .     S
C1487  C1488   1.528   .     S
C1487  H1492   1.091   .     S
C1488  H1490   1.111   .     S
C1488  H1489   1.110   .     S
C1488  H1491   1.110   .     S
O1494  C1495   1.421   .     S
C1495  H1496   1.111   .     S
C1495  H1497   1.114   .     S
C1495  C1498   1.532   .     S
C1498  C1501   1.526   .     S
C1498  H1499   1.107   .     S
C1498  H1500   1.111   .     S
C1501  H1502   1.111   .     S
C1501  H1503   1.111   .     S
C1501  H1504   1.111   .     S
C1505  O1547   1.286   .     A
C1505  C1521   1.406   .     S
C1505  O1546   1.283   .     A
C1506  C1507   1.414   .     A
C1506  C662    1.417   1_556 S
C1506  C686    1.429   1_556 S
C1507  C1511   1.417   .     A
C1507  C1514   1.418   .     A
C1508  C1512   1.381   .     A
C1509  C1510   1.387   .     A
C1509  C1528   1.398   .     A
C1509  C662    1.412   1_556 S
C1510  C1511   1.385   .     A
C1510  H1537   1.084   .     S
C1511  H1542   1.081   .     S
C1512  C1529   1.392   .     A
C1512  H1539   1.080   .     S
C1513  C1529   1.417   .     A
C1513  C1556   1.511   .     S
C1514  C1530   1.397   .     A
C1514  C1516   1.471   .     S
C1515  H1543   1.082   .     S
C1515  C1521   1.387   .     A
C1515  C953    1.372   1_565 S
C1516  O1549   1.293   .     A
C1516  O1548   1.305   .     A
C1517  C1518   1.409   .     A
C1517  O1563   1.387   .     S
C1518  C1526   1.412   .     S
C1518  C1519   1.413   .     A
C1519  C1574   1.518   .     S
C1520  C1521   1.391   .     A
C1520  H1533   1.085   .     S
C1520  C955    1.380   1_565 S
C1522  H1534   1.082   .     S
C1522  N1545   1.367   .     A
C1522  C1617   1.421   .     S
C1523  H1535   1.082   .     S
C1523  N1544   1.369   .     A
C1524  N1544   1.352   .     A
C1524  H1536   1.083   .     S
C1525  N1545   1.391   .     A
C1525  C1581   1.510   .     S
C1525  C1618   1.418   .     S
C1526  O1551   1.285   .     A
C1526  O1550   1.285   .     A
C1527  O1553   1.294   .     A
C1527  O1552   1.298   .     A
C1527  C1529   1.456   .     S
C1528  H1538   1.083   .     S
C1528  C667    1.403   1_556 S
C1530  C1531   1.387   .     A
C1530  H1540   1.083   .     S
C1531  C686    1.400   1_556 S
C1531  H695    1.078   1_556 S
C1532  O1588   1.386   .     S
N1544  Zn1554  2.022   .     S
N1545  Zn1555  2.022   .     S
O1546  Zn1554  1.981   .     S
O1547  Zn1555  1.992   .     S
O1548  Zn1554  1.957   .     S
O1549  Zn1555  1.921   .     S
O1550  Zn1554  1.992   .     S
O1551  Zn1555  1.981   .     S
O1552  Zn1554  1.921   .     S
O1553  Zn1555  1.957   .     S
C1556  H1561   1.108   .     S
C1556  H1562   1.108   .     S
C1556  C1557   1.525   .     S
C1557  H1558   1.108   .     S
C1557  H1560   1.111   .     S
C1557  H1559   1.111   .     S
O1563  C1564   1.417   .     S
C1564  C1567   1.532   .     S
C1564  H1566   1.115   .     S
C1564  H1565   1.111   .     S
C1567  C1570   1.526   .     S
C1567  H1568   1.111   .     S
H1569  C1003   1.111   1_565 S
C1570  H1572   1.110   .     S
C1570  H1573   1.111   .     S
C1570  H1571   1.111   .     S
C1574  C1575   1.527   .     S
C1574  H1580   1.109   .     S
C1574  H1579   1.112   .     S
C1575  H1577   1.110   .     S
C1575  H1578   1.110   .     S
C1575  H1576   1.111   .     S
C1581  H1587   1.112   .     S
C1581  C1582   1.528   .     S
C1581  H1586   1.091   .     S
C1582  H1584   1.111   .     S
C1582  H1583   1.110   .     S
C1582  H1585   1.110   .     S
O1588  C1589   1.421   .     S
C1589  H1590   1.111   .     S
C1589  H1591   1.114   .     S
C1589  C1592   1.532   .     S
C1592  C1595   1.526   .     S
C1592  H1593   1.107   .     S
C1592  H1594   1.111   .     S
C1595  H1596   1.111   .     S
C1595  H1597   1.111   .     S
C1595  H1598   1.111   .     S
C1599  O1641   1.286   .     A
C1599  C1615   1.406   .     S
C1599  O1640   1.283   .     A
C1600  C1601   1.414   .     A
C1600  C756    1.417   1_556 S
C1600  C780    1.429   1_556 S
C1601  C1605   1.417   .     A
C1601  C1608   1.418   .     A
C1602  C1606   1.381   .     A
C1603  C1604   1.387   .     A
C1603  C1622   1.398   .     A
C1603  C756    1.412   1_556 S
C1604  C1605   1.385   .     A
C1604  H1631   1.084   .     S
C1605  H1636   1.081   .     S
C1606  C1623   1.392   .     A
C1606  H1633   1.080   .     S
C1607  C1623   1.417   .     A
C1607  C1650   1.511   .     S
C1608  C1624   1.397   .     A
C1608  C1610   1.471   .     S
C1609  H1637   1.082   .     S
C1609  C1615   1.387   .     A
C1609  C1047   1.372   1_565 S
C1610  O1643   1.293   .     A
C1610  O1642   1.305   .     A
C1611  C1612   1.409   .     A
C1611  O1657   1.387   .     S
C1612  C1620   1.412   .     S
C1612  C1613   1.413   .     A
C1613  C1668   1.518   .     S
C1614  C1615   1.391   .     A
C1614  H1627   1.085   .     S
C1614  C1049   1.380   1_565 S
C1616  H1628   1.082   .     S
C1616  N1639   1.367   .     A
C1616  C1429   1.421   1_655 S
C1617  H1629   1.082   .     S
C1617  N1638   1.369   .     A
C1618  N1638   1.352   .     A
C1618  H1630   1.083   .     S
C1619  N1639   1.391   .     A
C1619  C1675   1.510   .     S
C1619  C1430   1.418   1_655 S
C1620  O1645   1.285   .     A
C1620  O1644   1.285   .     A
C1621  O1647   1.294   .     A
C1621  O1646   1.298   .     A
C1621  C1623   1.456   .     S
C1622  H1632   1.083   .     S
C1622  C761    1.403   1_556 S
C1624  C1625   1.387   .     A
C1624  H1634   1.083   .     S
C1625  C780    1.400   1_556 S
C1625  H789    1.078   1_556 S
C1626  O1682   1.386   .     S
N1638  Zn1648  2.022   .     S
N1639  Zn1649  2.022   .     S
O1640  Zn1648  1.981   .     S
O1641  Zn1649  1.992   .     S
O1642  Zn1648  1.957   .     S
O1643  Zn1649  1.921   .     S
O1644  Zn1648  1.992   .     S
O1645  Zn1649  1.981   .     S
O1646  Zn1648  1.921   .     S
O1647  Zn1649  1.957   .     S
C1650  H1655   1.108   .     S
C1650  H1656   1.108   .     S
C1650  C1651   1.525   .     S
C1651  H1652   1.108   .     S
C1651  H1654   1.111   .     S
C1651  H1653   1.111   .     S
O1657  C1658   1.417   .     S
C1658  C1661   1.532   .     S
C1658  H1660   1.115   .     S
C1658  H1659   1.111   .     S
C1661  C1664   1.526   .     S
C1661  H1662   1.111   .     S
H1663  C1097   1.111   1_565 S
C1664  H1666   1.110   .     S
C1664  H1667   1.111   .     S
C1664  H1665   1.111   .     S
C1668  C1669   1.527   .     S
C1668  H1674   1.109   .     S
C1668  H1673   1.112   .     S
C1669  H1671   1.110   .     S
C1669  H1672   1.110   .     S
C1669  H1670   1.111   .     S
C1675  H1681   1.112   .     S
C1675  C1676   1.528   .     S
C1675  H1680   1.091   .     S
C1676  H1678   1.111   .     S
C1676  H1677   1.110   .     S
C1676  H1679   1.110   .     S
O1682  C1683   1.421   .     S
C1683  H1684   1.111   .     S
C1683  H1685   1.114   .     S
C1683  C1686   1.532   .     S
C1686  C1689   1.526   .     S
C1686  H1687   1.107   .     S
C1686  H1688   1.111   .     S
C1689  H1690   1.111   .     S
C1689  H1691   1.111   .     S
C1689  H1692   1.111   .     S
