data_str_m3_o1_o1_pcu_sym.8
_audit_creation_date              2020-01-03
_audit_creation_method            'Materials Studio'
_symmetry_space_group_name_H-M    'P1'
_symmetry_Int_Tables_number       1
_symmetry_cell_setting            triclinic
loop_
_symmetry_equiv_pos_as_xyz
  x,y,z
_cell_length_a                    30.3471
_cell_length_b                    30.2874
_cell_length_c                    29.5130
_cell_angle_alpha                 89.9997
_cell_angle_beta                  89.9991
_cell_angle_gamma                 89.9991
loop_
_atom_site_label
_atom_site_type_symbol
_atom_site_fract_x
_atom_site_fract_y
_atom_site_fract_z
_atom_site_U_iso_or_equiv
_atom_site_adp_type
_atom_site_occupancy
C1     C     0.06001   0.18994   0.16667   0.00000  Uiso   1.00
C2     C    -0.00000   0.21120   0.30935   0.00000  Uiso   1.00
C3     C    -0.00000   0.21120   0.02399   0.00000  Uiso   1.00
C4     C     0.00000   0.28880   0.30935   0.00000  Uiso   1.00
C5     C     0.25000   0.03880   0.02399   0.00000  Uiso   1.00
C6     C     0.24999   0.46120   0.30934   0.00000  Uiso   1.00
C7     C     0.24999   0.46120   0.02399   0.00000  Uiso   1.00
C8     C     0.25000   0.03880   0.30934   0.00000  Uiso   1.00
C9     C     0.39673   0.13520   0.12619   0.00000  Uiso   1.00
C10    C     0.11477   0.35325   0.20715   0.00000  Uiso   1.00
C11    C     0.10325   0.36483   0.12619   0.00000  Uiso   1.00
C12    C     0.43999   0.31006   0.16667   0.00000  Uiso   1.00
C13    C     0.38526   0.14672   0.20715   0.00000  Uiso   1.00
C14    C     0.11484   0.14682   0.20712   0.00000  Uiso   1.00
C15    C     0.39677   0.36484   0.12620   0.00000  Uiso   1.00
C16    C     0.38522   0.35324   0.20714   0.00000  Uiso   1.00
C17    C     0.10317   0.13510   0.12622   0.00000  Uiso   1.00
C18    C     0.13523   0.39675   0.12619   0.00000  Uiso   1.00
C19    C     0.35327   0.11480   0.20715   0.00000  Uiso   1.00
C20    C     0.36474   0.10328   0.12618   0.00000  Uiso   1.00
C21    C     0.14675   0.38517   0.20714   0.00000  Uiso   1.00
C22    C     0.35323   0.38516   0.20714   0.00000  Uiso   1.00
C23    C     0.43999   0.18994   0.16667   0.00000  Uiso   1.00
C24    C     0.13516   0.10318   0.12621   0.00000  Uiso   1.00
C25    C     0.14683   0.11490   0.20712   0.00000  Uiso   1.00
C26    C     0.36478   0.39676   0.12619   0.00000  Uiso   1.00
C27    C     0.09312   0.34317   0.16667   0.00000  Uiso   1.00
C28    C     0.40688   0.15683   0.16667   0.00000  Uiso   1.00
C29    C     0.40688   0.34317   0.16667   0.00000  Uiso   1.00
C30    C     0.09312   0.15683   0.16667   0.00000  Uiso   1.00
C31    C     0.34312   0.09317   0.16666   0.00000  Uiso   1.00
C32    C     0.15688   0.40683   0.16666   0.00000  Uiso   1.00
C33    C     0.15688   0.09317   0.16666   0.00000  Uiso   1.00
C34    C     0.06001   0.31006   0.16667   0.00000  Uiso   1.00
C35    C     0.34312   0.40683   0.16666   0.00000  Uiso   1.00
C36    C     0.31001   0.43994   0.16667   0.00000  Uiso   1.00
C37    C     0.18999   0.06006   0.16667   0.00000  Uiso   1.00
C38    C     0.18999   0.43994   0.16667   0.00000  Uiso   1.00
C39    C     0.31001   0.06006   0.16667   0.00000  Uiso   1.00
C40    C     0.00000   0.28880   0.02399   0.00000  Uiso   1.00
H41    H     0.00000   0.31981   0.04218   0.00000  Uiso   1.00
H42    H     0.10727   0.33641   0.23861   0.00000  Uiso   1.00
H43    H     0.08639   0.35738   0.09474   0.00000  Uiso   1.00
H44    H     0.39277   0.16354   0.23862   0.00000  Uiso   1.00
H45    H     0.10740   0.16373   0.23857   0.00000  Uiso   1.00
H46    H     0.41363   0.35740   0.09474   0.00000  Uiso   1.00
H47    H     0.39271   0.33639   0.23860   0.00000  Uiso   1.00
H48    H     0.08625   0.14249   0.09478   0.00000  Uiso   1.00
H49    H     0.14273   0.41359   0.09472   0.00000  Uiso   1.00
H50    H     0.33644   0.10733   0.23861   0.00000  Uiso   1.00
H51    H     0.35722   0.08646   0.09471   0.00000  Uiso   1.00
H52    H    -0.00000   0.18019   0.29116   0.00000  Uiso   1.00
H53    H     0.16361   0.39262   0.23860   0.00000  Uiso   1.00
H54    H     0.33637   0.39260   0.23859   0.00000  Uiso   1.00
H55    H     0.14260   0.08627   0.09477   0.00000  Uiso   1.00
H56    H     0.16375   0.10751   0.23855   0.00000  Uiso   1.00
H57    H     0.35729   0.41361   0.09473   0.00000  Uiso   1.00
H58    H    -0.00000   0.18019   0.04218   0.00000  Uiso   1.00
H59    H     0.00000   0.31981   0.29116   0.00000  Uiso   1.00
H60    H     0.25001   0.06981   0.04218   0.00000  Uiso   1.00
H61    H     0.24999   0.43019   0.29115   0.00000  Uiso   1.00
H62    H     0.24999   0.43019   0.04218   0.00000  Uiso   1.00
H63    H     0.25001   0.06981   0.29115   0.00000  Uiso   1.00
H64    H     0.41356   0.14267   0.09472   0.00000  Uiso   1.00
N65    N    -0.00000   0.25000   0.28573   0.00000  Uiso   1.00
N66    N    -0.00000   0.25000   0.04760   0.00000  Uiso   1.00
N67    N     0.25000  -0.00000   0.28573   0.00000  Uiso   1.00
N68    N     0.25000  -0.00000   0.04760   0.00000  Uiso   1.00
O69    O     0.04580   0.20419   0.20487   0.00000  Uiso   1.00
O70    O     0.20419   0.04581   0.12846   0.00000  Uiso   1.00
O71    O     0.20419   0.04581   0.20487   0.00000  Uiso   1.00
O72    O     0.29580   0.45419   0.12846   0.00000  Uiso   1.00
O73    O     0.20419   0.45419   0.12846   0.00000  Uiso   1.00
O74    O     0.29580   0.04581   0.20487   0.00000  Uiso   1.00
O75    O     0.29580   0.04581   0.12846   0.00000  Uiso   1.00
O76    O     0.20419   0.45419   0.20487   0.00000  Uiso   1.00
O77    O     0.45419   0.29581   0.12846   0.00000  Uiso   1.00
O78    O     0.45419   0.29581   0.20487   0.00000  Uiso   1.00
O79    O     0.04580   0.20419   0.12846   0.00000  Uiso   1.00
O80    O     0.45419   0.20419   0.12846   0.00000  Uiso   1.00
O81    O     0.04580   0.29581   0.20487   0.00000  Uiso   1.00
O82    O     0.04580   0.29581   0.12846   0.00000  Uiso   1.00
O83    O     0.45419   0.20419   0.20487   0.00000  Uiso   1.00
O84    O     0.29580   0.45419   0.20487   0.00000  Uiso   1.00
Zn85   Zn   -0.00000   0.25000   0.21771   0.00000  Uiso   1.00
Zn86   Zn   -0.00000   0.25000   0.11563   0.00000  Uiso   1.00
Zn87   Zn    0.25000  -0.00000   0.21771   0.00000  Uiso   1.00
Zn88   Zn    0.25000  -0.00000   0.11563   0.00000  Uiso   1.00
C89    C     0.56001   0.18994   0.16667   0.00000  Uiso   1.00
C90    C     0.50000   0.21120   0.30935   0.00000  Uiso   1.00
C91    C     0.50000   0.21120   0.02399   0.00000  Uiso   1.00
C92    C     0.50000   0.28880   0.30935   0.00000  Uiso   1.00
C93    C     0.75000   0.03880   0.02399   0.00000  Uiso   1.00
C94    C     0.74999   0.46120   0.30934   0.00000  Uiso   1.00
C95    C     0.74999   0.46120   0.02399   0.00000  Uiso   1.00
C96    C     0.75000   0.03880   0.30934   0.00000  Uiso   1.00
C97    C     0.89673   0.13520   0.12619   0.00000  Uiso   1.00
C98    C     0.61477   0.35325   0.20715   0.00000  Uiso   1.00
C99    C     0.60325   0.36483   0.12619   0.00000  Uiso   1.00
C100   C     0.93999   0.31006   0.16667   0.00000  Uiso   1.00
C101   C     0.88526   0.14672   0.20715   0.00000  Uiso   1.00
C102   C     0.61484   0.14682   0.20712   0.00000  Uiso   1.00
C103   C     0.89677   0.36484   0.12620   0.00000  Uiso   1.00
C104   C     0.88522   0.35324   0.20714   0.00000  Uiso   1.00
C105   C     0.60317   0.13510   0.12622   0.00000  Uiso   1.00
C106   C     0.63523   0.39675   0.12619   0.00000  Uiso   1.00
C107   C     0.85327   0.11480   0.20715   0.00000  Uiso   1.00
C108   C     0.86474   0.10328   0.12618   0.00000  Uiso   1.00
C109   C     0.64675   0.38517   0.20714   0.00000  Uiso   1.00
C110   C     0.85323   0.38516   0.20714   0.00000  Uiso   1.00
C111   C     0.93999   0.18994   0.16667   0.00000  Uiso   1.00
C112   C     0.63516   0.10318   0.12621   0.00000  Uiso   1.00
C113   C     0.64683   0.11490   0.20712   0.00000  Uiso   1.00
C114   C     0.86478   0.39676   0.12619   0.00000  Uiso   1.00
C115   C     0.59312   0.34317   0.16667   0.00000  Uiso   1.00
C116   C     0.90688   0.15683   0.16667   0.00000  Uiso   1.00
C117   C     0.90688   0.34317   0.16667   0.00000  Uiso   1.00
C118   C     0.59312   0.15683   0.16667   0.00000  Uiso   1.00
C119   C     0.84312   0.09317   0.16666   0.00000  Uiso   1.00
C120   C     0.65688   0.40683   0.16666   0.00000  Uiso   1.00
C121   C     0.65688   0.09317   0.16666   0.00000  Uiso   1.00
C122   C     0.56001   0.31006   0.16667   0.00000  Uiso   1.00
C123   C     0.84312   0.40683   0.16666   0.00000  Uiso   1.00
C124   C     0.81001   0.43994   0.16667   0.00000  Uiso   1.00
C125   C     0.68999   0.06006   0.16667   0.00000  Uiso   1.00
C126   C     0.68999   0.43994   0.16667   0.00000  Uiso   1.00
C127   C     0.81001   0.06006   0.16667   0.00000  Uiso   1.00
C128   C     0.50000   0.28880   0.02399   0.00000  Uiso   1.00
H129   H     0.50000   0.31981   0.04218   0.00000  Uiso   1.00
H130   H     0.60727   0.33641   0.23861   0.00000  Uiso   1.00
H131   H     0.58639   0.35738   0.09474   0.00000  Uiso   1.00
H132   H     0.89277   0.16354   0.23862   0.00000  Uiso   1.00
H133   H     0.60740   0.16373   0.23857   0.00000  Uiso   1.00
H134   H     0.91363   0.35740   0.09474   0.00000  Uiso   1.00
H135   H     0.89271   0.33639   0.23860   0.00000  Uiso   1.00
H136   H     0.58625   0.14249   0.09478   0.00000  Uiso   1.00
H137   H     0.64273   0.41359   0.09472   0.00000  Uiso   1.00
H138   H     0.83644   0.10733   0.23861   0.00000  Uiso   1.00
H139   H     0.85722   0.08646   0.09471   0.00000  Uiso   1.00
H140   H     0.50000   0.18019   0.29116   0.00000  Uiso   1.00
H141   H     0.66361   0.39262   0.23860   0.00000  Uiso   1.00
H142   H     0.83637   0.39260   0.23859   0.00000  Uiso   1.00
H143   H     0.64260   0.08627   0.09477   0.00000  Uiso   1.00
H144   H     0.66375   0.10751   0.23855   0.00000  Uiso   1.00
H145   H     0.85729   0.41361   0.09473   0.00000  Uiso   1.00
H146   H     0.50000   0.18019   0.04218   0.00000  Uiso   1.00
H147   H     0.50000   0.31981   0.29116   0.00000  Uiso   1.00
H148   H     0.75001   0.06981   0.04218   0.00000  Uiso   1.00
H149   H     0.74999   0.43019   0.29115   0.00000  Uiso   1.00
H150   H     0.74999   0.43019   0.04218   0.00000  Uiso   1.00
H151   H     0.75001   0.06981   0.29115   0.00000  Uiso   1.00
H152   H     0.91356   0.14267   0.09472   0.00000  Uiso   1.00
N153   N     0.50000   0.25000   0.28573   0.00000  Uiso   1.00
N154   N     0.50000   0.25000   0.04760   0.00000  Uiso   1.00
N155   N     0.75000  -0.00000   0.28573   0.00000  Uiso   1.00
N156   N     0.75000  -0.00000   0.04760   0.00000  Uiso   1.00
O157   O     0.54580   0.20419   0.20487   0.00000  Uiso   1.00
O158   O     0.70419   0.04581   0.12846   0.00000  Uiso   1.00
O159   O     0.70419   0.04581   0.20487   0.00000  Uiso   1.00
O160   O     0.79580   0.45419   0.12846   0.00000  Uiso   1.00
O161   O     0.70419   0.45419   0.12846   0.00000  Uiso   1.00
O162   O     0.79580   0.04581   0.20487   0.00000  Uiso   1.00
O163   O     0.79580   0.04581   0.12846   0.00000  Uiso   1.00
O164   O     0.70419   0.45419   0.20487   0.00000  Uiso   1.00
O165   O     0.95419   0.29581   0.12846   0.00000  Uiso   1.00
O166   O     0.95419   0.29581   0.20487   0.00000  Uiso   1.00
O167   O     0.54580   0.20419   0.12846   0.00000  Uiso   1.00
O168   O     0.95419   0.20419   0.12846   0.00000  Uiso   1.00
O169   O     0.54580   0.29581   0.20487   0.00000  Uiso   1.00
O170   O     0.54580   0.29581   0.12846   0.00000  Uiso   1.00
O171   O     0.95419   0.20419   0.20487   0.00000  Uiso   1.00
O172   O     0.79580   0.45419   0.20487   0.00000  Uiso   1.00
Zn173  Zn    0.50000   0.25000   0.21771   0.00000  Uiso   1.00
Zn174  Zn    0.50000   0.25000   0.11563   0.00000  Uiso   1.00
Zn175  Zn    0.75000  -0.00000   0.21771   0.00000  Uiso   1.00
Zn176  Zn    0.75000  -0.00000   0.11563   0.00000  Uiso   1.00
C177   C     0.06001   0.68994   0.16667   0.00000  Uiso   1.00
C178   C    -0.00000   0.71120   0.30935   0.00000  Uiso   1.00
C179   C    -0.00000   0.71120   0.02399   0.00000  Uiso   1.00
C180   C     0.00000   0.78880   0.30935   0.00000  Uiso   1.00
C181   C     0.25000   0.53880   0.02399   0.00000  Uiso   1.00
C182   C     0.24999   0.96120   0.30934   0.00000  Uiso   1.00
C183   C     0.24999   0.96120   0.02399   0.00000  Uiso   1.00
C184   C     0.25000   0.53880   0.30934   0.00000  Uiso   1.00
C185   C     0.39673   0.63520   0.12619   0.00000  Uiso   1.00
C186   C     0.11477   0.85325   0.20715   0.00000  Uiso   1.00
C187   C     0.10325   0.86483   0.12619   0.00000  Uiso   1.00
C188   C     0.43999   0.81006   0.16667   0.00000  Uiso   1.00
C189   C     0.38526   0.64672   0.20715   0.00000  Uiso   1.00
C190   C     0.11484   0.64682   0.20712   0.00000  Uiso   1.00
C191   C     0.39677   0.86484   0.12620   0.00000  Uiso   1.00
C192   C     0.38522   0.85324   0.20714   0.00000  Uiso   1.00
C193   C     0.10317   0.63510   0.12622   0.00000  Uiso   1.00
C194   C     0.13523   0.89675   0.12619   0.00000  Uiso   1.00
C195   C     0.35327   0.61480   0.20715   0.00000  Uiso   1.00
C196   C     0.36474   0.60328   0.12618   0.00000  Uiso   1.00
C197   C     0.14675   0.88517   0.20714   0.00000  Uiso   1.00
C198   C     0.35323   0.88516   0.20714   0.00000  Uiso   1.00
C199   C     0.43999   0.68994   0.16667   0.00000  Uiso   1.00
C200   C     0.13516   0.60318   0.12621   0.00000  Uiso   1.00
C201   C     0.14683   0.61490   0.20712   0.00000  Uiso   1.00
C202   C     0.36478   0.89676   0.12619   0.00000  Uiso   1.00
C203   C     0.09312   0.84317   0.16667   0.00000  Uiso   1.00
C204   C     0.40688   0.65683   0.16667   0.00000  Uiso   1.00
C205   C     0.40688   0.84317   0.16667   0.00000  Uiso   1.00
C206   C     0.09312   0.65683   0.16667   0.00000  Uiso   1.00
C207   C     0.34312   0.59317   0.16666   0.00000  Uiso   1.00
C208   C     0.15688   0.90683   0.16666   0.00000  Uiso   1.00
C209   C     0.15688   0.59317   0.16666   0.00000  Uiso   1.00
C210   C     0.06001   0.81006   0.16667   0.00000  Uiso   1.00
C211   C     0.34312   0.90683   0.16666   0.00000  Uiso   1.00
C212   C     0.31001   0.93994   0.16667   0.00000  Uiso   1.00
C213   C     0.18999   0.56006   0.16667   0.00000  Uiso   1.00
C214   C     0.18999   0.93994   0.16667   0.00000  Uiso   1.00
C215   C     0.31001   0.56006   0.16667   0.00000  Uiso   1.00
C216   C     0.00000   0.78880   0.02399   0.00000  Uiso   1.00
H217   H     0.00000   0.81981   0.04218   0.00000  Uiso   1.00
H218   H     0.10727   0.83641   0.23861   0.00000  Uiso   1.00
H219   H     0.08639   0.85738   0.09474   0.00000  Uiso   1.00
H220   H     0.39277   0.66354   0.23862   0.00000  Uiso   1.00
H221   H     0.10740   0.66373   0.23857   0.00000  Uiso   1.00
H222   H     0.41363   0.85740   0.09474   0.00000  Uiso   1.00
H223   H     0.39271   0.83639   0.23860   0.00000  Uiso   1.00
H224   H     0.08625   0.64249   0.09478   0.00000  Uiso   1.00
H225   H     0.14273   0.91359   0.09472   0.00000  Uiso   1.00
H226   H     0.33644   0.60733   0.23861   0.00000  Uiso   1.00
H227   H     0.35722   0.58646   0.09471   0.00000  Uiso   1.00
H228   H    -0.00000   0.68019   0.29116   0.00000  Uiso   1.00
H229   H     0.16361   0.89262   0.23860   0.00000  Uiso   1.00
H230   H     0.33637   0.89260   0.23859   0.00000  Uiso   1.00
H231   H     0.14260   0.58627   0.09477   0.00000  Uiso   1.00
H232   H     0.16375   0.60751   0.23855   0.00000  Uiso   1.00
H233   H     0.35729   0.91361   0.09473   0.00000  Uiso   1.00
H234   H    -0.00000   0.68019   0.04218   0.00000  Uiso   1.00
H235   H     0.00000   0.81981   0.29116   0.00000  Uiso   1.00
H236   H     0.25001   0.56981   0.04218   0.00000  Uiso   1.00
H237   H     0.24999   0.93019   0.29115   0.00000  Uiso   1.00
H238   H     0.24999   0.93019   0.04218   0.00000  Uiso   1.00
H239   H     0.25001   0.56981   0.29115   0.00000  Uiso   1.00
H240   H     0.41356   0.64267   0.09472   0.00000  Uiso   1.00
N241   N    -0.00000   0.75000   0.28573   0.00000  Uiso   1.00
N242   N    -0.00000   0.75000   0.04760   0.00000  Uiso   1.00
N243   N     0.25000   0.50000   0.28573   0.00000  Uiso   1.00
N244   N     0.25000   0.50000   0.04760   0.00000  Uiso   1.00
O245   O     0.04580   0.70419   0.20487   0.00000  Uiso   1.00
O246   O     0.20419   0.54581   0.12846   0.00000  Uiso   1.00
O247   O     0.20419   0.54581   0.20487   0.00000  Uiso   1.00
O248   O     0.29580   0.95419   0.12846   0.00000  Uiso   1.00
O249   O     0.20419   0.95419   0.12846   0.00000  Uiso   1.00
O250   O     0.29580   0.54581   0.20487   0.00000  Uiso   1.00
O251   O     0.29580   0.54581   0.12846   0.00000  Uiso   1.00
O252   O     0.20419   0.95419   0.20487   0.00000  Uiso   1.00
O253   O     0.45419   0.79581   0.12846   0.00000  Uiso   1.00
O254   O     0.45419   0.79581   0.20487   0.00000  Uiso   1.00
O255   O     0.04580   0.70419   0.12846   0.00000  Uiso   1.00
O256   O     0.45419   0.70419   0.12846   0.00000  Uiso   1.00
O257   O     0.04580   0.79581   0.20487   0.00000  Uiso   1.00
O258   O     0.04580   0.79581   0.12846   0.00000  Uiso   1.00
O259   O     0.45419   0.70419   0.20487   0.00000  Uiso   1.00
O260   O     0.29580   0.95419   0.20487   0.00000  Uiso   1.00
Zn261  Zn   -0.00000   0.75000   0.21771   0.00000  Uiso   1.00
Zn262  Zn   -0.00000   0.75000   0.11563   0.00000  Uiso   1.00
Zn263  Zn    0.25000   0.50000   0.21771   0.00000  Uiso   1.00
Zn264  Zn    0.25000   0.50000   0.11563   0.00000  Uiso   1.00
C265   C     0.56001   0.68994   0.16667   0.00000  Uiso   1.00
C266   C     0.50000   0.71120   0.30935   0.00000  Uiso   1.00
C267   C     0.50000   0.71120   0.02399   0.00000  Uiso   1.00
C268   C     0.50000   0.78880   0.30935   0.00000  Uiso   1.00
C269   C     0.75000   0.53880   0.02399   0.00000  Uiso   1.00
C270   C     0.74999   0.96120   0.30934   0.00000  Uiso   1.00
C271   C     0.74999   0.96120   0.02399   0.00000  Uiso   1.00
C272   C     0.75000   0.53880   0.30934   0.00000  Uiso   1.00
C273   C     0.89673   0.63520   0.12619   0.00000  Uiso   1.00
C274   C     0.61477   0.85325   0.20715   0.00000  Uiso   1.00
C275   C     0.60325   0.86483   0.12619   0.00000  Uiso   1.00
C276   C     0.93999   0.81006   0.16667   0.00000  Uiso   1.00
C277   C     0.88526   0.64672   0.20715   0.00000  Uiso   1.00
C278   C     0.61484   0.64682   0.20712   0.00000  Uiso   1.00
C279   C     0.89677   0.86484   0.12620   0.00000  Uiso   1.00
C280   C     0.88522   0.85324   0.20714   0.00000  Uiso   1.00
C281   C     0.60317   0.63510   0.12622   0.00000  Uiso   1.00
C282   C     0.63523   0.89675   0.12619   0.00000  Uiso   1.00
C283   C     0.85327   0.61480   0.20715   0.00000  Uiso   1.00
C284   C     0.86474   0.60328   0.12618   0.00000  Uiso   1.00
C285   C     0.64675   0.88517   0.20714   0.00000  Uiso   1.00
C286   C     0.85323   0.88516   0.20714   0.00000  Uiso   1.00
C287   C     0.93999   0.68994   0.16667   0.00000  Uiso   1.00
C288   C     0.63516   0.60318   0.12621   0.00000  Uiso   1.00
C289   C     0.64683   0.61490   0.20712   0.00000  Uiso   1.00
C290   C     0.86478   0.89676   0.12619   0.00000  Uiso   1.00
C291   C     0.59312   0.84317   0.16667   0.00000  Uiso   1.00
C292   C     0.90688   0.65683   0.16667   0.00000  Uiso   1.00
C293   C     0.90688   0.84317   0.16667   0.00000  Uiso   1.00
C294   C     0.59312   0.65683   0.16667   0.00000  Uiso   1.00
C295   C     0.84312   0.59317   0.16666   0.00000  Uiso   1.00
C296   C     0.65688   0.90683   0.16666   0.00000  Uiso   1.00
C297   C     0.65688   0.59317   0.16666   0.00000  Uiso   1.00
C298   C     0.56001   0.81006   0.16667   0.00000  Uiso   1.00
C299   C     0.84312   0.90683   0.16666   0.00000  Uiso   1.00
C300   C     0.81001   0.93994   0.16667   0.00000  Uiso   1.00
C301   C     0.68999   0.56006   0.16667   0.00000  Uiso   1.00
C302   C     0.68999   0.93994   0.16667   0.00000  Uiso   1.00
C303   C     0.81001   0.56006   0.16667   0.00000  Uiso   1.00
C304   C     0.50000   0.78880   0.02399   0.00000  Uiso   1.00
H305   H     0.50000   0.81981   0.04218   0.00000  Uiso   1.00
H306   H     0.60727   0.83641   0.23861   0.00000  Uiso   1.00
H307   H     0.58639   0.85738   0.09474   0.00000  Uiso   1.00
H308   H     0.89277   0.66354   0.23862   0.00000  Uiso   1.00
H309   H     0.60740   0.66373   0.23857   0.00000  Uiso   1.00
H310   H     0.91363   0.85740   0.09474   0.00000  Uiso   1.00
H311   H     0.89271   0.83639   0.23860   0.00000  Uiso   1.00
H312   H     0.58625   0.64249   0.09478   0.00000  Uiso   1.00
H313   H     0.64273   0.91359   0.09472   0.00000  Uiso   1.00
H314   H     0.83644   0.60733   0.23861   0.00000  Uiso   1.00
H315   H     0.85722   0.58646   0.09471   0.00000  Uiso   1.00
H316   H     0.50000   0.68019   0.29116   0.00000  Uiso   1.00
H317   H     0.66361   0.89262   0.23860   0.00000  Uiso   1.00
H318   H     0.83637   0.89260   0.23859   0.00000  Uiso   1.00
H319   H     0.64260   0.58627   0.09477   0.00000  Uiso   1.00
H320   H     0.66375   0.60751   0.23855   0.00000  Uiso   1.00
H321   H     0.85729   0.91361   0.09473   0.00000  Uiso   1.00
H322   H     0.50000   0.68019   0.04218   0.00000  Uiso   1.00
H323   H     0.50000   0.81981   0.29116   0.00000  Uiso   1.00
H324   H     0.75001   0.56981   0.04218   0.00000  Uiso   1.00
H325   H     0.74999   0.93019   0.29115   0.00000  Uiso   1.00
H326   H     0.74999   0.93019   0.04218   0.00000  Uiso   1.00
H327   H     0.75001   0.56981   0.29115   0.00000  Uiso   1.00
H328   H     0.91356   0.64267   0.09472   0.00000  Uiso   1.00
N329   N     0.50000   0.75000   0.28573   0.00000  Uiso   1.00
N330   N     0.50000   0.75000   0.04760   0.00000  Uiso   1.00
N331   N     0.75000   0.50000   0.28573   0.00000  Uiso   1.00
N332   N     0.75000   0.50000   0.04760   0.00000  Uiso   1.00
O333   O     0.54580   0.70419   0.20487   0.00000  Uiso   1.00
O334   O     0.70419   0.54581   0.12846   0.00000  Uiso   1.00
O335   O     0.70419   0.54581   0.20487   0.00000  Uiso   1.00
O336   O     0.79580   0.95419   0.12846   0.00000  Uiso   1.00
O337   O     0.70419   0.95419   0.12846   0.00000  Uiso   1.00
O338   O     0.79580   0.54581   0.20487   0.00000  Uiso   1.00
O339   O     0.79580   0.54581   0.12846   0.00000  Uiso   1.00
O340   O     0.70419   0.95419   0.20487   0.00000  Uiso   1.00
O341   O     0.95419   0.79581   0.12846   0.00000  Uiso   1.00
O342   O     0.95419   0.79581   0.20487   0.00000  Uiso   1.00
O343   O     0.54580   0.70419   0.12846   0.00000  Uiso   1.00
O344   O     0.95419   0.70419   0.12846   0.00000  Uiso   1.00
O345   O     0.54580   0.79581   0.20487   0.00000  Uiso   1.00
O346   O     0.54580   0.79581   0.12846   0.00000  Uiso   1.00
O347   O     0.95419   0.70419   0.20487   0.00000  Uiso   1.00
O348   O     0.79580   0.95419   0.20487   0.00000  Uiso   1.00
Zn349  Zn    0.50000   0.75000   0.21771   0.00000  Uiso   1.00
Zn350  Zn    0.50000   0.75000   0.11563   0.00000  Uiso   1.00
Zn351  Zn    0.75000   0.50000   0.21771   0.00000  Uiso   1.00
Zn352  Zn    0.75000   0.50000   0.11563   0.00000  Uiso   1.00
C353   C     0.06001   0.18994   0.50000   0.00000  Uiso   1.00
C354   C    -0.00000   0.21120   0.64268   0.00000  Uiso   1.00
C355   C    -0.00000   0.21120   0.35732   0.00000  Uiso   1.00
C356   C     0.00000   0.28880   0.64268   0.00000  Uiso   1.00
C357   C     0.25000   0.03880   0.35732   0.00000  Uiso   1.00
C358   C     0.24999   0.46120   0.64268   0.00000  Uiso   1.00
C359   C     0.24999   0.46120   0.35732   0.00000  Uiso   1.00
C360   C     0.25000   0.03880   0.64268   0.00000  Uiso   1.00
C361   C     0.39673   0.13520   0.45952   0.00000  Uiso   1.00
C362   C     0.11477   0.35325   0.54048   0.00000  Uiso   1.00
C363   C     0.10325   0.36483   0.45953   0.00000  Uiso   1.00
C364   C     0.43999   0.31006   0.50000   0.00000  Uiso   1.00
C365   C     0.38526   0.14672   0.54049   0.00000  Uiso   1.00
C366   C     0.11484   0.14682   0.54046   0.00000  Uiso   1.00
C367   C     0.39677   0.36484   0.45953   0.00000  Uiso   1.00
C368   C     0.38522   0.35324   0.54048   0.00000  Uiso   1.00
C369   C     0.10317   0.13510   0.45955   0.00000  Uiso   1.00
C370   C     0.13523   0.39675   0.45952   0.00000  Uiso   1.00
C371   C     0.35327   0.11480   0.54048   0.00000  Uiso   1.00
C372   C     0.36474   0.10328   0.45951   0.00000  Uiso   1.00
C373   C     0.14675   0.38517   0.54047   0.00000  Uiso   1.00
C374   C     0.35323   0.38516   0.54047   0.00000  Uiso   1.00
C375   C     0.43999   0.18994   0.50000   0.00000  Uiso   1.00
C376   C     0.13516   0.10318   0.45954   0.00000  Uiso   1.00
C377   C     0.14683   0.11490   0.54045   0.00000  Uiso   1.00
C378   C     0.36478   0.39676   0.45952   0.00000  Uiso   1.00
C379   C     0.09312   0.34317   0.50000   0.00000  Uiso   1.00
C380   C     0.40688   0.15683   0.50000   0.00000  Uiso   1.00
C381   C     0.40688   0.34317   0.50000   0.00000  Uiso   1.00
C382   C     0.09312   0.15683   0.50000   0.00000  Uiso   1.00
C383   C     0.34312   0.09317   0.50000   0.00000  Uiso   1.00
C384   C     0.15688   0.40683   0.50000   0.00000  Uiso   1.00
C385   C     0.15688   0.09317   0.50000   0.00000  Uiso   1.00
C386   C     0.06001   0.31006   0.50000   0.00000  Uiso   1.00
C387   C     0.34312   0.40683   0.50000   0.00000  Uiso   1.00
C388   C     0.31001   0.43994   0.50000   0.00000  Uiso   1.00
C389   C     0.18999   0.06006   0.50000   0.00000  Uiso   1.00
C390   C     0.18999   0.43994   0.50000   0.00000  Uiso   1.00
C391   C     0.31001   0.06006   0.50000   0.00000  Uiso   1.00
C392   C     0.00000   0.28880   0.35732   0.00000  Uiso   1.00
H393   H     0.00000   0.31981   0.37552   0.00000  Uiso   1.00
H394   H     0.10727   0.33641   0.57194   0.00000  Uiso   1.00
H395   H     0.08639   0.35738   0.42807   0.00000  Uiso   1.00
H396   H     0.39277   0.16354   0.57196   0.00000  Uiso   1.00
H397   H     0.10740   0.16373   0.57190   0.00000  Uiso   1.00
H398   H     0.41363   0.35740   0.42808   0.00000  Uiso   1.00
H399   H     0.39271   0.33639   0.57194   0.00000  Uiso   1.00
H400   H     0.08625   0.14249   0.42811   0.00000  Uiso   1.00
H401   H     0.14273   0.41359   0.42806   0.00000  Uiso   1.00
H402   H     0.33644   0.10733   0.57195   0.00000  Uiso   1.00
H403   H     0.35722   0.08646   0.42804   0.00000  Uiso   1.00
H404   H    -0.00000   0.18019   0.62449   0.00000  Uiso   1.00
H405   H     0.16361   0.39262   0.57193   0.00000  Uiso   1.00
H406   H     0.33637   0.39260   0.57192   0.00000  Uiso   1.00
H407   H     0.14260   0.08627   0.42810   0.00000  Uiso   1.00
H408   H     0.16375   0.10751   0.57189   0.00000  Uiso   1.00
H409   H     0.35729   0.41361   0.42806   0.00000  Uiso   1.00
H410   H    -0.00000   0.18019   0.37552   0.00000  Uiso   1.00
H411   H     0.00000   0.31981   0.62449   0.00000  Uiso   1.00
H412   H     0.25001   0.06981   0.37551   0.00000  Uiso   1.00
H413   H     0.24999   0.43019   0.62448   0.00000  Uiso   1.00
H414   H     0.24999   0.43019   0.37551   0.00000  Uiso   1.00
H415   H     0.25001   0.06981   0.62448   0.00000  Uiso   1.00
H416   H     0.41356   0.14267   0.42806   0.00000  Uiso   1.00
N417   N    -0.00000   0.25000   0.61907   0.00000  Uiso   1.00
N418   N    -0.00000   0.25000   0.38093   0.00000  Uiso   1.00
N419   N     0.25000  -0.00000   0.61907   0.00000  Uiso   1.00
N420   N     0.25000  -0.00000   0.38093   0.00000  Uiso   1.00
O421   O     0.04580   0.20419   0.53821   0.00000  Uiso   1.00
O422   O     0.20419   0.04581   0.46179   0.00000  Uiso   1.00
O423   O     0.20419   0.04581   0.53821   0.00000  Uiso   1.00
O424   O     0.29580   0.45419   0.46179   0.00000  Uiso   1.00
O425   O     0.20419   0.45419   0.46179   0.00000  Uiso   1.00
O426   O     0.29580   0.04581   0.53821   0.00000  Uiso   1.00
O427   O     0.29580   0.04581   0.46179   0.00000  Uiso   1.00
O428   O     0.20419   0.45419   0.53821   0.00000  Uiso   1.00
O429   O     0.45419   0.29581   0.46179   0.00000  Uiso   1.00
O430   O     0.45419   0.29581   0.53821   0.00000  Uiso   1.00
O431   O     0.04580   0.20419   0.46179   0.00000  Uiso   1.00
O432   O     0.45419   0.20419   0.46179   0.00000  Uiso   1.00
O433   O     0.04580   0.29581   0.53821   0.00000  Uiso   1.00
O434   O     0.04580   0.29581   0.46179   0.00000  Uiso   1.00
O435   O     0.45419   0.20419   0.53821   0.00000  Uiso   1.00
O436   O     0.29580   0.45419   0.53821   0.00000  Uiso   1.00
Zn437  Zn   -0.00000   0.25000   0.55104   0.00000  Uiso   1.00
Zn438  Zn   -0.00000   0.25000   0.44896   0.00000  Uiso   1.00
Zn439  Zn    0.25000  -0.00000   0.55104   0.00000  Uiso   1.00
Zn440  Zn    0.25000  -0.00000   0.44896   0.00000  Uiso   1.00
C441   C     0.56001   0.18994   0.50000   0.00000  Uiso   1.00
C442   C     0.50000   0.21120   0.64268   0.00000  Uiso   1.00
C443   C     0.50000   0.21120   0.35732   0.00000  Uiso   1.00
C444   C     0.50000   0.28880   0.64268   0.00000  Uiso   1.00
C445   C     0.75000   0.03880   0.35732   0.00000  Uiso   1.00
C446   C     0.74999   0.46120   0.64268   0.00000  Uiso   1.00
C447   C     0.74999   0.46120   0.35732   0.00000  Uiso   1.00
C448   C     0.75000   0.03880   0.64268   0.00000  Uiso   1.00
C449   C     0.89673   0.13520   0.45952   0.00000  Uiso   1.00
C450   C     0.61477   0.35325   0.54048   0.00000  Uiso   1.00
C451   C     0.60325   0.36483   0.45953   0.00000  Uiso   1.00
C452   C     0.93999   0.31006   0.50000   0.00000  Uiso   1.00
C453   C     0.88526   0.14672   0.54049   0.00000  Uiso   1.00
C454   C     0.61484   0.14682   0.54046   0.00000  Uiso   1.00
C455   C     0.89677   0.36484   0.45953   0.00000  Uiso   1.00
C456   C     0.88522   0.35324   0.54048   0.00000  Uiso   1.00
C457   C     0.60317   0.13510   0.45955   0.00000  Uiso   1.00
C458   C     0.63523   0.39675   0.45952   0.00000  Uiso   1.00
C459   C     0.85327   0.11480   0.54048   0.00000  Uiso   1.00
C460   C     0.86474   0.10328   0.45951   0.00000  Uiso   1.00
C461   C     0.64675   0.38517   0.54047   0.00000  Uiso   1.00
C462   C     0.85323   0.38516   0.54047   0.00000  Uiso   1.00
C463   C     0.93999   0.18994   0.50000   0.00000  Uiso   1.00
C464   C     0.63516   0.10318   0.45954   0.00000  Uiso   1.00
C465   C     0.64683   0.11490   0.54045   0.00000  Uiso   1.00
C466   C     0.86478   0.39676   0.45952   0.00000  Uiso   1.00
C467   C     0.59312   0.34317   0.50000   0.00000  Uiso   1.00
C468   C     0.90688   0.15683   0.50000   0.00000  Uiso   1.00
C469   C     0.90688   0.34317   0.50000   0.00000  Uiso   1.00
C470   C     0.59312   0.15683   0.50000   0.00000  Uiso   1.00
C471   C     0.84312   0.09317   0.50000   0.00000  Uiso   1.00
C472   C     0.65688   0.40683   0.50000   0.00000  Uiso   1.00
C473   C     0.65688   0.09317   0.50000   0.00000  Uiso   1.00
C474   C     0.56001   0.31006   0.50000   0.00000  Uiso   1.00
C475   C     0.84312   0.40683   0.50000   0.00000  Uiso   1.00
C476   C     0.81001   0.43994   0.50000   0.00000  Uiso   1.00
C477   C     0.68999   0.06006   0.50000   0.00000  Uiso   1.00
C478   C     0.68999   0.43994   0.50000   0.00000  Uiso   1.00
C479   C     0.81001   0.06006   0.50000   0.00000  Uiso   1.00
C480   C     0.50000   0.28880   0.35732   0.00000  Uiso   1.00
H481   H     0.50000   0.31981   0.37552   0.00000  Uiso   1.00
H482   H     0.60727   0.33641   0.57194   0.00000  Uiso   1.00
H483   H     0.58639   0.35738   0.42807   0.00000  Uiso   1.00
H484   H     0.89277   0.16354   0.57196   0.00000  Uiso   1.00
H485   H     0.60740   0.16373   0.57190   0.00000  Uiso   1.00
H486   H     0.91363   0.35740   0.42808   0.00000  Uiso   1.00
H487   H     0.89271   0.33639   0.57194   0.00000  Uiso   1.00
H488   H     0.58625   0.14249   0.42811   0.00000  Uiso   1.00
H489   H     0.64273   0.41359   0.42806   0.00000  Uiso   1.00
H490   H     0.83644   0.10733   0.57195   0.00000  Uiso   1.00
H491   H     0.85722   0.08646   0.42804   0.00000  Uiso   1.00
H492   H     0.50000   0.18019   0.62449   0.00000  Uiso   1.00
H493   H     0.66361   0.39262   0.57193   0.00000  Uiso   1.00
H494   H     0.83637   0.39260   0.57192   0.00000  Uiso   1.00
H495   H     0.64260   0.08627   0.42810   0.00000  Uiso   1.00
H496   H     0.66375   0.10751   0.57189   0.00000  Uiso   1.00
H497   H     0.85729   0.41361   0.42806   0.00000  Uiso   1.00
H498   H     0.50000   0.18019   0.37552   0.00000  Uiso   1.00
H499   H     0.50000   0.31981   0.62449   0.00000  Uiso   1.00
H500   H     0.75001   0.06981   0.37551   0.00000  Uiso   1.00
H501   H     0.74999   0.43019   0.62448   0.00000  Uiso   1.00
H502   H     0.74999   0.43019   0.37551   0.00000  Uiso   1.00
H503   H     0.75001   0.06981   0.62448   0.00000  Uiso   1.00
H504   H     0.91356   0.14267   0.42806   0.00000  Uiso   1.00
N505   N     0.50000   0.25000   0.61907   0.00000  Uiso   1.00
N506   N     0.50000   0.25000   0.38093   0.00000  Uiso   1.00
N507   N     0.75000  -0.00000   0.61907   0.00000  Uiso   1.00
N508   N     0.75000  -0.00000   0.38093   0.00000  Uiso   1.00
O509   O     0.54580   0.20419   0.53821   0.00000  Uiso   1.00
O510   O     0.70419   0.04581   0.46179   0.00000  Uiso   1.00
O511   O     0.70419   0.04581   0.53821   0.00000  Uiso   1.00
O512   O     0.79580   0.45419   0.46179   0.00000  Uiso   1.00
O513   O     0.70419   0.45419   0.46179   0.00000  Uiso   1.00
O514   O     0.79580   0.04581   0.53821   0.00000  Uiso   1.00
O515   O     0.79580   0.04581   0.46179   0.00000  Uiso   1.00
O516   O     0.70419   0.45419   0.53821   0.00000  Uiso   1.00
O517   O     0.95419   0.29581   0.46179   0.00000  Uiso   1.00
O518   O     0.95419   0.29581   0.53821   0.00000  Uiso   1.00
O519   O     0.54580   0.20419   0.46179   0.00000  Uiso   1.00
O520   O     0.95419   0.20419   0.46179   0.00000  Uiso   1.00
O521   O     0.54580   0.29581   0.53821   0.00000  Uiso   1.00
O522   O     0.54580   0.29581   0.46179   0.00000  Uiso   1.00
O523   O     0.95419   0.20419   0.53821   0.00000  Uiso   1.00
O524   O     0.79580   0.45419   0.53821   0.00000  Uiso   1.00
Zn525  Zn    0.50000   0.25000   0.55104   0.00000  Uiso   1.00
Zn526  Zn    0.50000   0.25000   0.44896   0.00000  Uiso   1.00
Zn527  Zn    0.75000  -0.00000   0.55104   0.00000  Uiso   1.00
Zn528  Zn    0.75000  -0.00000   0.44896   0.00000  Uiso   1.00
C529   C     0.06001   0.68994   0.50000   0.00000  Uiso   1.00
C530   C    -0.00000   0.71120   0.64268   0.00000  Uiso   1.00
C531   C    -0.00000   0.71120   0.35732   0.00000  Uiso   1.00
C532   C     0.00000   0.78880   0.64268   0.00000  Uiso   1.00
C533   C     0.25000   0.53880   0.35732   0.00000  Uiso   1.00
C534   C     0.24999   0.96120   0.64268   0.00000  Uiso   1.00
C535   C     0.24999   0.96120   0.35732   0.00000  Uiso   1.00
C536   C     0.25000   0.53880   0.64268   0.00000  Uiso   1.00
C537   C     0.39673   0.63520   0.45952   0.00000  Uiso   1.00
C538   C     0.11477   0.85325   0.54048   0.00000  Uiso   1.00
C539   C     0.10325   0.86483   0.45953   0.00000  Uiso   1.00
C540   C     0.43999   0.81006   0.50000   0.00000  Uiso   1.00
C541   C     0.38526   0.64672   0.54049   0.00000  Uiso   1.00
C542   C     0.11484   0.64682   0.54046   0.00000  Uiso   1.00
C543   C     0.39677   0.86484   0.45953   0.00000  Uiso   1.00
C544   C     0.38522   0.85324   0.54048   0.00000  Uiso   1.00
C545   C     0.10317   0.63510   0.45955   0.00000  Uiso   1.00
C546   C     0.13523   0.89675   0.45952   0.00000  Uiso   1.00
C547   C     0.35327   0.61480   0.54048   0.00000  Uiso   1.00
C548   C     0.36474   0.60328   0.45951   0.00000  Uiso   1.00
C549   C     0.14675   0.88517   0.54047   0.00000  Uiso   1.00
C550   C     0.35323   0.88516   0.54047   0.00000  Uiso   1.00
C551   C     0.43999   0.68994   0.50000   0.00000  Uiso   1.00
C552   C     0.13516   0.60318   0.45954   0.00000  Uiso   1.00
C553   C     0.14683   0.61490   0.54045   0.00000  Uiso   1.00
C554   C     0.36478   0.89676   0.45952   0.00000  Uiso   1.00
C555   C     0.09312   0.84317   0.50000   0.00000  Uiso   1.00
C556   C     0.40688   0.65683   0.50000   0.00000  Uiso   1.00
C557   C     0.40688   0.84317   0.50000   0.00000  Uiso   1.00
C558   C     0.09312   0.65683   0.50000   0.00000  Uiso   1.00
C559   C     0.34312   0.59317   0.50000   0.00000  Uiso   1.00
C560   C     0.15688   0.90683   0.50000   0.00000  Uiso   1.00
C561   C     0.15688   0.59317   0.50000   0.00000  Uiso   1.00
C562   C     0.06001   0.81006   0.50000   0.00000  Uiso   1.00
C563   C     0.34312   0.90683   0.50000   0.00000  Uiso   1.00
C564   C     0.31001   0.93994   0.50000   0.00000  Uiso   1.00
C565   C     0.18999   0.56006   0.50000   0.00000  Uiso   1.00
C566   C     0.18999   0.93994   0.50000   0.00000  Uiso   1.00
C567   C     0.31001   0.56006   0.50000   0.00000  Uiso   1.00
C568   C     0.00000   0.78880   0.35732   0.00000  Uiso   1.00
H569   H     0.00000   0.81981   0.37552   0.00000  Uiso   1.00
H570   H     0.10727   0.83641   0.57194   0.00000  Uiso   1.00
H571   H     0.08639   0.85738   0.42807   0.00000  Uiso   1.00
H572   H     0.39277   0.66354   0.57196   0.00000  Uiso   1.00
H573   H     0.10740   0.66373   0.57190   0.00000  Uiso   1.00
H574   H     0.41363   0.85740   0.42808   0.00000  Uiso   1.00
H575   H     0.39271   0.83639   0.57194   0.00000  Uiso   1.00
H576   H     0.08625   0.64249   0.42811   0.00000  Uiso   1.00
H577   H     0.14273   0.91359   0.42806   0.00000  Uiso   1.00
H578   H     0.33644   0.60733   0.57195   0.00000  Uiso   1.00
H579   H     0.35722   0.58646   0.42804   0.00000  Uiso   1.00
H580   H    -0.00000   0.68019   0.62449   0.00000  Uiso   1.00
H581   H     0.16361   0.89262   0.57193   0.00000  Uiso   1.00
H582   H     0.33637   0.89260   0.57192   0.00000  Uiso   1.00
H583   H     0.14260   0.58627   0.42810   0.00000  Uiso   1.00
H584   H     0.16375   0.60751   0.57189   0.00000  Uiso   1.00
H585   H     0.35729   0.91361   0.42806   0.00000  Uiso   1.00
H586   H    -0.00000   0.68019   0.37552   0.00000  Uiso   1.00
H587   H     0.00000   0.81981   0.62449   0.00000  Uiso   1.00
H588   H     0.25001   0.56981   0.37551   0.00000  Uiso   1.00
H589   H     0.24999   0.93019   0.62448   0.00000  Uiso   1.00
H590   H     0.24999   0.93019   0.37551   0.00000  Uiso   1.00
H591   H     0.25001   0.56981   0.62448   0.00000  Uiso   1.00
H592   H     0.41356   0.64267   0.42806   0.00000  Uiso   1.00
N593   N    -0.00000   0.75000   0.61907   0.00000  Uiso   1.00
N594   N    -0.00000   0.75000   0.38093   0.00000  Uiso   1.00
N595   N     0.25000   0.50000   0.61907   0.00000  Uiso   1.00
N596   N     0.25000   0.50000   0.38093   0.00000  Uiso   1.00
O597   O     0.04580   0.70419   0.53821   0.00000  Uiso   1.00
O598   O     0.20419   0.54581   0.46179   0.00000  Uiso   1.00
O599   O     0.20419   0.54581   0.53821   0.00000  Uiso   1.00
O600   O     0.29580   0.95419   0.46179   0.00000  Uiso   1.00
O601   O     0.20419   0.95419   0.46179   0.00000  Uiso   1.00
O602   O     0.29580   0.54581   0.53821   0.00000  Uiso   1.00
O603   O     0.29580   0.54581   0.46179   0.00000  Uiso   1.00
O604   O     0.20419   0.95419   0.53821   0.00000  Uiso   1.00
O605   O     0.45419   0.79581   0.46179   0.00000  Uiso   1.00
O606   O     0.45419   0.79581   0.53821   0.00000  Uiso   1.00
O607   O     0.04580   0.70419   0.46179   0.00000  Uiso   1.00
O608   O     0.45419   0.70419   0.46179   0.00000  Uiso   1.00
O609   O     0.04580   0.79581   0.53821   0.00000  Uiso   1.00
O610   O     0.04580   0.79581   0.46179   0.00000  Uiso   1.00
O611   O     0.45419   0.70419   0.53821   0.00000  Uiso   1.00
O612   O     0.29580   0.95419   0.53821   0.00000  Uiso   1.00
Zn613  Zn   -0.00000   0.75000   0.55104   0.00000  Uiso   1.00
Zn614  Zn   -0.00000   0.75000   0.44896   0.00000  Uiso   1.00
Zn615  Zn    0.25000   0.50000   0.55104   0.00000  Uiso   1.00
Zn616  Zn    0.25000   0.50000   0.44896   0.00000  Uiso   1.00
C617   C     0.56001   0.68994   0.50000   0.00000  Uiso   1.00
C618   C     0.50000   0.71120   0.64268   0.00000  Uiso   1.00
C619   C     0.50000   0.71120   0.35732   0.00000  Uiso   1.00
C620   C     0.50000   0.78880   0.64268   0.00000  Uiso   1.00
C621   C     0.75000   0.53880   0.35732   0.00000  Uiso   1.00
C622   C     0.74999   0.96120   0.64268   0.00000  Uiso   1.00
C623   C     0.74999   0.96120   0.35732   0.00000  Uiso   1.00
C624   C     0.75000   0.53880   0.64268   0.00000  Uiso   1.00
C625   C     0.89673   0.63520   0.45952   0.00000  Uiso   1.00
C626   C     0.61477   0.85325   0.54048   0.00000  Uiso   1.00
C627   C     0.60325   0.86483   0.45953   0.00000  Uiso   1.00
C628   C     0.93999   0.81006   0.50000   0.00000  Uiso   1.00
C629   C     0.88526   0.64672   0.54049   0.00000  Uiso   1.00
C630   C     0.61484   0.64682   0.54046   0.00000  Uiso   1.00
C631   C     0.89677   0.86484   0.45953   0.00000  Uiso   1.00
C632   C     0.88522   0.85324   0.54048   0.00000  Uiso   1.00
C633   C     0.60317   0.63510   0.45955   0.00000  Uiso   1.00
C634   C     0.63523   0.89675   0.45952   0.00000  Uiso   1.00
C635   C     0.85327   0.61480   0.54048   0.00000  Uiso   1.00
C636   C     0.86474   0.60328   0.45951   0.00000  Uiso   1.00
C637   C     0.64675   0.88517   0.54047   0.00000  Uiso   1.00
C638   C     0.85323   0.88516   0.54047   0.00000  Uiso   1.00
C639   C     0.93999   0.68994   0.50000   0.00000  Uiso   1.00
C640   C     0.63516   0.60318   0.45954   0.00000  Uiso   1.00
C641   C     0.64683   0.61490   0.54045   0.00000  Uiso   1.00
C642   C     0.86478   0.89676   0.45952   0.00000  Uiso   1.00
C643   C     0.59312   0.84317   0.50000   0.00000  Uiso   1.00
C644   C     0.90688   0.65683   0.50000   0.00000  Uiso   1.00
C645   C     0.90688   0.84317   0.50000   0.00000  Uiso   1.00
C646   C     0.59312   0.65683   0.50000   0.00000  Uiso   1.00
C647   C     0.84312   0.59317   0.50000   0.00000  Uiso   1.00
C648   C     0.65688   0.90683   0.50000   0.00000  Uiso   1.00
C649   C     0.65688   0.59317   0.50000   0.00000  Uiso   1.00
C650   C     0.56001   0.81006   0.50000   0.00000  Uiso   1.00
C651   C     0.84312   0.90683   0.50000   0.00000  Uiso   1.00
C652   C     0.81001   0.93994   0.50000   0.00000  Uiso   1.00
C653   C     0.68999   0.56006   0.50000   0.00000  Uiso   1.00
C654   C     0.68999   0.93994   0.50000   0.00000  Uiso   1.00
C655   C     0.81001   0.56006   0.50000   0.00000  Uiso   1.00
C656   C     0.50000   0.78880   0.35732   0.00000  Uiso   1.00
H657   H     0.50000   0.81981   0.37552   0.00000  Uiso   1.00
H658   H     0.60727   0.83641   0.57194   0.00000  Uiso   1.00
H659   H     0.58639   0.85738   0.42807   0.00000  Uiso   1.00
H660   H     0.89277   0.66354   0.57196   0.00000  Uiso   1.00
H661   H     0.60740   0.66373   0.57190   0.00000  Uiso   1.00
H662   H     0.91363   0.85740   0.42808   0.00000  Uiso   1.00
H663   H     0.89271   0.83639   0.57194   0.00000  Uiso   1.00
H664   H     0.58625   0.64249   0.42811   0.00000  Uiso   1.00
H665   H     0.64273   0.91359   0.42806   0.00000  Uiso   1.00
H666   H     0.83644   0.60733   0.57195   0.00000  Uiso   1.00
H667   H     0.85722   0.58646   0.42804   0.00000  Uiso   1.00
H668   H     0.50000   0.68019   0.62449   0.00000  Uiso   1.00
H669   H     0.66361   0.89262   0.57193   0.00000  Uiso   1.00
H670   H     0.83637   0.89260   0.57192   0.00000  Uiso   1.00
H671   H     0.64260   0.58627   0.42810   0.00000  Uiso   1.00
H672   H     0.66375   0.60751   0.57189   0.00000  Uiso   1.00
H673   H     0.85729   0.91361   0.42806   0.00000  Uiso   1.00
H674   H     0.50000   0.68019   0.37552   0.00000  Uiso   1.00
H675   H     0.50000   0.81981   0.62449   0.00000  Uiso   1.00
H676   H     0.75001   0.56981   0.37551   0.00000  Uiso   1.00
H677   H     0.74999   0.93019   0.62448   0.00000  Uiso   1.00
H678   H     0.74999   0.93019   0.37551   0.00000  Uiso   1.00
H679   H     0.75001   0.56981   0.62448   0.00000  Uiso   1.00
H680   H     0.91356   0.64267   0.42806   0.00000  Uiso   1.00
N681   N     0.50000   0.75000   0.61907   0.00000  Uiso   1.00
N682   N     0.50000   0.75000   0.38093   0.00000  Uiso   1.00
N683   N     0.75000   0.50000   0.61907   0.00000  Uiso   1.00
N684   N     0.75000   0.50000   0.38093   0.00000  Uiso   1.00
O685   O     0.54580   0.70419   0.53821   0.00000  Uiso   1.00
O686   O     0.70419   0.54581   0.46179   0.00000  Uiso   1.00
O687   O     0.70419   0.54581   0.53821   0.00000  Uiso   1.00
O688   O     0.79580   0.95419   0.46179   0.00000  Uiso   1.00
O689   O     0.70419   0.95419   0.46179   0.00000  Uiso   1.00
O690   O     0.79580   0.54581   0.53821   0.00000  Uiso   1.00
O691   O     0.79580   0.54581   0.46179   0.00000  Uiso   1.00
O692   O     0.70419   0.95419   0.53821   0.00000  Uiso   1.00
O693   O     0.95419   0.79581   0.46179   0.00000  Uiso   1.00
O694   O     0.95419   0.79581   0.53821   0.00000  Uiso   1.00
O695   O     0.54580   0.70419   0.46179   0.00000  Uiso   1.00
O696   O     0.95419   0.70419   0.46179   0.00000  Uiso   1.00
O697   O     0.54580   0.79581   0.53821   0.00000  Uiso   1.00
O698   O     0.54580   0.79581   0.46179   0.00000  Uiso   1.00
O699   O     0.95419   0.70419   0.53821   0.00000  Uiso   1.00
O700   O     0.79580   0.95419   0.53821   0.00000  Uiso   1.00
Zn701  Zn    0.50000   0.75000   0.55104   0.00000  Uiso   1.00
Zn702  Zn    0.50000   0.75000   0.44896   0.00000  Uiso   1.00
Zn703  Zn    0.75000   0.50000   0.55104   0.00000  Uiso   1.00
Zn704  Zn    0.75000   0.50000   0.44896   0.00000  Uiso   1.00
C705   C     0.06001   0.18994   0.83333   0.00000  Uiso   1.00
C706   C    -0.00000   0.21120   0.97601   0.00000  Uiso   1.00
C707   C    -0.00000   0.21120   0.69066   0.00000  Uiso   1.00
C708   C     0.00000   0.28880   0.97601   0.00000  Uiso   1.00
C709   C     0.25000   0.03880   0.69065   0.00000  Uiso   1.00
C710   C     0.24999   0.46120   0.97601   0.00000  Uiso   1.00
C711   C     0.24999   0.46120   0.69065   0.00000  Uiso   1.00
C712   C     0.25000   0.03880   0.97601   0.00000  Uiso   1.00
C713   C     0.39673   0.13520   0.79285   0.00000  Uiso   1.00
C714   C     0.11477   0.35325   0.87381   0.00000  Uiso   1.00
C715   C     0.10325   0.36483   0.79286   0.00000  Uiso   1.00
C716   C     0.43999   0.31006   0.83333   0.00000  Uiso   1.00
C717   C     0.38526   0.14672   0.87382   0.00000  Uiso   1.00
C718   C     0.11484   0.14682   0.87379   0.00000  Uiso   1.00
C719   C     0.39677   0.36484   0.79286   0.00000  Uiso   1.00
C720   C     0.38522   0.35324   0.87381   0.00000  Uiso   1.00
C721   C     0.10317   0.13510   0.79288   0.00000  Uiso   1.00
C722   C     0.13523   0.39675   0.79285   0.00000  Uiso   1.00
C723   C     0.35327   0.11480   0.87381   0.00000  Uiso   1.00
C724   C     0.36474   0.10328   0.79285   0.00000  Uiso   1.00
C725   C     0.14675   0.38517   0.87381   0.00000  Uiso   1.00
C726   C     0.35323   0.38516   0.87380   0.00000  Uiso   1.00
C727   C     0.43999   0.18994   0.83333   0.00000  Uiso   1.00
C728   C     0.13516   0.10318   0.79288   0.00000  Uiso   1.00
C729   C     0.14683   0.11490   0.87378   0.00000  Uiso   1.00
C730   C     0.36478   0.39676   0.79286   0.00000  Uiso   1.00
C731   C     0.09312   0.34317   0.83334   0.00000  Uiso   1.00
C732   C     0.40688   0.15683   0.83334   0.00000  Uiso   1.00
C733   C     0.40688   0.34317   0.83334   0.00000  Uiso   1.00
C734   C     0.09312   0.15683   0.83334   0.00000  Uiso   1.00
C735   C     0.34312   0.09317   0.83333   0.00000  Uiso   1.00
C736   C     0.15688   0.40683   0.83333   0.00000  Uiso   1.00
C737   C     0.15688   0.09317   0.83333   0.00000  Uiso   1.00
C738   C     0.06001   0.31006   0.83333   0.00000  Uiso   1.00
C739   C     0.34312   0.40683   0.83333   0.00000  Uiso   1.00
C740   C     0.31001   0.43994   0.83333   0.00000  Uiso   1.00
C741   C     0.18999   0.06006   0.83333   0.00000  Uiso   1.00
C742   C     0.18999   0.43994   0.83333   0.00000  Uiso   1.00
C743   C     0.31001   0.06006   0.83333   0.00000  Uiso   1.00
C744   C     0.00000   0.28880   0.69066   0.00000  Uiso   1.00
H745   H     0.00000   0.31981   0.70885   0.00000  Uiso   1.00
H746   H     0.10727   0.33641   0.90528   0.00000  Uiso   1.00
H747   H     0.08639   0.35738   0.76140   0.00000  Uiso   1.00
H748   H     0.39277   0.16354   0.90529   0.00000  Uiso   1.00
H749   H     0.10740   0.16373   0.90523   0.00000  Uiso   1.00
H750   H     0.41363   0.35740   0.76141   0.00000  Uiso   1.00
H751   H     0.39271   0.33639   0.90527   0.00000  Uiso   1.00
H752   H     0.08625   0.14249   0.76145   0.00000  Uiso   1.00
H753   H     0.14273   0.41359   0.76139   0.00000  Uiso   1.00
H754   H     0.33644   0.10733   0.90528   0.00000  Uiso   1.00
H755   H     0.35722   0.08646   0.76138   0.00000  Uiso   1.00
H756   H    -0.00000   0.18019   0.95782   0.00000  Uiso   1.00
H757   H     0.16361   0.39262   0.90526   0.00000  Uiso   1.00
H758   H     0.33637   0.39260   0.90526   0.00000  Uiso   1.00
H759   H     0.14260   0.08627   0.76143   0.00000  Uiso   1.00
H760   H     0.16375   0.10751   0.90522   0.00000  Uiso   1.00
H761   H     0.35729   0.41361   0.76140   0.00000  Uiso   1.00
H762   H    -0.00000   0.18019   0.70885   0.00000  Uiso   1.00
H763   H     0.00000   0.31981   0.95782   0.00000  Uiso   1.00
H764   H     0.25001   0.06981   0.70884   0.00000  Uiso   1.00
H765   H     0.24999   0.43019   0.95782   0.00000  Uiso   1.00
H766   H     0.24999   0.43019   0.70884   0.00000  Uiso   1.00
H767   H     0.25001   0.06981   0.95782   0.00000  Uiso   1.00
H768   H     0.41356   0.14267   0.76139   0.00000  Uiso   1.00
N769   N    -0.00000   0.25000   0.95240   0.00000  Uiso   1.00
N770   N    -0.00000   0.25000   0.71427   0.00000  Uiso   1.00
N771   N     0.25000  -0.00000   0.95240   0.00000  Uiso   1.00
N772   N     0.25000  -0.00000   0.71427   0.00000  Uiso   1.00
O773   O     0.04580   0.20419   0.87154   0.00000  Uiso   1.00
O774   O     0.20419   0.04581   0.79513   0.00000  Uiso   1.00
O775   O     0.20419   0.04581   0.87154   0.00000  Uiso   1.00
O776   O     0.29580   0.45419   0.79513   0.00000  Uiso   1.00
O777   O     0.20419   0.45419   0.79513   0.00000  Uiso   1.00
O778   O     0.29580   0.04581   0.87154   0.00000  Uiso   1.00
O779   O     0.29580   0.04581   0.79513   0.00000  Uiso   1.00
O780   O     0.20419   0.45419   0.87154   0.00000  Uiso   1.00
O781   O     0.45419   0.29581   0.79513   0.00000  Uiso   1.00
O782   O     0.45419   0.29581   0.87154   0.00000  Uiso   1.00
O783   O     0.04580   0.20419   0.79513   0.00000  Uiso   1.00
O784   O     0.45419   0.20419   0.79513   0.00000  Uiso   1.00
O785   O     0.04580   0.29581   0.87154   0.00000  Uiso   1.00
O786   O     0.04580   0.29581   0.79513   0.00000  Uiso   1.00
O787   O     0.45419   0.20419   0.87154   0.00000  Uiso   1.00
O788   O     0.29580   0.45419   0.87154   0.00000  Uiso   1.00
Zn789  Zn   -0.00000   0.25000   0.88437   0.00000  Uiso   1.00
Zn790  Zn   -0.00000   0.25000   0.78229   0.00000  Uiso   1.00
Zn791  Zn    0.25000  -0.00000   0.88437   0.00000  Uiso   1.00
Zn792  Zn    0.25000  -0.00000   0.78229   0.00000  Uiso   1.00
C793   C     0.56001   0.18994   0.83333   0.00000  Uiso   1.00
C794   C     0.50000   0.21120   0.97601   0.00000  Uiso   1.00
C795   C     0.50000   0.21120   0.69066   0.00000  Uiso   1.00
C796   C     0.50000   0.28880   0.97601   0.00000  Uiso   1.00
C797   C     0.75000   0.03880   0.69065   0.00000  Uiso   1.00
C798   C     0.74999   0.46120   0.97601   0.00000  Uiso   1.00
C799   C     0.74999   0.46120   0.69065   0.00000  Uiso   1.00
C800   C     0.75000   0.03880   0.97601   0.00000  Uiso   1.00
C801   C     0.89673   0.13520   0.79285   0.00000  Uiso   1.00
C802   C     0.61477   0.35325   0.87381   0.00000  Uiso   1.00
C803   C     0.60325   0.36483   0.79286   0.00000  Uiso   1.00
C804   C     0.93999   0.31006   0.83333   0.00000  Uiso   1.00
C805   C     0.88526   0.14672   0.87382   0.00000  Uiso   1.00
C806   C     0.61484   0.14682   0.87379   0.00000  Uiso   1.00
C807   C     0.89677   0.36484   0.79286   0.00000  Uiso   1.00
C808   C     0.88522   0.35324   0.87381   0.00000  Uiso   1.00
C809   C     0.60317   0.13510   0.79288   0.00000  Uiso   1.00
C810   C     0.63523   0.39675   0.79285   0.00000  Uiso   1.00
C811   C     0.85327   0.11480   0.87381   0.00000  Uiso   1.00
C812   C     0.86474   0.10328   0.79285   0.00000  Uiso   1.00
C813   C     0.64675   0.38517   0.87381   0.00000  Uiso   1.00
C814   C     0.85323   0.38516   0.87380   0.00000  Uiso   1.00
C815   C     0.93999   0.18994   0.83333   0.00000  Uiso   1.00
C816   C     0.63516   0.10318   0.79288   0.00000  Uiso   1.00
C817   C     0.64683   0.11490   0.87378   0.00000  Uiso   1.00
C818   C     0.86478   0.39676   0.79286   0.00000  Uiso   1.00
C819   C     0.59312   0.34317   0.83334   0.00000  Uiso   1.00
C820   C     0.90688   0.15683   0.83334   0.00000  Uiso   1.00
C821   C     0.90688   0.34317   0.83334   0.00000  Uiso   1.00
C822   C     0.59312   0.15683   0.83334   0.00000  Uiso   1.00
C823   C     0.84312   0.09317   0.83333   0.00000  Uiso   1.00
C824   C     0.65688   0.40683   0.83333   0.00000  Uiso   1.00
C825   C     0.65688   0.09317   0.83333   0.00000  Uiso   1.00
C826   C     0.56001   0.31006   0.83333   0.00000  Uiso   1.00
C827   C     0.84312   0.40683   0.83333   0.00000  Uiso   1.00
C828   C     0.81001   0.43994   0.83333   0.00000  Uiso   1.00
C829   C     0.68999   0.06006   0.83333   0.00000  Uiso   1.00
C830   C     0.68999   0.43994   0.83333   0.00000  Uiso   1.00
C831   C     0.81001   0.06006   0.83333   0.00000  Uiso   1.00
C832   C     0.50000   0.28880   0.69066   0.00000  Uiso   1.00
H833   H     0.50000   0.31981   0.70885   0.00000  Uiso   1.00
H834   H     0.60727   0.33641   0.90528   0.00000  Uiso   1.00
H835   H     0.58639   0.35738   0.76140   0.00000  Uiso   1.00
H836   H     0.89277   0.16354   0.90529   0.00000  Uiso   1.00
H837   H     0.60740   0.16373   0.90523   0.00000  Uiso   1.00
H838   H     0.91363   0.35740   0.76141   0.00000  Uiso   1.00
H839   H     0.89271   0.33639   0.90527   0.00000  Uiso   1.00
H840   H     0.58625   0.14249   0.76145   0.00000  Uiso   1.00
H841   H     0.64273   0.41359   0.76139   0.00000  Uiso   1.00
H842   H     0.83644   0.10733   0.90528   0.00000  Uiso   1.00
H843   H     0.85722   0.08646   0.76138   0.00000  Uiso   1.00
H844   H     0.50000   0.18019   0.95782   0.00000  Uiso   1.00
H845   H     0.66361   0.39262   0.90526   0.00000  Uiso   1.00
H846   H     0.83637   0.39260   0.90526   0.00000  Uiso   1.00
H847   H     0.64260   0.08627   0.76143   0.00000  Uiso   1.00
H848   H     0.66375   0.10751   0.90522   0.00000  Uiso   1.00
H849   H     0.85729   0.41361   0.76140   0.00000  Uiso   1.00
H850   H     0.50000   0.18019   0.70885   0.00000  Uiso   1.00
H851   H     0.50000   0.31981   0.95782   0.00000  Uiso   1.00
H852   H     0.75001   0.06981   0.70884   0.00000  Uiso   1.00
H853   H     0.74999   0.43019   0.95782   0.00000  Uiso   1.00
H854   H     0.74999   0.43019   0.70884   0.00000  Uiso   1.00
H855   H     0.75001   0.06981   0.95782   0.00000  Uiso   1.00
H856   H     0.91356   0.14267   0.76139   0.00000  Uiso   1.00
N857   N     0.50000   0.25000   0.95240   0.00000  Uiso   1.00
N858   N     0.50000   0.25000   0.71427   0.00000  Uiso   1.00
N859   N     0.75000  -0.00000   0.95240   0.00000  Uiso   1.00
N860   N     0.75000  -0.00000   0.71427   0.00000  Uiso   1.00
O861   O     0.54580   0.20419   0.87154   0.00000  Uiso   1.00
O862   O     0.70419   0.04581   0.79513   0.00000  Uiso   1.00
O863   O     0.70419   0.04581   0.87154   0.00000  Uiso   1.00
O864   O     0.79580   0.45419   0.79513   0.00000  Uiso   1.00
O865   O     0.70419   0.45419   0.79513   0.00000  Uiso   1.00
O866   O     0.79580   0.04581   0.87154   0.00000  Uiso   1.00
O867   O     0.79580   0.04581   0.79513   0.00000  Uiso   1.00
O868   O     0.70419   0.45419   0.87154   0.00000  Uiso   1.00
O869   O     0.95419   0.29581   0.79513   0.00000  Uiso   1.00
O870   O     0.95419   0.29581   0.87154   0.00000  Uiso   1.00
O871   O     0.54580   0.20419   0.79513   0.00000  Uiso   1.00
O872   O     0.95419   0.20419   0.79513   0.00000  Uiso   1.00
O873   O     0.54580   0.29581   0.87154   0.00000  Uiso   1.00
O874   O     0.54580   0.29581   0.79513   0.00000  Uiso   1.00
O875   O     0.95419   0.20419   0.87154   0.00000  Uiso   1.00
O876   O     0.79580   0.45419   0.87154   0.00000  Uiso   1.00
Zn877  Zn    0.50000   0.25000   0.88437   0.00000  Uiso   1.00
Zn878  Zn    0.50000   0.25000   0.78229   0.00000  Uiso   1.00
Zn879  Zn    0.75000  -0.00000   0.88437   0.00000  Uiso   1.00
Zn880  Zn    0.75000  -0.00000   0.78229   0.00000  Uiso   1.00
C881   C     0.06001   0.68994   0.83333   0.00000  Uiso   1.00
C882   C    -0.00000   0.71120   0.97601   0.00000  Uiso   1.00
C883   C    -0.00000   0.71120   0.69066   0.00000  Uiso   1.00
C884   C     0.00000   0.78880   0.97601   0.00000  Uiso   1.00
C885   C     0.25000   0.53880   0.69065   0.00000  Uiso   1.00
C886   C     0.24999   0.96120   0.97601   0.00000  Uiso   1.00
C887   C     0.24999   0.96120   0.69065   0.00000  Uiso   1.00
C888   C     0.25000   0.53880   0.97601   0.00000  Uiso   1.00
C889   C     0.39673   0.63520   0.79285   0.00000  Uiso   1.00
C890   C     0.11477   0.85325   0.87381   0.00000  Uiso   1.00
C891   C     0.10325   0.86483   0.79286   0.00000  Uiso   1.00
C892   C     0.43999   0.81006   0.83333   0.00000  Uiso   1.00
C893   C     0.38526   0.64672   0.87382   0.00000  Uiso   1.00
C894   C     0.11484   0.64682   0.87379   0.00000  Uiso   1.00
C895   C     0.39677   0.86484   0.79286   0.00000  Uiso   1.00
C896   C     0.38522   0.85324   0.87381   0.00000  Uiso   1.00
C897   C     0.10317   0.63510   0.79288   0.00000  Uiso   1.00
C898   C     0.13523   0.89675   0.79285   0.00000  Uiso   1.00
C899   C     0.35327   0.61480   0.87381   0.00000  Uiso   1.00
C900   C     0.36474   0.60328   0.79285   0.00000  Uiso   1.00
C901   C     0.14675   0.88517   0.87381   0.00000  Uiso   1.00
C902   C     0.35323   0.88516   0.87380   0.00000  Uiso   1.00
C903   C     0.43999   0.68994   0.83333   0.00000  Uiso   1.00
C904   C     0.13516   0.60318   0.79288   0.00000  Uiso   1.00
C905   C     0.14683   0.61490   0.87378   0.00000  Uiso   1.00
C906   C     0.36478   0.89676   0.79286   0.00000  Uiso   1.00
C907   C     0.09312   0.84317   0.83334   0.00000  Uiso   1.00
C908   C     0.40688   0.65683   0.83334   0.00000  Uiso   1.00
C909   C     0.40688   0.84317   0.83334   0.00000  Uiso   1.00
C910   C     0.09312   0.65683   0.83334   0.00000  Uiso   1.00
C911   C     0.34312   0.59317   0.83333   0.00000  Uiso   1.00
C912   C     0.15688   0.90683   0.83333   0.00000  Uiso   1.00
C913   C     0.15688   0.59317   0.83333   0.00000  Uiso   1.00
C914   C     0.06001   0.81006   0.83333   0.00000  Uiso   1.00
C915   C     0.34312   0.90683   0.83333   0.00000  Uiso   1.00
C916   C     0.31001   0.93994   0.83333   0.00000  Uiso   1.00
C917   C     0.18999   0.56006   0.83333   0.00000  Uiso   1.00
C918   C     0.18999   0.93994   0.83333   0.00000  Uiso   1.00
C919   C     0.31001   0.56006   0.83333   0.00000  Uiso   1.00
C920   C     0.00000   0.78880   0.69066   0.00000  Uiso   1.00
H921   H     0.00000   0.81981   0.70885   0.00000  Uiso   1.00
H922   H     0.10727   0.83641   0.90528   0.00000  Uiso   1.00
H923   H     0.08639   0.85738   0.76140   0.00000  Uiso   1.00
H924   H     0.39277   0.66354   0.90529   0.00000  Uiso   1.00
H925   H     0.10740   0.66373   0.90523   0.00000  Uiso   1.00
H926   H     0.41363   0.85740   0.76141   0.00000  Uiso   1.00
H927   H     0.39271   0.83639   0.90527   0.00000  Uiso   1.00
H928   H     0.08625   0.64249   0.76145   0.00000  Uiso   1.00
H929   H     0.14273   0.91359   0.76139   0.00000  Uiso   1.00
H930   H     0.33644   0.60733   0.90528   0.00000  Uiso   1.00
H931   H     0.35722   0.58646   0.76138   0.00000  Uiso   1.00
H932   H    -0.00000   0.68019   0.95782   0.00000  Uiso   1.00
H933   H     0.16361   0.89262   0.90526   0.00000  Uiso   1.00
H934   H     0.33637   0.89260   0.90526   0.00000  Uiso   1.00
H935   H     0.14260   0.58627   0.76143   0.00000  Uiso   1.00
H936   H     0.16375   0.60751   0.90522   0.00000  Uiso   1.00
H937   H     0.35729   0.91361   0.76140   0.00000  Uiso   1.00
H938   H    -0.00000   0.68019   0.70885   0.00000  Uiso   1.00
H939   H     0.00000   0.81981   0.95782   0.00000  Uiso   1.00
H940   H     0.25001   0.56981   0.70884   0.00000  Uiso   1.00
H941   H     0.24999   0.93019   0.95782   0.00000  Uiso   1.00
H942   H     0.24999   0.93019   0.70884   0.00000  Uiso   1.00
H943   H     0.25001   0.56981   0.95782   0.00000  Uiso   1.00
H944   H     0.41356   0.64267   0.76139   0.00000  Uiso   1.00
N945   N    -0.00000   0.75000   0.95240   0.00000  Uiso   1.00
N946   N    -0.00000   0.75000   0.71427   0.00000  Uiso   1.00
N947   N     0.25000   0.50000   0.95240   0.00000  Uiso   1.00
N948   N     0.25000   0.50000   0.71427   0.00000  Uiso   1.00
O949   O     0.04580   0.70419   0.87154   0.00000  Uiso   1.00
O950   O     0.20419   0.54581   0.79513   0.00000  Uiso   1.00
O951   O     0.20419   0.54581   0.87154   0.00000  Uiso   1.00
O952   O     0.29580   0.95419   0.79513   0.00000  Uiso   1.00
O953   O     0.20419   0.95419   0.79513   0.00000  Uiso   1.00
O954   O     0.29580   0.54581   0.87154   0.00000  Uiso   1.00
O955   O     0.29580   0.54581   0.79513   0.00000  Uiso   1.00
O956   O     0.20419   0.95419   0.87154   0.00000  Uiso   1.00
O957   O     0.45419   0.79581   0.79513   0.00000  Uiso   1.00
O958   O     0.45419   0.79581   0.87154   0.00000  Uiso   1.00
O959   O     0.04580   0.70419   0.79513   0.00000  Uiso   1.00
O960   O     0.45419   0.70419   0.79513   0.00000  Uiso   1.00
O961   O     0.04580   0.79581   0.87154   0.00000  Uiso   1.00
O962   O     0.04580   0.79581   0.79513   0.00000  Uiso   1.00
O963   O     0.45419   0.70419   0.87154   0.00000  Uiso   1.00
O964   O     0.29580   0.95419   0.87154   0.00000  Uiso   1.00
Zn965  Zn   -0.00000   0.75000   0.88437   0.00000  Uiso   1.00
Zn966  Zn   -0.00000   0.75000   0.78229   0.00000  Uiso   1.00
Zn967  Zn    0.25000   0.50000   0.88437   0.00000  Uiso   1.00
Zn968  Zn    0.25000   0.50000   0.78229   0.00000  Uiso   1.00
C969   C     0.56001   0.68994   0.83333   0.00000  Uiso   1.00
C970   C     0.50000   0.71120   0.97601   0.00000  Uiso   1.00
C971   C     0.50000   0.71120   0.69066   0.00000  Uiso   1.00
C972   C     0.50000   0.78880   0.97601   0.00000  Uiso   1.00
C973   C     0.75000   0.53880   0.69065   0.00000  Uiso   1.00
C974   C     0.74999   0.96120   0.97601   0.00000  Uiso   1.00
C975   C     0.74999   0.96120   0.69065   0.00000  Uiso   1.00
C976   C     0.75000   0.53880   0.97601   0.00000  Uiso   1.00
C977   C     0.89673   0.63520   0.79285   0.00000  Uiso   1.00
C978   C     0.61477   0.85325   0.87381   0.00000  Uiso   1.00
C979   C     0.60325   0.86483   0.79286   0.00000  Uiso   1.00
C980   C     0.93999   0.81006   0.83333   0.00000  Uiso   1.00
C981   C     0.88526   0.64672   0.87382   0.00000  Uiso   1.00
C982   C     0.61484   0.64682   0.87379   0.00000  Uiso   1.00
C983   C     0.89677   0.86484   0.79286   0.00000  Uiso   1.00
C984   C     0.88522   0.85324   0.87381   0.00000  Uiso   1.00
C985   C     0.60317   0.63510   0.79288   0.00000  Uiso   1.00
C986   C     0.63523   0.89675   0.79285   0.00000  Uiso   1.00
C987   C     0.85327   0.61480   0.87381   0.00000  Uiso   1.00
C988   C     0.86474   0.60328   0.79285   0.00000  Uiso   1.00
C989   C     0.64675   0.88517   0.87381   0.00000  Uiso   1.00
C990   C     0.85323   0.88516   0.87380   0.00000  Uiso   1.00
C991   C     0.93999   0.68994   0.83333   0.00000  Uiso   1.00
C992   C     0.63516   0.60318   0.79288   0.00000  Uiso   1.00
C993   C     0.64683   0.61490   0.87378   0.00000  Uiso   1.00
C994   C     0.86478   0.89676   0.79286   0.00000  Uiso   1.00
C995   C     0.59312   0.84317   0.83334   0.00000  Uiso   1.00
C996   C     0.90688   0.65683   0.83334   0.00000  Uiso   1.00
C997   C     0.90688   0.84317   0.83334   0.00000  Uiso   1.00
C998   C     0.59312   0.65683   0.83334   0.00000  Uiso   1.00
C999   C     0.84312   0.59317   0.83333   0.00000  Uiso   1.00
C1000  C     0.65688   0.90683   0.83333   0.00000  Uiso   1.00
C1001  C     0.65688   0.59317   0.83333   0.00000  Uiso   1.00
C1002  C     0.56001   0.81006   0.83333   0.00000  Uiso   1.00
C1003  C     0.84312   0.90683   0.83333   0.00000  Uiso   1.00
C1004  C     0.81001   0.93994   0.83333   0.00000  Uiso   1.00
C1005  C     0.68999   0.56006   0.83333   0.00000  Uiso   1.00
C1006  C     0.68999   0.93994   0.83333   0.00000  Uiso   1.00
C1007  C     0.81001   0.56006   0.83333   0.00000  Uiso   1.00
C1008  C     0.50000   0.78880   0.69066   0.00000  Uiso   1.00
H1009  H     0.50000   0.81981   0.70885   0.00000  Uiso   1.00
H1010  H     0.60727   0.83641   0.90528   0.00000  Uiso   1.00
H1011  H     0.58639   0.85738   0.76140   0.00000  Uiso   1.00
H1012  H     0.89277   0.66354   0.90529   0.00000  Uiso   1.00
H1013  H     0.60740   0.66373   0.90523   0.00000  Uiso   1.00
H1014  H     0.91363   0.85740   0.76141   0.00000  Uiso   1.00
H1015  H     0.89271   0.83639   0.90527   0.00000  Uiso   1.00
H1016  H     0.58625   0.64249   0.76145   0.00000  Uiso   1.00
H1017  H     0.64273   0.91359   0.76139   0.00000  Uiso   1.00
H1018  H     0.83644   0.60733   0.90528   0.00000  Uiso   1.00
H1019  H     0.85722   0.58646   0.76138   0.00000  Uiso   1.00
H1020  H     0.50000   0.68019   0.95782   0.00000  Uiso   1.00
H1021  H     0.66361   0.89262   0.90526   0.00000  Uiso   1.00
H1022  H     0.83637   0.89260   0.90526   0.00000  Uiso   1.00
H1023  H     0.64260   0.58627   0.76143   0.00000  Uiso   1.00
H1024  H     0.66375   0.60751   0.90522   0.00000  Uiso   1.00
H1025  H     0.85729   0.91361   0.76140   0.00000  Uiso   1.00
H1026  H     0.50000   0.68019   0.70885   0.00000  Uiso   1.00
H1027  H     0.50000   0.81981   0.95782   0.00000  Uiso   1.00
H1028  H     0.75001   0.56981   0.70884   0.00000  Uiso   1.00
H1029  H     0.74999   0.93019   0.95782   0.00000  Uiso   1.00
H1030  H     0.74999   0.93019   0.70884   0.00000  Uiso   1.00
H1031  H     0.75001   0.56981   0.95782   0.00000  Uiso   1.00
H1032  H     0.91356   0.64267   0.76139   0.00000  Uiso   1.00
N1033  N     0.50000   0.75000   0.95240   0.00000  Uiso   1.00
N1034  N     0.50000   0.75000   0.71427   0.00000  Uiso   1.00
N1035  N     0.75000   0.50000   0.95240   0.00000  Uiso   1.00
N1036  N     0.75000   0.50000   0.71427   0.00000  Uiso   1.00
O1037  O     0.54580   0.70419   0.87154   0.00000  Uiso   1.00
O1038  O     0.70419   0.54581   0.79513   0.00000  Uiso   1.00
O1039  O     0.70419   0.54581   0.87154   0.00000  Uiso   1.00
O1040  O     0.79580   0.95419   0.79513   0.00000  Uiso   1.00
O1041  O     0.70419   0.95419   0.79513   0.00000  Uiso   1.00
O1042  O     0.79580   0.54581   0.87154   0.00000  Uiso   1.00
O1043  O     0.79580   0.54581   0.79513   0.00000  Uiso   1.00
O1044  O     0.70419   0.95419   0.87154   0.00000  Uiso   1.00
O1045  O     0.95419   0.79581   0.79513   0.00000  Uiso   1.00
O1046  O     0.95419   0.79581   0.87154   0.00000  Uiso   1.00
O1047  O     0.54580   0.70419   0.79513   0.00000  Uiso   1.00
O1048  O     0.95419   0.70419   0.79513   0.00000  Uiso   1.00
O1049  O     0.54580   0.79581   0.87154   0.00000  Uiso   1.00
O1050  O     0.54580   0.79581   0.79513   0.00000  Uiso   1.00
O1051  O     0.95419   0.70419   0.87154   0.00000  Uiso   1.00
O1052  O     0.79580   0.95419   0.87154   0.00000  Uiso   1.00
Zn1053 Zn    0.50000   0.75000   0.88437   0.00000  Uiso   1.00
Zn1054 Zn    0.50000   0.75000   0.78229   0.00000  Uiso   1.00
Zn1055 Zn    0.75000   0.50000   0.88437   0.00000  Uiso   1.00
Zn1056 Zn    0.75000   0.50000   0.78229   0.00000  Uiso   1.00
loop_
_geom_bond_atom_site_label_1
_geom_bond_atom_site_label_2
_geom_bond_distance
_geom_bond_site_symmetry_2
_ccdc_geom_bond_type
C1     O69     1.282   .     A
C1     O79     1.282   .     A
C1     C30     1.420   .     S
C2     N65     1.366   .     A
C2     H52     1.082   .     S
C2     C355    1.416   .     S
C3     N66     1.366   .     A
C3     H58     1.082   .     S
C3     C706    1.416   1_554 S
C4     H59     1.082   .     S
C4     C392    1.416   .     S
C4     N65     1.366   .     S
C5     N68     1.366   .     A
C5     H60     1.082   .     S
C5     C712    1.416   1_554 S
C6     H61     1.082   .     S
C6     C359    1.416   .     S
C6     N243    1.366   .     S
C7     H62     1.082   .     S
C7     C710    1.416   1_554 S
C7     N244    1.366   .     S
C8     H63     1.082   .     S
C8     N67     1.366   .     A
C8     C357    1.416   .     S
C9     H64     1.084   .     S
C9     C20     1.370   .     A
C9     C28     1.397   .     A
C10    C27     1.397   .     A
C10    H42     1.084   .     S
C10    C21     1.370   .     A
C11    C18     1.370   .     A
C11    H43     1.084   .     S
C11    C27     1.397   .     A
C12    C29     1.420   .     S
C12    O78     1.282   .     A
C12    O77     1.282   .     A
C13    C28     1.397   .     A
C13    C19     1.370   .     A
C13    H44     1.084   .     S
C14    C30     1.397   .     A
C14    H45     1.084   .     S
C14    C25     1.370   .     A
C15    C29     1.397   .     A
C15    C26     1.370   .     A
C15    H46     1.084   .     S
C16    H47     1.084   .     S
C16    C29     1.397   .     A
C16    C22     1.370   .     A
C17    H48     1.084   .     S
C17    C30     1.397   .     A
C17    C24     1.370   .     A
C18    C32     1.397   .     A
C18    H49     1.084   .     S
C19    C31     1.397   .     A
C19    H50     1.084   .     S
C20    H51     1.084   .     S
C20    C31     1.397   .     A
C21    C32     1.397   .     A
C21    H53     1.084   .     S
C22    C35     1.397   .     A
C22    H54     1.084   .     S
C23    O83     1.282   .     A
C23    C28     1.420   .     S
C23    O80     1.282   .     A
C24    H55     1.084   .     S
C24    C33     1.397   .     A
C25    H56     1.084   .     S
C25    C33     1.397   .     A
C26    C35     1.397   .     A
C26    H57     1.084   .     S
C27    C34     1.420   .     S
C31    C39     1.420   .     S
C32    C38     1.420   .     S
C33    C37     1.420   .     S
C34    O81     1.282   .     A
C34    O82     1.282   .     A
C35    C36     1.420   .     S
C36    O84     1.282   .     A
C36    O72     1.282   .     A
C37    O70     1.282   .     A
C37    O71     1.282   .     A
C38    O76     1.282   .     A
C38    O73     1.282   .     A
C39    O74     1.282   .     A
C39    O75     1.282   .     A
C40    H41     1.082   .     S
C40    C708    1.416   1_554 S
C40    N66     1.366   .     S
N65    Zn85    2.008   .     S
N66    Zn86    2.008   .     S
N67    Zn87    2.008   .     S
N67    C182    1.366   1_545 S
N68    Zn88    2.008   .     S
N68    C183    1.366   1_545 S
O69    Zn85    2.000   .     S
O70    Zn88    2.000   .     S
O71    Zn87    2.000   .     S
O72    Zn264   2.000   .     S
O73    Zn264   2.000   .     S
O74    Zn87    2.000   .     S
O75    Zn88    2.000   .     S
O76    Zn263   2.000   .     S
O77    Zn174   2.000   .     S
O78    Zn173   2.000   .     S
O79    Zn86    2.000   .     S
O80    Zn174   2.000   .     S
O81    Zn85    2.000   .     S
O82    Zn86    2.000   .     S
O83    Zn173   2.000   .     S
O84    Zn263   2.000   .     S
Zn85   O166    2.000   1_455 S
Zn85   O171    2.000   1_455 S
Zn86   O168    2.000   1_455 S
Zn86   O165    2.000   1_455 S
Zn87   O252    2.000   1_545 S
Zn87   O260    2.000   1_545 S
Zn88   O249    2.000   1_545 S
Zn88   O248    2.000   1_545 S
C89    O157    1.282   .     A
C89    O167    1.282   .     A
C89    C118    1.420   .     S
C90    N153    1.366   .     A
C90    H140    1.082   .     S
C90    C443    1.416   .     S
C91    N154    1.366   .     A
C91    H146    1.082   .     S
C91    C794    1.416   1_554 S
C92    H147    1.082   .     S
C92    C480    1.416   .     S
C92    N153    1.366   .     S
C93    N156    1.366   .     A
C93    H148    1.082   .     S
C93    C800    1.416   1_554 S
C94    H149    1.082   .     S
C94    C447    1.416   .     S
C94    N331    1.366   .     S
C95    H150    1.082   .     S
C95    C798    1.416   1_554 S
C95    N332    1.366   .     S
C96    H151    1.082   .     S
C96    N155    1.366   .     A
C96    C445    1.416   .     S
C97    H152    1.084   .     S
C97    C108    1.370   .     A
C97    C116    1.397   .     A
C98    C115    1.397   .     A
C98    H130    1.084   .     S
C98    C109    1.370   .     A
C99    C106    1.370   .     A
C99    H131    1.084   .     S
C99    C115    1.397   .     A
C100   C117    1.420   .     S
C100   O166    1.282   .     A
C100   O165    1.282   .     A
C101   C116    1.397   .     A
C101   C107    1.370   .     A
C101   H132    1.084   .     S
C102   C118    1.397   .     A
C102   H133    1.084   .     S
C102   C113    1.370   .     A
C103   C117    1.397   .     A
C103   C114    1.370   .     A
C103   H134    1.084   .     S
C104   H135    1.084   .     S
C104   C117    1.397   .     A
C104   C110    1.370   .     A
C105   H136    1.084   .     S
C105   C118    1.397   .     A
C105   C112    1.370   .     A
C106   C120    1.397   .     A
C106   H137    1.084   .     S
C107   C119    1.397   .     A
C107   H138    1.084   .     S
C108   H139    1.084   .     S
C108   C119    1.397   .     A
C109   C120    1.397   .     A
C109   H141    1.084   .     S
C110   C123    1.397   .     A
C110   H142    1.084   .     S
C111   O171    1.282   .     A
C111   C116    1.420   .     S
C111   O168    1.282   .     A
C112   H143    1.084   .     S
C112   C121    1.397   .     A
C113   H144    1.084   .     S
C113   C121    1.397   .     A
C114   C123    1.397   .     A
C114   H145    1.084   .     S
C115   C122    1.420   .     S
C119   C127    1.420   .     S
C120   C126    1.420   .     S
C121   C125    1.420   .     S
C122   O169    1.282   .     A
C122   O170    1.282   .     A
C123   C124    1.420   .     S
C124   O172    1.282   .     A
C124   O160    1.282   .     A
C125   O158    1.282   .     A
C125   O159    1.282   .     A
C126   O164    1.282   .     A
C126   O161    1.282   .     A
C127   O162    1.282   .     A
C127   O163    1.282   .     A
C128   H129    1.082   .     S
C128   C796    1.416   1_554 S
C128   N154    1.366   .     S
N153   Zn173   2.008   .     S
N154   Zn174   2.008   .     S
N155   Zn175   2.008   .     S
N155   C270    1.366   1_545 S
N156   Zn176   2.008   .     S
N156   C271    1.366   1_545 S
O157   Zn173   2.000   .     S
O158   Zn176   2.000   .     S
O159   Zn175   2.000   .     S
O160   Zn352   2.000   .     S
O161   Zn352   2.000   .     S
O162   Zn175   2.000   .     S
O163   Zn176   2.000   .     S
O164   Zn351   2.000   .     S
O165   Zn86    2.000   1_655 S
O166   Zn85    2.000   1_655 S
O167   Zn174   2.000   .     S
O168   Zn86    2.000   1_655 S
O169   Zn173   2.000   .     S
O170   Zn174   2.000   .     S
O171   Zn85    2.000   1_655 S
O172   Zn351   2.000   .     S
Zn175  O340    2.000   1_545 S
Zn175  O348    2.000   1_545 S
Zn176  O337    2.000   1_545 S
Zn176  O336    2.000   1_545 S
C177   O245    1.282   .     A
C177   O255    1.282   .     A
C177   C206    1.420   .     S
C178   N241    1.366   .     A
C178   H228    1.082   .     S
C178   C531    1.416   .     S
C179   N242    1.366   .     A
C179   H234    1.082   .     S
C179   C882    1.416   1_554 S
C180   H235    1.082   .     S
C180   C568    1.416   .     S
C180   N241    1.366   .     S
C181   N244    1.366   .     A
C181   H236    1.082   .     S
C181   C888    1.416   1_554 S
C182   H237    1.082   .     S
C182   C535    1.416   .     S
C182   N67     1.366   1_565 S
C183   H238    1.082   .     S
C183   C886    1.416   1_554 S
C183   N68     1.366   1_565 S
C184   H239    1.082   .     S
C184   N243    1.366   .     A
C184   C533    1.416   .     S
C185   H240    1.084   .     S
C185   C196    1.370   .     A
C185   C204    1.397   .     A
C186   C203    1.397   .     A
C186   H218    1.084   .     S
C186   C197    1.370   .     A
C187   C194    1.370   .     A
C187   H219    1.084   .     S
C187   C203    1.397   .     A
C188   C205    1.420   .     S
C188   O254    1.282   .     A
C188   O253    1.282   .     A
C189   C204    1.397   .     A
C189   C195    1.370   .     A
C189   H220    1.084   .     S
C190   C206    1.397   .     A
C190   H221    1.084   .     S
C190   C201    1.370   .     A
C191   C205    1.397   .     A
C191   C202    1.370   .     A
C191   H222    1.084   .     S
C192   H223    1.084   .     S
C192   C205    1.397   .     A
C192   C198    1.370   .     A
C193   H224    1.084   .     S
C193   C206    1.397   .     A
C193   C200    1.370   .     A
C194   C208    1.397   .     A
C194   H225    1.084   .     S
C195   C207    1.397   .     A
C195   H226    1.084   .     S
C196   H227    1.084   .     S
C196   C207    1.397   .     A
C197   C208    1.397   .     A
C197   H229    1.084   .     S
C198   C211    1.397   .     A
C198   H230    1.084   .     S
C199   O259    1.282   .     A
C199   C204    1.420   .     S
C199   O256    1.282   .     A
C200   H231    1.084   .     S
C200   C209    1.397   .     A
C201   H232    1.084   .     S
C201   C209    1.397   .     A
C202   C211    1.397   .     A
C202   H233    1.084   .     S
C203   C210    1.420   .     S
C207   C215    1.420   .     S
C208   C214    1.420   .     S
C209   C213    1.420   .     S
C210   O257    1.282   .     A
C210   O258    1.282   .     A
C211   C212    1.420   .     S
C212   O260    1.282   .     A
C212   O248    1.282   .     A
C213   O246    1.282   .     A
C213   O247    1.282   .     A
C214   O252    1.282   .     A
C214   O249    1.282   .     A
C215   O250    1.282   .     A
C215   O251    1.282   .     A
C216   H217    1.082   .     S
C216   C884    1.416   1_554 S
C216   N242    1.366   .     S
N241   Zn261   2.008   .     S
N242   Zn262   2.008   .     S
N243   Zn263   2.008   .     S
N244   Zn264   2.008   .     S
O245   Zn261   2.000   .     S
O246   Zn264   2.000   .     S
O247   Zn263   2.000   .     S
O248   Zn88    2.000   1_565 S
O249   Zn88    2.000   1_565 S
O250   Zn263   2.000   .     S
O251   Zn264   2.000   .     S
O252   Zn87    2.000   1_565 S
O253   Zn350   2.000   .     S
O254   Zn349   2.000   .     S
O255   Zn262   2.000   .     S
O256   Zn350   2.000   .     S
O257   Zn261   2.000   .     S
O258   Zn262   2.000   .     S
O259   Zn349   2.000   .     S
O260   Zn87    2.000   1_565 S
Zn261  O342    2.000   1_455 S
Zn261  O347    2.000   1_455 S
Zn262  O344    2.000   1_455 S
Zn262  O341    2.000   1_455 S
C265   O333    1.282   .     A
C265   O343    1.282   .     A
C265   C294    1.420   .     S
C266   N329    1.366   .     A
C266   H316    1.082   .     S
C266   C619    1.416   .     S
C267   N330    1.366   .     A
C267   H322    1.082   .     S
C267   C970    1.416   1_554 S
C268   H323    1.082   .     S
C268   C656    1.416   .     S
C268   N329    1.366   .     S
C269   N332    1.366   .     A
C269   H324    1.082   .     S
C269   C976    1.416   1_554 S
C270   H325    1.082   .     S
C270   C623    1.416   .     S
C270   N155    1.366   1_565 S
C271   H326    1.082   .     S
C271   C974    1.416   1_554 S
C271   N156    1.366   1_565 S
C272   H327    1.082   .     S
C272   N331    1.366   .     A
C272   C621    1.416   .     S
C273   H328    1.084   .     S
C273   C284    1.370   .     A
C273   C292    1.397   .     A
C274   C291    1.397   .     A
C274   H306    1.084   .     S
C274   C285    1.370   .     A
C275   C282    1.370   .     A
C275   H307    1.084   .     S
C275   C291    1.397   .     A
C276   C293    1.420   .     S
C276   O342    1.282   .     A
C276   O341    1.282   .     A
C277   C292    1.397   .     A
C277   C283    1.370   .     A
C277   H308    1.084   .     S
C278   C294    1.397   .     A
C278   H309    1.084   .     S
C278   C289    1.370   .     A
C279   C293    1.397   .     A
C279   C290    1.370   .     A
C279   H310    1.084   .     S
C280   H311    1.084   .     S
C280   C293    1.397   .     A
C280   C286    1.370   .     A
C281   H312    1.084   .     S
C281   C294    1.397   .     A
C281   C288    1.370   .     A
C282   C296    1.397   .     A
C282   H313    1.084   .     S
C283   C295    1.397   .     A
C283   H314    1.084   .     S
C284   H315    1.084   .     S
C284   C295    1.397   .     A
C285   C296    1.397   .     A
C285   H317    1.084   .     S
C286   C299    1.397   .     A
C286   H318    1.084   .     S
C287   O347    1.282   .     A
C287   C292    1.420   .     S
C287   O344    1.282   .     A
C288   H319    1.084   .     S
C288   C297    1.397   .     A
C289   H320    1.084   .     S
C289   C297    1.397   .     A
C290   C299    1.397   .     A
C290   H321    1.084   .     S
C291   C298    1.420   .     S
C295   C303    1.420   .     S
C296   C302    1.420   .     S
C297   C301    1.420   .     S
C298   O345    1.282   .     A
C298   O346    1.282   .     A
C299   C300    1.420   .     S
C300   O348    1.282   .     A
C300   O336    1.282   .     A
C301   O334    1.282   .     A
C301   O335    1.282   .     A
C302   O340    1.282   .     A
C302   O337    1.282   .     A
C303   O338    1.282   .     A
C303   O339    1.282   .     A
C304   H305    1.082   .     S
C304   C972    1.416   1_554 S
C304   N330    1.366   .     S
N329   Zn349   2.008   .     S
N330   Zn350   2.008   .     S
N331   Zn351   2.008   .     S
N332   Zn352   2.008   .     S
O333   Zn349   2.000   .     S
O334   Zn352   2.000   .     S
O335   Zn351   2.000   .     S
O336   Zn176   2.000   1_565 S
O337   Zn176   2.000   1_565 S
O338   Zn351   2.000   .     S
O339   Zn352   2.000   .     S
O340   Zn175   2.000   1_565 S
O341   Zn262   2.000   1_655 S
O342   Zn261   2.000   1_655 S
O343   Zn350   2.000   .     S
O344   Zn262   2.000   1_655 S
O345   Zn349   2.000   .     S
O346   Zn350   2.000   .     S
O347   Zn261   2.000   1_655 S
O348   Zn175   2.000   1_565 S
C353   O421    1.282   .     A
C353   O431    1.282   .     A
C353   C382    1.420   .     S
C354   N417    1.366   .     A
C354   H404    1.082   .     S
C354   C707    1.416   .     S
C355   N418    1.366   .     A
C355   H410    1.082   .     S
C356   H411    1.082   .     S
C356   C744    1.416   .     S
C356   N417    1.366   .     S
C357   N420    1.366   .     A
C357   H412    1.082   .     S
C358   H413    1.082   .     S
C358   C711    1.416   .     S
C358   N595    1.366   .     S
C359   H414    1.082   .     S
C359   N596    1.366   .     S
C360   H415    1.082   .     S
C360   N419    1.366   .     A
C360   C709    1.416   .     S
C361   H416    1.084   .     S
C361   C372    1.370   .     A
C361   C380    1.397   .     A
C362   C379    1.397   .     A
C362   H394    1.084   .     S
C362   C373    1.370   .     A
C363   C370    1.370   .     A
C363   H395    1.084   .     S
C363   C379    1.397   .     A
C364   C381    1.420   .     S
C364   O430    1.282   .     A
C364   O429    1.282   .     A
C365   C380    1.397   .     A
C365   C371    1.370   .     A
C365   H396    1.084   .     S
C366   C382    1.397   .     A
C366   H397    1.084   .     S
C366   C377    1.370   .     A
C367   C381    1.397   .     A
C367   C378    1.370   .     A
C367   H398    1.084   .     S
C368   H399    1.084   .     S
C368   C381    1.397   .     A
C368   C374    1.370   .     A
C369   H400    1.084   .     S
C369   C382    1.397   .     A
C369   C376    1.370   .     A
C370   C384    1.397   .     A
C370   H401    1.084   .     S
C371   C383    1.397   .     A
C371   H402    1.084   .     S
C372   H403    1.084   .     S
C372   C383    1.397   .     A
C373   C384    1.397   .     A
C373   H405    1.084   .     S
C374   C387    1.397   .     A
C374   H406    1.084   .     S
C375   O435    1.282   .     A
C375   C380    1.420   .     S
C375   O432    1.282   .     A
C376   H407    1.084   .     S
C376   C385    1.397   .     A
C377   H408    1.084   .     S
C377   C385    1.397   .     A
C378   C387    1.397   .     A
C378   H409    1.084   .     S
C379   C386    1.420   .     S
C383   C391    1.420   .     S
C384   C390    1.420   .     S
C385   C389    1.420   .     S
C386   O433    1.282   .     A
C386   O434    1.282   .     A
C387   C388    1.420   .     S
C388   O436    1.282   .     A
C388   O424    1.282   .     A
C389   O422    1.282   .     A
C389   O423    1.282   .     A
C390   O428    1.282   .     A
C390   O425    1.282   .     A
C391   O426    1.282   .     A
C391   O427    1.282   .     A
C392   H393    1.082   .     S
C392   N418    1.366   .     S
N417   Zn437   2.008   .     S
N418   Zn438   2.008   .     S
N419   Zn439   2.008   .     S
N419   C534    1.366   1_545 S
N420   Zn440   2.008   .     S
N420   C535    1.366   1_545 S
O421   Zn437   2.000   .     S
O422   Zn440   2.000   .     S
O423   Zn439   2.000   .     S
O424   Zn616   2.000   .     S
O425   Zn616   2.000   .     S
O426   Zn439   2.000   .     S
O427   Zn440   2.000   .     S
O428   Zn615   2.000   .     S
O429   Zn526   2.000   .     S
O430   Zn525   2.000   .     S
O431   Zn438   2.000   .     S
O432   Zn526   2.000   .     S
O433   Zn437   2.000   .     S
O434   Zn438   2.000   .     S
O435   Zn525   2.000   .     S
O436   Zn615   2.000   .     S
Zn437  O518    2.000   1_455 S
Zn437  O523    2.000   1_455 S
Zn438  O520    2.000   1_455 S
Zn438  O517    2.000   1_455 S
Zn439  O604    2.000   1_545 S
Zn439  O612    2.000   1_545 S
Zn440  O601    2.000   1_545 S
Zn440  O600    2.000   1_545 S
C441   O509    1.282   .     A
C441   O519    1.282   .     A
C441   C470    1.420   .     S
C442   N505    1.366   .     A
C442   H492    1.082   .     S
C442   C795    1.416   .     S
C443   N506    1.366   .     A
C443   H498    1.082   .     S
C444   H499    1.082   .     S
C444   C832    1.416   .     S
C444   N505    1.366   .     S
C445   N508    1.366   .     A
C445   H500    1.082   .     S
C446   H501    1.082   .     S
C446   C799    1.416   .     S
C446   N683    1.366   .     S
C447   H502    1.082   .     S
C447   N684    1.366   .     S
C448   H503    1.082   .     S
C448   N507    1.366   .     A
C448   C797    1.416   .     S
C449   H504    1.084   .     S
C449   C460    1.370   .     A
C449   C468    1.397   .     A
C450   C467    1.397   .     A
C450   H482    1.084   .     S
C450   C461    1.370   .     A
C451   C458    1.370   .     A
C451   H483    1.084   .     S
C451   C467    1.397   .     A
C452   C469    1.420   .     S
C452   O518    1.282   .     A
C452   O517    1.282   .     A
C453   C468    1.397   .     A
C453   C459    1.370   .     A
C453   H484    1.084   .     S
C454   C470    1.397   .     A
C454   H485    1.084   .     S
C454   C465    1.370   .     A
C455   C469    1.397   .     A
C455   C466    1.370   .     A
C455   H486    1.084   .     S
C456   H487    1.084   .     S
C456   C469    1.397   .     A
C456   C462    1.370   .     A
C457   H488    1.084   .     S
C457   C470    1.397   .     A
C457   C464    1.370   .     A
C458   C472    1.397   .     A
C458   H489    1.084   .     S
C459   C471    1.397   .     A
C459   H490    1.084   .     S
C460   H491    1.084   .     S
C460   C471    1.397   .     A
C461   C472    1.397   .     A
C461   H493    1.084   .     S
C462   C475    1.397   .     A
C462   H494    1.084   .     S
C463   O523    1.282   .     A
C463   C468    1.420   .     S
C463   O520    1.282   .     A
C464   H495    1.084   .     S
C464   C473    1.397   .     A
C465   H496    1.084   .     S
C465   C473    1.397   .     A
C466   C475    1.397   .     A
C466   H497    1.084   .     S
C467   C474    1.420   .     S
C471   C479    1.420   .     S
C472   C478    1.420   .     S
C473   C477    1.420   .     S
C474   O521    1.282   .     A
C474   O522    1.282   .     A
C475   C476    1.420   .     S
C476   O524    1.282   .     A
C476   O512    1.282   .     A
C477   O510    1.282   .     A
C477   O511    1.282   .     A
C478   O516    1.282   .     A
C478   O513    1.282   .     A
C479   O514    1.282   .     A
C479   O515    1.282   .     A
C480   H481    1.082   .     S
C480   N506    1.366   .     S
N505   Zn525   2.008   .     S
N506   Zn526   2.008   .     S
N507   Zn527   2.008   .     S
N507   C622    1.366   1_545 S
N508   Zn528   2.008   .     S
N508   C623    1.366   1_545 S
O509   Zn525   2.000   .     S
O510   Zn528   2.000   .     S
O511   Zn527   2.000   .     S
O512   Zn704   2.000   .     S
O513   Zn704   2.000   .     S
O514   Zn527   2.000   .     S
O515   Zn528   2.000   .     S
O516   Zn703   2.000   .     S
O517   Zn438   2.000   1_655 S
O518   Zn437   2.000   1_655 S
O519   Zn526   2.000   .     S
O520   Zn438   2.000   1_655 S
O521   Zn525   2.000   .     S
O522   Zn526   2.000   .     S
O523   Zn437   2.000   1_655 S
O524   Zn703   2.000   .     S
Zn527  O692    2.000   1_545 S
Zn527  O700    2.000   1_545 S
Zn528  O689    2.000   1_545 S
Zn528  O688    2.000   1_545 S
C529   O597    1.282   .     A
C529   O607    1.282   .     A
C529   C558    1.420   .     S
C530   N593    1.366   .     A
C530   H580    1.082   .     S
C530   C883    1.416   .     S
C531   N594    1.366   .     A
C531   H586    1.082   .     S
C532   H587    1.082   .     S
C532   C920    1.416   .     S
C532   N593    1.366   .     S
C533   N596    1.366   .     A
C533   H588    1.082   .     S
C534   H589    1.082   .     S
C534   C887    1.416   .     S
C534   N419    1.366   1_565 S
C535   H590    1.082   .     S
C535   N420    1.366   1_565 S
C536   H591    1.082   .     S
C536   N595    1.366   .     A
C536   C885    1.416   .     S
C537   H592    1.084   .     S
C537   C548    1.370   .     A
C537   C556    1.397   .     A
C538   C555    1.397   .     A
C538   H570    1.084   .     S
C538   C549    1.370   .     A
C539   C546    1.370   .     A
C539   H571    1.084   .     S
C539   C555    1.397   .     A
C540   C557    1.420   .     S
C540   O606    1.282   .     A
C540   O605    1.282   .     A
C541   C556    1.397   .     A
C541   C547    1.370   .     A
C541   H572    1.084   .     S
C542   C558    1.397   .     A
C542   H573    1.084   .     S
C542   C553    1.370   .     A
C543   C557    1.397   .     A
C543   C554    1.370   .     A
C543   H574    1.084   .     S
C544   H575    1.084   .     S
C544   C557    1.397   .     A
C544   C550    1.370   .     A
C545   H576    1.084   .     S
C545   C558    1.397   .     A
C545   C552    1.370   .     A
C546   C560    1.397   .     A
C546   H577    1.084   .     S
C547   C559    1.397   .     A
C547   H578    1.084   .     S
C548   H579    1.084   .     S
C548   C559    1.397   .     A
C549   C560    1.397   .     A
C549   H581    1.084   .     S
C550   C563    1.397   .     A
C550   H582    1.084   .     S
C551   O611    1.282   .     A
C551   C556    1.420   .     S
C551   O608    1.282   .     A
C552   H583    1.084   .     S
C552   C561    1.397   .     A
C553   H584    1.084   .     S
C553   C561    1.397   .     A
C554   C563    1.397   .     A
C554   H585    1.084   .     S
C555   C562    1.420   .     S
C559   C567    1.420   .     S
C560   C566    1.420   .     S
C561   C565    1.420   .     S
C562   O609    1.282   .     A
C562   O610    1.282   .     A
C563   C564    1.420   .     S
C564   O612    1.282   .     A
C564   O600    1.282   .     A
C565   O598    1.282   .     A
C565   O599    1.282   .     A
C566   O604    1.282   .     A
C566   O601    1.282   .     A
C567   O602    1.282   .     A
C567   O603    1.282   .     A
C568   H569    1.082   .     S
C568   N594    1.366   .     S
N593   Zn613   2.008   .     S
N594   Zn614   2.008   .     S
N595   Zn615   2.008   .     S
N596   Zn616   2.008   .     S
O597   Zn613   2.000   .     S
O598   Zn616   2.000   .     S
O599   Zn615   2.000   .     S
O600   Zn440   2.000   1_565 S
O601   Zn440   2.000   1_565 S
O602   Zn615   2.000   .     S
O603   Zn616   2.000   .     S
O604   Zn439   2.000   1_565 S
O605   Zn702   2.000   .     S
O606   Zn701   2.000   .     S
O607   Zn614   2.000   .     S
O608   Zn702   2.000   .     S
O609   Zn613   2.000   .     S
O610   Zn614   2.000   .     S
O611   Zn701   2.000   .     S
O612   Zn439   2.000   1_565 S
Zn613  O694    2.000   1_455 S
Zn613  O699    2.000   1_455 S
Zn614  O696    2.000   1_455 S
Zn614  O693    2.000   1_455 S
C617   O685    1.282   .     A
C617   O695    1.282   .     A
C617   C646    1.420   .     S
C618   N681    1.366   .     A
C618   H668    1.082   .     S
C618   C971    1.416   .     S
C619   N682    1.366   .     A
C619   H674    1.082   .     S
C620   H675    1.082   .     S
C620   C1008   1.416   .     S
C620   N681    1.366   .     S
C621   N684    1.366   .     A
C621   H676    1.082   .     S
C622   H677    1.082   .     S
C622   C975    1.416   .     S
C622   N507    1.366   1_565 S
C623   H678    1.082   .     S
C623   N508    1.366   1_565 S
C624   H679    1.082   .     S
C624   N683    1.366   .     A
C624   C973    1.416   .     S
C625   H680    1.084   .     S
C625   C636    1.370   .     A
C625   C644    1.397   .     A
C626   C643    1.397   .     A
C626   H658    1.084   .     S
C626   C637    1.370   .     A
C627   C634    1.370   .     A
C627   H659    1.084   .     S
C627   C643    1.397   .     A
C628   C645    1.420   .     S
C628   O694    1.282   .     A
C628   O693    1.282   .     A
C629   C644    1.397   .     A
C629   C635    1.370   .     A
C629   H660    1.084   .     S
C630   C646    1.397   .     A
C630   H661    1.084   .     S
C630   C641    1.370   .     A
C631   C645    1.397   .     A
C631   C642    1.370   .     A
C631   H662    1.084   .     S
C632   H663    1.084   .     S
C632   C645    1.397   .     A
C632   C638    1.370   .     A
C633   H664    1.084   .     S
C633   C646    1.397   .     A
C633   C640    1.370   .     A
C634   C648    1.397   .     A
C634   H665    1.084   .     S
C635   C647    1.397   .     A
C635   H666    1.084   .     S
C636   H667    1.084   .     S
C636   C647    1.397   .     A
C637   C648    1.397   .     A
C637   H669    1.084   .     S
C638   C651    1.397   .     A
C638   H670    1.084   .     S
C639   O699    1.282   .     A
C639   C644    1.420   .     S
C639   O696    1.282   .     A
C640   H671    1.084   .     S
C640   C649    1.397   .     A
C641   H672    1.084   .     S
C641   C649    1.397   .     A
C642   C651    1.397   .     A
C642   H673    1.084   .     S
C643   C650    1.420   .     S
C647   C655    1.420   .     S
C648   C654    1.420   .     S
C649   C653    1.420   .     S
C650   O697    1.282   .     A
C650   O698    1.282   .     A
C651   C652    1.420   .     S
C652   O700    1.282   .     A
C652   O688    1.282   .     A
C653   O686    1.282   .     A
C653   O687    1.282   .     A
C654   O692    1.282   .     A
C654   O689    1.282   .     A
C655   O690    1.282   .     A
C655   O691    1.282   .     A
C656   H657    1.082   .     S
C656   N682    1.366   .     S
N681   Zn701   2.008   .     S
N682   Zn702   2.008   .     S
N683   Zn703   2.008   .     S
N684   Zn704   2.008   .     S
O685   Zn701   2.000   .     S
O686   Zn704   2.000   .     S
O687   Zn703   2.000   .     S
O688   Zn528   2.000   1_565 S
O689   Zn528   2.000   1_565 S
O690   Zn703   2.000   .     S
O691   Zn704   2.000   .     S
O692   Zn527   2.000   1_565 S
O693   Zn614   2.000   1_655 S
O694   Zn613   2.000   1_655 S
O695   Zn702   2.000   .     S
O696   Zn614   2.000   1_655 S
O697   Zn701   2.000   .     S
O698   Zn702   2.000   .     S
O699   Zn613   2.000   1_655 S
O700   Zn527   2.000   1_565 S
C705   O773    1.282   .     A
C705   O783    1.282   .     A
C705   C734    1.420   .     S
C706   N769    1.366   .     A
C706   H756    1.082   .     S
C706   C3      1.416   1_556 S
C707   N770    1.366   .     A
C707   H762    1.082   .     S
C708   H763    1.082   .     S
C708   C40     1.416   1_556 S
C708   N769    1.366   .     S
C709   N772    1.366   .     A
C709   H764    1.082   .     S
C710   H765    1.082   .     S
C710   C7      1.416   1_556 S
C710   N947    1.366   .     S
C711   H766    1.082   .     S
C711   N948    1.366   .     S
C712   H767    1.082   .     S
C712   N771    1.366   .     A
C712   C5      1.416   1_556 S
C713   H768    1.084   .     S
C713   C724    1.370   .     A
C713   C732    1.397   .     A
C714   C731    1.397   .     A
C714   H746    1.084   .     S
C714   C725    1.370   .     A
C715   C722    1.370   .     A
C715   H747    1.084   .     S
C715   C731    1.397   .     A
C716   C733    1.420   .     S
C716   O782    1.282   .     A
C716   O781    1.282   .     A
C717   C732    1.397   .     A
C717   C723    1.370   .     A
C717   H748    1.084   .     S
C718   C734    1.397   .     A
C718   H749    1.084   .     S
C718   C729    1.370   .     A
C719   C733    1.397   .     A
C719   C730    1.370   .     A
C719   H750    1.084   .     S
C720   H751    1.084   .     S
C720   C733    1.397   .     A
C720   C726    1.370   .     A
C721   H752    1.084   .     S
C721   C734    1.397   .     A
C721   C728    1.370   .     A
C722   C736    1.397   .     A
C722   H753    1.084   .     S
C723   C735    1.397   .     A
C723   H754    1.084   .     S
C724   H755    1.084   .     S
C724   C735    1.397   .     A
C725   C736    1.397   .     A
C725   H757    1.084   .     S
C726   C739    1.397   .     A
C726   H758    1.084   .     S
C727   O787    1.282   .     A
C727   C732    1.420   .     S
C727   O784    1.282   .     A
C728   H759    1.084   .     S
C728   C737    1.397   .     A
C729   H760    1.084   .     S
C729   C737    1.397   .     A
C730   C739    1.397   .     A
C730   H761    1.084   .     S
C731   C738    1.420   .     S
C735   C743    1.420   .     S
C736   C742    1.420   .     S
C737   C741    1.420   .     S
C738   O785    1.282   .     A
C738   O786    1.282   .     A
C739   C740    1.420   .     S
C740   O788    1.282   .     A
C740   O776    1.282   .     A
C741   O774    1.282   .     A
C741   O775    1.282   .     A
C742   O780    1.282   .     A
C742   O777    1.282   .     A
C743   O778    1.282   .     A
C743   O779    1.282   .     A
C744   H745    1.082   .     S
C744   N770    1.366   .     S
N769   Zn789   2.008   .     S
N770   Zn790   2.008   .     S
N771   Zn791   2.008   .     S
N771   C886    1.366   1_545 S
N772   Zn792   2.008   .     S
N772   C887    1.366   1_545 S
O773   Zn789   2.000   .     S
O774   Zn792   2.000   .     S
O775   Zn791   2.000   .     S
O776   Zn968   2.000   .     S
O777   Zn968   2.000   .     S
O778   Zn791   2.000   .     S
O779   Zn792   2.000   .     S
O780   Zn967   2.000   .     S
O781   Zn878   2.000   .     S
O782   Zn877   2.000   .     S
O783   Zn790   2.000   .     S
O784   Zn878   2.000   .     S
O785   Zn789   2.000   .     S
O786   Zn790   2.000   .     S
O787   Zn877   2.000   .     S
O788   Zn967   2.000   .     S
Zn789  O870    2.000   1_455 S
Zn789  O875    2.000   1_455 S
Zn790  O872    2.000   1_455 S
Zn790  O869    2.000   1_455 S
Zn791  O956    2.000   1_545 S
Zn791  O964    2.000   1_545 S
Zn792  O953    2.000   1_545 S
Zn792  O952    2.000   1_545 S
C793   O861    1.282   .     A
C793   O871    1.282   .     A
C793   C822    1.420   .     S
C794   N857    1.366   .     A
C794   H844    1.082   .     S
C794   C91     1.416   1_556 S
C795   N858    1.366   .     A
C795   H850    1.082   .     S
C796   H851    1.082   .     S
C796   C128    1.416   1_556 S
C796   N857    1.366   .     S
C797   N860    1.366   .     A
C797   H852    1.082   .     S
C798   H853    1.082   .     S
C798   C95     1.416   1_556 S
C798   N1035   1.366   .     S
C799   H854    1.082   .     S
C799   N1036   1.366   .     S
C800   H855    1.082   .     S
C800   N859    1.366   .     A
C800   C93     1.416   1_556 S
C801   H856    1.084   .     S
C801   C812    1.370   .     A
C801   C820    1.397   .     A
C802   C819    1.397   .     A
C802   H834    1.084   .     S
C802   C813    1.370   .     A
C803   C810    1.370   .     A
C803   H835    1.084   .     S
C803   C819    1.397   .     A
C804   C821    1.420   .     S
C804   O870    1.282   .     A
C804   O869    1.282   .     A
C805   C820    1.397   .     A
C805   C811    1.370   .     A
C805   H836    1.084   .     S
C806   C822    1.397   .     A
C806   H837    1.084   .     S
C806   C817    1.370   .     A
C807   C821    1.397   .     A
C807   C818    1.370   .     A
C807   H838    1.084   .     S
C808   H839    1.084   .     S
C808   C821    1.397   .     A
C808   C814    1.370   .     A
C809   H840    1.084   .     S
C809   C822    1.397   .     A
C809   C816    1.370   .     A
C810   C824    1.397   .     A
C810   H841    1.084   .     S
C811   C823    1.397   .     A
C811   H842    1.084   .     S
C812   H843    1.084   .     S
C812   C823    1.397   .     A
C813   C824    1.397   .     A
C813   H845    1.084   .     S
C814   C827    1.397   .     A
C814   H846    1.084   .     S
C815   O875    1.282   .     A
C815   C820    1.420   .     S
C815   O872    1.282   .     A
C816   H847    1.084   .     S
C816   C825    1.397   .     A
C817   H848    1.084   .     S
C817   C825    1.397   .     A
C818   C827    1.397   .     A
C818   H849    1.084   .     S
C819   C826    1.420   .     S
C823   C831    1.420   .     S
C824   C830    1.420   .     S
C825   C829    1.420   .     S
C826   O873    1.282   .     A
C826   O874    1.282   .     A
C827   C828    1.420   .     S
C828   O876    1.282   .     A
C828   O864    1.282   .     A
C829   O862    1.282   .     A
C829   O863    1.282   .     A
C830   O868    1.282   .     A
C830   O865    1.282   .     A
C831   O866    1.282   .     A
C831   O867    1.282   .     A
C832   H833    1.082   .     S
C832   N858    1.366   .     S
N857   Zn877   2.008   .     S
N858   Zn878   2.008   .     S
N859   Zn879   2.008   .     S
N859   C974    1.366   1_545 S
N860   Zn880   2.008   .     S
N860   C975    1.366   1_545 S
O861   Zn877   2.000   .     S
O862   Zn880   2.000   .     S
O863   Zn879   2.000   .     S
O864   Zn1056  2.000   .     S
O865   Zn1056  2.000   .     S
O866   Zn879   2.000   .     S
O867   Zn880   2.000   .     S
O868   Zn1055  2.000   .     S
O869   Zn790   2.000   1_655 S
O870   Zn789   2.000   1_655 S
O871   Zn878   2.000   .     S
O872   Zn790   2.000   1_655 S
O873   Zn877   2.000   .     S
O874   Zn878   2.000   .     S
O875   Zn789   2.000   1_655 S
O876   Zn1055  2.000   .     S
Zn879  O1044   2.000   1_545 S
Zn879  O1052   2.000   1_545 S
Zn880  O1041   2.000   1_545 S
Zn880  O1040   2.000   1_545 S
C881   O949    1.282   .     A
C881   O959    1.282   .     A
C881   C910    1.420   .     S
C882   N945    1.366   .     A
C882   H932    1.082   .     S
C882   C179    1.416   1_556 S
C883   N946    1.366   .     A
C883   H938    1.082   .     S
C884   H939    1.082   .     S
C884   C216    1.416   1_556 S
C884   N945    1.366   .     S
C885   N948    1.366   .     A
C885   H940    1.082   .     S
C886   H941    1.082   .     S
C886   C183    1.416   1_556 S
C886   N771    1.366   1_565 S
C887   H942    1.082   .     S
C887   N772    1.366   1_565 S
C888   H943    1.082   .     S
C888   N947    1.366   .     A
C888   C181    1.416   1_556 S
C889   H944    1.084   .     S
C889   C900    1.370   .     A
C889   C908    1.397   .     A
C890   C907    1.397   .     A
C890   H922    1.084   .     S
C890   C901    1.370   .     A
C891   C898    1.370   .     A
C891   H923    1.084   .     S
C891   C907    1.397   .     A
C892   C909    1.420   .     S
C892   O958    1.282   .     A
C892   O957    1.282   .     A
C893   C908    1.397   .     A
C893   C899    1.370   .     A
C893   H924    1.084   .     S
C894   C910    1.397   .     A
C894   H925    1.084   .     S
C894   C905    1.370   .     A
C895   C909    1.397   .     A
C895   C906    1.370   .     A
C895   H926    1.084   .     S
C896   H927    1.084   .     S
C896   C909    1.397   .     A
C896   C902    1.370   .     A
C897   H928    1.084   .     S
C897   C910    1.397   .     A
C897   C904    1.370   .     A
C898   C912    1.397   .     A
C898   H929    1.084   .     S
C899   C911    1.397   .     A
C899   H930    1.084   .     S
C900   H931    1.084   .     S
C900   C911    1.397   .     A
C901   C912    1.397   .     A
C901   H933    1.084   .     S
C902   C915    1.397   .     A
C902   H934    1.084   .     S
C903   O963    1.282   .     A
C903   C908    1.420   .     S
C903   O960    1.282   .     A
C904   H935    1.084   .     S
C904   C913    1.397   .     A
C905   H936    1.084   .     S
C905   C913    1.397   .     A
C906   C915    1.397   .     A
C906   H937    1.084   .     S
C907   C914    1.420   .     S
C911   C919    1.420   .     S
C912   C918    1.420   .     S
C913   C917    1.420   .     S
C914   O961    1.282   .     A
C914   O962    1.282   .     A
C915   C916    1.420   .     S
C916   O964    1.282   .     A
C916   O952    1.282   .     A
C917   O950    1.282   .     A
C917   O951    1.282   .     A
C918   O956    1.282   .     A
C918   O953    1.282   .     A
C919   O954    1.282   .     A
C919   O955    1.282   .     A
C920   H921    1.082   .     S
C920   N946    1.366   .     S
N945   Zn965   2.008   .     S
N946   Zn966   2.008   .     S
N947   Zn967   2.008   .     S
N948   Zn968   2.008   .     S
O949   Zn965   2.000   .     S
O950   Zn968   2.000   .     S
O951   Zn967   2.000   .     S
O952   Zn792   2.000   1_565 S
O953   Zn792   2.000   1_565 S
O954   Zn967   2.000   .     S
O955   Zn968   2.000   .     S
O956   Zn791   2.000   1_565 S
O957   Zn1054  2.000   .     S
O958   Zn1053  2.000   .     S
O959   Zn966   2.000   .     S
O960   Zn1054  2.000   .     S
O961   Zn965   2.000   .     S
O962   Zn966   2.000   .     S
O963   Zn1053  2.000   .     S
O964   Zn791   2.000   1_565 S
Zn965  O1046   2.000   1_455 S
Zn965  O1051   2.000   1_455 S
Zn966  O1048   2.000   1_455 S
Zn966  O1045   2.000   1_455 S
C969   O1037   1.282   .     A
C969   O1047   1.282   .     A
C969   C998    1.420   .     S
C970   N1033   1.366   .     A
C970   H1020   1.082   .     S
C970   C267    1.416   1_556 S
C971   N1034   1.366   .     A
C971   H1026   1.082   .     S
C972   H1027   1.082   .     S
C972   C304    1.416   1_556 S
C972   N1033   1.366   .     S
C973   N1036   1.366   .     A
C973   H1028   1.082   .     S
C974   H1029   1.082   .     S
C974   C271    1.416   1_556 S
C974   N859    1.366   1_565 S
C975   H1030   1.082   .     S
C975   N860    1.366   1_565 S
C976   H1031   1.082   .     S
C976   N1035   1.366   .     A
C976   C269    1.416   1_556 S
C977   H1032   1.084   .     S
C977   C988    1.370   .     A
C977   C996    1.397   .     A
C978   C995    1.397   .     A
C978   H1010   1.084   .     S
C978   C989    1.370   .     A
C979   C986    1.370   .     A
C979   H1011   1.084   .     S
C979   C995    1.397   .     A
C980   C997    1.420   .     S
C980   O1046   1.282   .     A
C980   O1045   1.282   .     A
C981   C996    1.397   .     A
C981   C987    1.370   .     A
C981   H1012   1.084   .     S
C982   C998    1.397   .     A
C982   H1013   1.084   .     S
C982   C993    1.370   .     A
C983   C997    1.397   .     A
C983   C994    1.370   .     A
C983   H1014   1.084   .     S
C984   H1015   1.084   .     S
C984   C997    1.397   .     A
C984   C990    1.370   .     A
C985   H1016   1.084   .     S
C985   C998    1.397   .     A
C985   C992    1.370   .     A
C986   C1000   1.397   .     A
C986   H1017   1.084   .     S
C987   C999    1.397   .     A
C987   H1018   1.084   .     S
C988   H1019   1.084   .     S
C988   C999    1.397   .     A
C989   C1000   1.397   .     A
C989   H1021   1.084   .     S
C990   C1003   1.397   .     A
C990   H1022   1.084   .     S
C991   O1051   1.282   .     A
C991   C996    1.420   .     S
C991   O1048   1.282   .     A
C992   H1023   1.084   .     S
C992   C1001   1.397   .     A
C993   H1024   1.084   .     S
C993   C1001   1.397   .     A
C994   C1003   1.397   .     A
C994   H1025   1.084   .     S
C995   C1002   1.420   .     S
C999   C1007   1.420   .     S
C1000  C1006   1.420   .     S
C1001  C1005   1.420   .     S
C1002  O1049   1.282   .     A
C1002  O1050   1.282   .     A
C1003  C1004   1.420   .     S
C1004  O1052   1.282   .     A
C1004  O1040   1.282   .     A
C1005  O1038   1.282   .     A
C1005  O1039   1.282   .     A
C1006  O1044   1.282   .     A
C1006  O1041   1.282   .     A
C1007  O1042   1.282   .     A
C1007  O1043   1.282   .     A
C1008  H1009   1.082   .     S
C1008  N1034   1.366   .     S
N1033  Zn1053  2.008   .     S
N1034  Zn1054  2.008   .     S
N1035  Zn1055  2.008   .     S
N1036  Zn1056  2.008   .     S
O1037  Zn1053  2.000   .     S
O1038  Zn1056  2.000   .     S
O1039  Zn1055  2.000   .     S
O1040  Zn880   2.000   1_565 S
O1041  Zn880   2.000   1_565 S
O1042  Zn1055  2.000   .     S
O1043  Zn1056  2.000   .     S
O1044  Zn879   2.000   1_565 S
O1045  Zn966   2.000   1_655 S
O1046  Zn965   2.000   1_655 S
O1047  Zn1054  2.000   .     S
O1048  Zn966   2.000   1_655 S
O1049  Zn1053  2.000   .     S
O1050  Zn1054  2.000   .     S
O1051  Zn965   2.000   1_655 S
O1052  Zn879   2.000   1_565 S
