data_str_m2_o1_o5_pcu_sym.22
_audit_creation_date              2020-01-03
_audit_creation_method            'Materials Studio'
_symmetry_space_group_name_H-M    'P1'
_symmetry_Int_Tables_number       1
_symmetry_cell_setting            triclinic
loop_
_symmetry_equiv_pos_as_xyz
  x,y,z
_cell_length_a                    32.8801
_cell_length_b                    28.7522
_cell_length_c                    27.2148
_cell_angle_alpha                 90.1867
_cell_angle_beta                  91.9612
_cell_angle_gamma                 91.0461
loop_
_atom_site_label
_atom_site_type_symbol
_atom_site_fract_x
_atom_site_fract_y
_atom_site_fract_z
_atom_site_U_iso_or_equiv
_atom_site_adp_type
_atom_site_occupancy
C1     C     0.08753   0.16622   0.16935   0.00000  Uiso   1.00
C2     C     0.02215   0.20756   0.17930   0.00000  Uiso   1.00
C3     C     0.29060   0.16782   0.16153   0.00000  Uiso   1.00
C4     C     0.04273   0.16551   0.17180   0.00000  Uiso   1.00
C5     C     0.14285   0.02418   0.13336   0.00000  Uiso   1.00
C6     C     0.19049   0.30915   0.19997   0.00000  Uiso   1.00
C7     C     0.19090   0.02540   0.19954   0.00000  Uiso   1.00
C8     C     0.14244   0.30793   0.13379   0.00000  Uiso   1.00
C9     C     0.03787   0.07837   0.16625   0.00000  Uiso   1.00
C10    C     0.29547   0.25496   0.16708   0.00000  Uiso   1.00
C11    C     0.29013   0.08479   0.13355   0.00000  Uiso   1.00
C12    C     0.24580   0.16711   0.16398   0.00000  Uiso   1.00
C13    C     0.04320   0.24855   0.19978   0.00000  Uiso   1.00
C14    C     0.11804   0.04808   0.09699   0.00000  Uiso   1.00
C15    C     0.21529   0.28525   0.23634   0.00000  Uiso   1.00
C16    C     0.21787   0.05065   0.23356   0.00000  Uiso   1.00
C17    C     0.11546   0.28268   0.09978   0.00000  Uiso   1.00
C18    C     0.16660   0.16662   0.07360   0.00000  Uiso   1.00
C19    C     0.16674   0.16671   0.25974   0.00000  Uiso   1.00
C20    C     0.16664   0.16660   0.02186   0.00000  Uiso   1.00
C21    C     0.16669   0.16673   0.31147   0.00000  Uiso   1.00
C22    C     0.01987   0.12397   0.16264   0.00000  Uiso   1.00
C23    C     0.31346   0.20936   0.17069   0.00000  Uiso   1.00
C24    C     0.31119   0.12578   0.15403   0.00000  Uiso   1.00
Cu25   Cu    0.16667   0.21355   0.16667   0.00000  Uiso   1.00
Cu26   Cu    0.16667   0.11978   0.16667   0.00000  Uiso   1.00
N27    N     0.16667   0.28402   0.16667   0.00000  Uiso   1.00
N28    N     0.09364   0.26283   0.07243   0.00000  Uiso   1.00
N29    N     0.16667   0.04931   0.16667   0.00000  Uiso   1.00
N30    N     0.05144   0.04167   0.16978   0.00000  Uiso   1.00
N31    N     0.28189   0.29167   0.16356   0.00000  Uiso   1.00
N32    N     0.27340   0.05236   0.11687   0.00000  Uiso   1.00
N33    N     0.05993   0.28097   0.21646   0.00000  Uiso   1.00
N34    N     0.09800   0.06678   0.06765   0.00000  Uiso   1.00
N35    N     0.23534   0.26656   0.26569   0.00000  Uiso   1.00
N36    N     0.23970   0.07050   0.26091   0.00000  Uiso   1.00
O37    O     0.10655   0.20625   0.16666   0.00000  Uiso   1.00
O38    O     0.22679   0.12709   0.16667   0.00000  Uiso   1.00
O39    O     0.22679   0.20625   0.16667   0.00000  Uiso   1.00
O40    O     0.10655   0.12709   0.16666   0.00000  Uiso   1.00
O41    O     0.16667   0.20625   0.09613   0.00000  Uiso   1.00
O42    O     0.16667   0.12708   0.23720   0.00000  Uiso   1.00
O43    O     0.16667   0.20625   0.23720   0.00000  Uiso   1.00
O44    O     0.16667   0.12708   0.09613   0.00000  Uiso   1.00
C45    C     0.42086   0.16622   0.16935   0.00000  Uiso   1.00
C46    C     0.35548   0.20756   0.17930   0.00000  Uiso   1.00
C47    C     0.62393   0.16782   0.16153   0.00000  Uiso   1.00
C48    C     0.37607   0.16551   0.17180   0.00000  Uiso   1.00
C49    C     0.47618   0.02418   0.13336   0.00000  Uiso   1.00
C50    C     0.52382   0.30915   0.19997   0.00000  Uiso   1.00
C51    C     0.52423   0.02540   0.19954   0.00000  Uiso   1.00
C52    C     0.47577   0.30793   0.13379   0.00000  Uiso   1.00
C53    C     0.37120   0.07837   0.16625   0.00000  Uiso   1.00
C54    C     0.62880   0.25496   0.16708   0.00000  Uiso   1.00
C55    C     0.62347   0.08479   0.13355   0.00000  Uiso   1.00
C56    C     0.57914   0.16711   0.16398   0.00000  Uiso   1.00
C57    C     0.37653   0.24855   0.19978   0.00000  Uiso   1.00
C58    C     0.45138   0.04808   0.09699   0.00000  Uiso   1.00
C59    C     0.54862   0.28525   0.23634   0.00000  Uiso   1.00
C60    C     0.55121   0.05065   0.23356   0.00000  Uiso   1.00
C61    C     0.44879   0.28268   0.09978   0.00000  Uiso   1.00
C62    C     0.49993   0.16662   0.07360   0.00000  Uiso   1.00
C63    C     0.50007   0.16671   0.25974   0.00000  Uiso   1.00
C64    C     0.49998   0.16660   0.02186   0.00000  Uiso   1.00
C65    C     0.50002   0.16673   0.31147   0.00000  Uiso   1.00
C66    C     0.35321   0.12397   0.16264   0.00000  Uiso   1.00
C67    C     0.64679   0.20936   0.17069   0.00000  Uiso   1.00
C68    C     0.64452   0.12578   0.15403   0.00000  Uiso   1.00
Cu69   Cu    0.50000   0.21355   0.16667   0.00000  Uiso   1.00
Cu70   Cu    0.50000   0.11978   0.16667   0.00000  Uiso   1.00
N71    N     0.50000   0.28402   0.16667   0.00000  Uiso   1.00
N72    N     0.42697   0.26283   0.07243   0.00000  Uiso   1.00
N73    N     0.50000   0.04931   0.16667   0.00000  Uiso   1.00
N74    N     0.38477   0.04167   0.16978   0.00000  Uiso   1.00
N75    N     0.61523   0.29167   0.16356   0.00000  Uiso   1.00
N76    N     0.60674   0.05236   0.11687   0.00000  Uiso   1.00
N77    N     0.39326   0.28097   0.21646   0.00000  Uiso   1.00
N78    N     0.43133   0.06678   0.06765   0.00000  Uiso   1.00
N79    N     0.56867   0.26656   0.26569   0.00000  Uiso   1.00
N80    N     0.57303   0.07050   0.26091   0.00000  Uiso   1.00
O81    O     0.43988   0.20625   0.16666   0.00000  Uiso   1.00
O82    O     0.56012   0.12709   0.16667   0.00000  Uiso   1.00
O83    O     0.56012   0.20625   0.16667   0.00000  Uiso   1.00
O84    O     0.43988   0.12709   0.16666   0.00000  Uiso   1.00
O85    O     0.50000   0.20625   0.09613   0.00000  Uiso   1.00
O86    O     0.50000   0.12708   0.23720   0.00000  Uiso   1.00
O87    O     0.50000   0.20625   0.23720   0.00000  Uiso   1.00
O88    O     0.50000   0.12708   0.09613   0.00000  Uiso   1.00
C89    C     0.75420   0.16622   0.16935   0.00000  Uiso   1.00
C90    C     0.68881   0.20756   0.17930   0.00000  Uiso   1.00
C91    C     0.95727   0.16782   0.16153   0.00000  Uiso   1.00
C92    C     0.70940   0.16551   0.17180   0.00000  Uiso   1.00
C93    C     0.80951   0.02418   0.13336   0.00000  Uiso   1.00
C94    C     0.85715   0.30915   0.19997   0.00000  Uiso   1.00
C95    C     0.85756   0.02540   0.19954   0.00000  Uiso   1.00
C96    C     0.80911   0.30793   0.13379   0.00000  Uiso   1.00
C97    C     0.70453   0.07837   0.16625   0.00000  Uiso   1.00
C98    C     0.96213   0.25496   0.16708   0.00000  Uiso   1.00
C99    C     0.95680   0.08479   0.13355   0.00000  Uiso   1.00
C100   C     0.91247   0.16711   0.16398   0.00000  Uiso   1.00
C101   C     0.70987   0.24855   0.19978   0.00000  Uiso   1.00
C102   C     0.78471   0.04808   0.09699   0.00000  Uiso   1.00
C103   C     0.88196   0.28525   0.23634   0.00000  Uiso   1.00
C104   C     0.88454   0.05065   0.23356   0.00000  Uiso   1.00
C105   C     0.78213   0.28268   0.09978   0.00000  Uiso   1.00
C106   C     0.83327   0.16662   0.07360   0.00000  Uiso   1.00
C107   C     0.83340   0.16671   0.25974   0.00000  Uiso   1.00
C108   C     0.83331   0.16660   0.02186   0.00000  Uiso   1.00
C109   C     0.83336   0.16673   0.31147   0.00000  Uiso   1.00
C110   C     0.68654   0.12397   0.16264   0.00000  Uiso   1.00
C111   C     0.98013   0.20936   0.17069   0.00000  Uiso   1.00
C112   C     0.97785   0.12578   0.15403   0.00000  Uiso   1.00
Cu113  Cu    0.83333   0.21355   0.16667   0.00000  Uiso   1.00
Cu114  Cu    0.83333   0.11978   0.16667   0.00000  Uiso   1.00
N115   N     0.83333   0.28402   0.16667   0.00000  Uiso   1.00
N116   N     0.76031   0.26283   0.07243   0.00000  Uiso   1.00
N117   N     0.83333   0.04931   0.16667   0.00000  Uiso   1.00
N118   N     0.71811   0.04167   0.16978   0.00000  Uiso   1.00
N119   N     0.94856   0.29167   0.16356   0.00000  Uiso   1.00
N120   N     0.94007   0.05236   0.11687   0.00000  Uiso   1.00
N121   N     0.72660   0.28097   0.21646   0.00000  Uiso   1.00
N122   N     0.76466   0.06678   0.06765   0.00000  Uiso   1.00
N123   N     0.90200   0.26656   0.26569   0.00000  Uiso   1.00
N124   N     0.90636   0.07050   0.26091   0.00000  Uiso   1.00
O125   O     0.77321   0.20625   0.16666   0.00000  Uiso   1.00
O126   O     0.89345   0.12709   0.16667   0.00000  Uiso   1.00
O127   O     0.89345   0.20625   0.16667   0.00000  Uiso   1.00
O128   O     0.77321   0.12709   0.16666   0.00000  Uiso   1.00
O129   O     0.83333   0.20625   0.09613   0.00000  Uiso   1.00
O130   O     0.83333   0.12708   0.23720   0.00000  Uiso   1.00
O131   O     0.83333   0.20625   0.23720   0.00000  Uiso   1.00
O132   O     0.83333   0.12708   0.09613   0.00000  Uiso   1.00
C133   C     0.08753   0.49956   0.16935   0.00000  Uiso   1.00
C134   C     0.02215   0.54089   0.17930   0.00000  Uiso   1.00
C135   C     0.29060   0.50116   0.16153   0.00000  Uiso   1.00
C136   C     0.04273   0.49884   0.17180   0.00000  Uiso   1.00
C137   C     0.14285   0.35751   0.13336   0.00000  Uiso   1.00
C138   C     0.19049   0.64249   0.19997   0.00000  Uiso   1.00
C139   C     0.19090   0.35874   0.19954   0.00000  Uiso   1.00
C140   C     0.14244   0.64126   0.13379   0.00000  Uiso   1.00
C141   C     0.03787   0.41171   0.16625   0.00000  Uiso   1.00
C142   C     0.29547   0.58829   0.16708   0.00000  Uiso   1.00
C143   C     0.29013   0.41812   0.13355   0.00000  Uiso   1.00
C144   C     0.24580   0.50044   0.16398   0.00000  Uiso   1.00
C145   C     0.04320   0.58188   0.19978   0.00000  Uiso   1.00
C146   C     0.11804   0.38142   0.09699   0.00000  Uiso   1.00
C147   C     0.21529   0.61858   0.23634   0.00000  Uiso   1.00
C148   C     0.21787   0.38398   0.23356   0.00000  Uiso   1.00
C149   C     0.11546   0.61602   0.09978   0.00000  Uiso   1.00
C150   C     0.16660   0.49995   0.07360   0.00000  Uiso   1.00
C151   C     0.16674   0.50005   0.25974   0.00000  Uiso   1.00
C152   C     0.16664   0.49994   0.02186   0.00000  Uiso   1.00
C153   C     0.16669   0.50006   0.31147   0.00000  Uiso   1.00
C154   C     0.01987   0.45731   0.16264   0.00000  Uiso   1.00
C155   C     0.31346   0.54269   0.17069   0.00000  Uiso   1.00
C156   C     0.31119   0.45911   0.15403   0.00000  Uiso   1.00
Cu157  Cu    0.16667   0.54689   0.16667   0.00000  Uiso   1.00
Cu158  Cu    0.16667   0.45311   0.16667   0.00000  Uiso   1.00
N159   N     0.16667   0.61736   0.16667   0.00000  Uiso   1.00
N160   N     0.09364   0.59616   0.07243   0.00000  Uiso   1.00
N161   N     0.16667   0.38264   0.16667   0.00000  Uiso   1.00
N162   N     0.05144   0.37500   0.16978   0.00000  Uiso   1.00
N163   N     0.28189   0.62500   0.16356   0.00000  Uiso   1.00
N164   N     0.27340   0.38569   0.11687   0.00000  Uiso   1.00
N165   N     0.05993   0.61431   0.21646   0.00000  Uiso   1.00
N166   N     0.09800   0.40011   0.06765   0.00000  Uiso   1.00
N167   N     0.23534   0.59989   0.26569   0.00000  Uiso   1.00
N168   N     0.23970   0.40384   0.26091   0.00000  Uiso   1.00
O169   O     0.10655   0.53958   0.16666   0.00000  Uiso   1.00
O170   O     0.22679   0.46042   0.16667   0.00000  Uiso   1.00
O171   O     0.22679   0.53958   0.16667   0.00000  Uiso   1.00
O172   O     0.10655   0.46042   0.16666   0.00000  Uiso   1.00
O173   O     0.16667   0.53959   0.09613   0.00000  Uiso   1.00
O174   O     0.16667   0.46041   0.23720   0.00000  Uiso   1.00
O175   O     0.16667   0.53959   0.23720   0.00000  Uiso   1.00
O176   O     0.16667   0.46041   0.09613   0.00000  Uiso   1.00
C177   C     0.42086   0.49956   0.16935   0.00000  Uiso   1.00
C178   C     0.35548   0.54089   0.17930   0.00000  Uiso   1.00
C179   C     0.62393   0.50116   0.16153   0.00000  Uiso   1.00
C180   C     0.37607   0.49884   0.17180   0.00000  Uiso   1.00
C181   C     0.47618   0.35751   0.13336   0.00000  Uiso   1.00
C182   C     0.52382   0.64249   0.19997   0.00000  Uiso   1.00
C183   C     0.52423   0.35874   0.19954   0.00000  Uiso   1.00
C184   C     0.47577   0.64126   0.13379   0.00000  Uiso   1.00
C185   C     0.37120   0.41171   0.16625   0.00000  Uiso   1.00
C186   C     0.62880   0.58829   0.16708   0.00000  Uiso   1.00
C187   C     0.62347   0.41812   0.13355   0.00000  Uiso   1.00
C188   C     0.57914   0.50044   0.16398   0.00000  Uiso   1.00
C189   C     0.37653   0.58188   0.19978   0.00000  Uiso   1.00
C190   C     0.45138   0.38142   0.09699   0.00000  Uiso   1.00
C191   C     0.54862   0.61858   0.23634   0.00000  Uiso   1.00
C192   C     0.55121   0.38398   0.23356   0.00000  Uiso   1.00
C193   C     0.44879   0.61602   0.09978   0.00000  Uiso   1.00
C194   C     0.49993   0.49995   0.07360   0.00000  Uiso   1.00
C195   C     0.50007   0.50005   0.25974   0.00000  Uiso   1.00
C196   C     0.49998   0.49994   0.02186   0.00000  Uiso   1.00
C197   C     0.50002   0.50006   0.31147   0.00000  Uiso   1.00
C198   C     0.35321   0.45731   0.16264   0.00000  Uiso   1.00
C199   C     0.64679   0.54269   0.17069   0.00000  Uiso   1.00
C200   C     0.64452   0.45911   0.15403   0.00000  Uiso   1.00
Cu201  Cu    0.50000   0.54689   0.16667   0.00000  Uiso   1.00
Cu202  Cu    0.50000   0.45311   0.16667   0.00000  Uiso   1.00
N203   N     0.50000   0.61736   0.16667   0.00000  Uiso   1.00
N204   N     0.42697   0.59616   0.07243   0.00000  Uiso   1.00
N205   N     0.50000   0.38264   0.16667   0.00000  Uiso   1.00
N206   N     0.38477   0.37500   0.16978   0.00000  Uiso   1.00
N207   N     0.61523   0.62500   0.16356   0.00000  Uiso   1.00
N208   N     0.60674   0.38569   0.11687   0.00000  Uiso   1.00
N209   N     0.39326   0.61431   0.21646   0.00000  Uiso   1.00
N210   N     0.43133   0.40011   0.06765   0.00000  Uiso   1.00
N211   N     0.56867   0.59989   0.26569   0.00000  Uiso   1.00
N212   N     0.57303   0.40384   0.26091   0.00000  Uiso   1.00
O213   O     0.43988   0.53958   0.16666   0.00000  Uiso   1.00
O214   O     0.56012   0.46042   0.16667   0.00000  Uiso   1.00
O215   O     0.56012   0.53958   0.16667   0.00000  Uiso   1.00
O216   O     0.43988   0.46042   0.16666   0.00000  Uiso   1.00
O217   O     0.50000   0.53959   0.09613   0.00000  Uiso   1.00
O218   O     0.50000   0.46041   0.23720   0.00000  Uiso   1.00
O219   O     0.50000   0.53959   0.23720   0.00000  Uiso   1.00
O220   O     0.50000   0.46041   0.09613   0.00000  Uiso   1.00
C221   C     0.75420   0.49956   0.16935   0.00000  Uiso   1.00
C222   C     0.68881   0.54089   0.17930   0.00000  Uiso   1.00
C223   C     0.95727   0.50116   0.16153   0.00000  Uiso   1.00
C224   C     0.70940   0.49884   0.17180   0.00000  Uiso   1.00
C225   C     0.80951   0.35751   0.13336   0.00000  Uiso   1.00
C226   C     0.85715   0.64249   0.19997   0.00000  Uiso   1.00
C227   C     0.85756   0.35874   0.19954   0.00000  Uiso   1.00
C228   C     0.80911   0.64126   0.13379   0.00000  Uiso   1.00
C229   C     0.70453   0.41171   0.16625   0.00000  Uiso   1.00
C230   C     0.96213   0.58829   0.16708   0.00000  Uiso   1.00
C231   C     0.95680   0.41812   0.13355   0.00000  Uiso   1.00
C232   C     0.91247   0.50044   0.16398   0.00000  Uiso   1.00
C233   C     0.70987   0.58188   0.19978   0.00000  Uiso   1.00
C234   C     0.78471   0.38142   0.09699   0.00000  Uiso   1.00
C235   C     0.88196   0.61858   0.23634   0.00000  Uiso   1.00
C236   C     0.88454   0.38398   0.23356   0.00000  Uiso   1.00
C237   C     0.78213   0.61602   0.09978   0.00000  Uiso   1.00
C238   C     0.83327   0.49995   0.07360   0.00000  Uiso   1.00
C239   C     0.83340   0.50005   0.25974   0.00000  Uiso   1.00
C240   C     0.83331   0.49994   0.02186   0.00000  Uiso   1.00
C241   C     0.83336   0.50006   0.31147   0.00000  Uiso   1.00
C242   C     0.68654   0.45731   0.16264   0.00000  Uiso   1.00
C243   C     0.98013   0.54269   0.17069   0.00000  Uiso   1.00
C244   C     0.97785   0.45911   0.15403   0.00000  Uiso   1.00
Cu245  Cu    0.83333   0.54689   0.16667   0.00000  Uiso   1.00
Cu246  Cu    0.83333   0.45311   0.16667   0.00000  Uiso   1.00
N247   N     0.83333   0.61736   0.16667   0.00000  Uiso   1.00
N248   N     0.76031   0.59616   0.07243   0.00000  Uiso   1.00
N249   N     0.83333   0.38264   0.16667   0.00000  Uiso   1.00
N250   N     0.71811   0.37500   0.16978   0.00000  Uiso   1.00
N251   N     0.94856   0.62500   0.16356   0.00000  Uiso   1.00
N252   N     0.94007   0.38569   0.11687   0.00000  Uiso   1.00
N253   N     0.72660   0.61431   0.21646   0.00000  Uiso   1.00
N254   N     0.76466   0.40011   0.06765   0.00000  Uiso   1.00
N255   N     0.90200   0.59989   0.26569   0.00000  Uiso   1.00
N256   N     0.90636   0.40384   0.26091   0.00000  Uiso   1.00
O257   O     0.77321   0.53958   0.16666   0.00000  Uiso   1.00
O258   O     0.89345   0.46042   0.16667   0.00000  Uiso   1.00
O259   O     0.89345   0.53958   0.16667   0.00000  Uiso   1.00
O260   O     0.77321   0.46042   0.16666   0.00000  Uiso   1.00
O261   O     0.83333   0.53959   0.09613   0.00000  Uiso   1.00
O262   O     0.83333   0.46041   0.23720   0.00000  Uiso   1.00
O263   O     0.83333   0.53959   0.23720   0.00000  Uiso   1.00
O264   O     0.83333   0.46041   0.09613   0.00000  Uiso   1.00
C265   C     0.08753   0.83289   0.16935   0.00000  Uiso   1.00
C266   C     0.02215   0.87422   0.17930   0.00000  Uiso   1.00
C267   C     0.29060   0.83449   0.16153   0.00000  Uiso   1.00
C268   C     0.04273   0.83218   0.17180   0.00000  Uiso   1.00
C269   C     0.14285   0.69085   0.13336   0.00000  Uiso   1.00
C270   C     0.19049   0.97582   0.19997   0.00000  Uiso   1.00
C271   C     0.19090   0.69207   0.19954   0.00000  Uiso   1.00
C272   C     0.14244   0.97460   0.13379   0.00000  Uiso   1.00
C273   C     0.03787   0.74504   0.16625   0.00000  Uiso   1.00
C274   C     0.29547   0.92163   0.16708   0.00000  Uiso   1.00
C275   C     0.29013   0.75145   0.13355   0.00000  Uiso   1.00
C276   C     0.24580   0.83378   0.16398   0.00000  Uiso   1.00
C277   C     0.04320   0.91521   0.19978   0.00000  Uiso   1.00
C278   C     0.11804   0.71475   0.09699   0.00000  Uiso   1.00
C279   C     0.21529   0.95192   0.23634   0.00000  Uiso   1.00
C280   C     0.21787   0.71732   0.23356   0.00000  Uiso   1.00
C281   C     0.11546   0.94935   0.09978   0.00000  Uiso   1.00
C282   C     0.16660   0.83329   0.07360   0.00000  Uiso   1.00
C283   C     0.16674   0.83338   0.25974   0.00000  Uiso   1.00
C284   C     0.16664   0.83327   0.02186   0.00000  Uiso   1.00
C285   C     0.16669   0.83340   0.31147   0.00000  Uiso   1.00
C286   C     0.01987   0.79064   0.16264   0.00000  Uiso   1.00
C287   C     0.31346   0.87603   0.17069   0.00000  Uiso   1.00
C288   C     0.31119   0.79244   0.15403   0.00000  Uiso   1.00
Cu289  Cu    0.16667   0.88022   0.16667   0.00000  Uiso   1.00
Cu290  Cu    0.16667   0.78645   0.16667   0.00000  Uiso   1.00
N291   N     0.16667   0.95069   0.16667   0.00000  Uiso   1.00
N292   N     0.09364   0.92950   0.07243   0.00000  Uiso   1.00
N293   N     0.16667   0.71598   0.16667   0.00000  Uiso   1.00
N294   N     0.05144   0.70833   0.16978   0.00000  Uiso   1.00
N295   N     0.28189   0.95833   0.16356   0.00000  Uiso   1.00
N296   N     0.27340   0.71903   0.11687   0.00000  Uiso   1.00
N297   N     0.05993   0.94764   0.21646   0.00000  Uiso   1.00
N298   N     0.09800   0.73344   0.06765   0.00000  Uiso   1.00
N299   N     0.23534   0.93322   0.26569   0.00000  Uiso   1.00
N300   N     0.23970   0.73717   0.26091   0.00000  Uiso   1.00
O301   O     0.10655   0.87291   0.16666   0.00000  Uiso   1.00
O302   O     0.22679   0.79375   0.16667   0.00000  Uiso   1.00
O303   O     0.22679   0.87291   0.16667   0.00000  Uiso   1.00
O304   O     0.10655   0.79375   0.16666   0.00000  Uiso   1.00
O305   O     0.16667   0.87292   0.09613   0.00000  Uiso   1.00
O306   O     0.16667   0.79375   0.23720   0.00000  Uiso   1.00
O307   O     0.16667   0.87292   0.23720   0.00000  Uiso   1.00
O308   O     0.16667   0.79375   0.09613   0.00000  Uiso   1.00
C309   C     0.42086   0.83289   0.16935   0.00000  Uiso   1.00
C310   C     0.35548   0.87422   0.17930   0.00000  Uiso   1.00
C311   C     0.62393   0.83449   0.16153   0.00000  Uiso   1.00
C312   C     0.37607   0.83218   0.17180   0.00000  Uiso   1.00
C313   C     0.47618   0.69085   0.13336   0.00000  Uiso   1.00
C314   C     0.52382   0.97582   0.19997   0.00000  Uiso   1.00
C315   C     0.52423   0.69207   0.19954   0.00000  Uiso   1.00
C316   C     0.47577   0.97460   0.13379   0.00000  Uiso   1.00
C317   C     0.37120   0.74504   0.16625   0.00000  Uiso   1.00
C318   C     0.62880   0.92163   0.16708   0.00000  Uiso   1.00
C319   C     0.62347   0.75145   0.13355   0.00000  Uiso   1.00
C320   C     0.57914   0.83378   0.16398   0.00000  Uiso   1.00
C321   C     0.37653   0.91521   0.19978   0.00000  Uiso   1.00
C322   C     0.45138   0.71475   0.09699   0.00000  Uiso   1.00
C323   C     0.54862   0.95192   0.23634   0.00000  Uiso   1.00
C324   C     0.55121   0.71732   0.23356   0.00000  Uiso   1.00
C325   C     0.44879   0.94935   0.09978   0.00000  Uiso   1.00
C326   C     0.49993   0.83329   0.07360   0.00000  Uiso   1.00
C327   C     0.50007   0.83338   0.25974   0.00000  Uiso   1.00
C328   C     0.49998   0.83327   0.02186   0.00000  Uiso   1.00
C329   C     0.50002   0.83340   0.31147   0.00000  Uiso   1.00
C330   C     0.35321   0.79064   0.16264   0.00000  Uiso   1.00
C331   C     0.64679   0.87603   0.17069   0.00000  Uiso   1.00
C332   C     0.64452   0.79244   0.15403   0.00000  Uiso   1.00
Cu333  Cu    0.50000   0.88022   0.16667   0.00000  Uiso   1.00
Cu334  Cu    0.50000   0.78645   0.16667   0.00000  Uiso   1.00
N335   N     0.50000   0.95069   0.16667   0.00000  Uiso   1.00
N336   N     0.42697   0.92950   0.07243   0.00000  Uiso   1.00
N337   N     0.50000   0.71598   0.16667   0.00000  Uiso   1.00
N338   N     0.38477   0.70833   0.16978   0.00000  Uiso   1.00
N339   N     0.61523   0.95833   0.16356   0.00000  Uiso   1.00
N340   N     0.60674   0.71903   0.11687   0.00000  Uiso   1.00
N341   N     0.39326   0.94764   0.21646   0.00000  Uiso   1.00
N342   N     0.43133   0.73344   0.06765   0.00000  Uiso   1.00
N343   N     0.56867   0.93322   0.26569   0.00000  Uiso   1.00
N344   N     0.57303   0.73717   0.26091   0.00000  Uiso   1.00
O345   O     0.43988   0.87291   0.16666   0.00000  Uiso   1.00
O346   O     0.56012   0.79375   0.16667   0.00000  Uiso   1.00
O347   O     0.56012   0.87291   0.16667   0.00000  Uiso   1.00
O348   O     0.43988   0.79375   0.16666   0.00000  Uiso   1.00
O349   O     0.50000   0.87292   0.09613   0.00000  Uiso   1.00
O350   O     0.50000   0.79375   0.23720   0.00000  Uiso   1.00
O351   O     0.50000   0.87292   0.23720   0.00000  Uiso   1.00
O352   O     0.50000   0.79375   0.09613   0.00000  Uiso   1.00
C353   C     0.75420   0.83289   0.16935   0.00000  Uiso   1.00
C354   C     0.68881   0.87422   0.17930   0.00000  Uiso   1.00
C355   C     0.95727   0.83449   0.16153   0.00000  Uiso   1.00
C356   C     0.70940   0.83218   0.17180   0.00000  Uiso   1.00
C357   C     0.80951   0.69085   0.13336   0.00000  Uiso   1.00
C358   C     0.85715   0.97582   0.19997   0.00000  Uiso   1.00
C359   C     0.85756   0.69207   0.19954   0.00000  Uiso   1.00
C360   C     0.80911   0.97460   0.13379   0.00000  Uiso   1.00
C361   C     0.70453   0.74504   0.16625   0.00000  Uiso   1.00
C362   C     0.96213   0.92163   0.16708   0.00000  Uiso   1.00
C363   C     0.95680   0.75145   0.13355   0.00000  Uiso   1.00
C364   C     0.91247   0.83378   0.16398   0.00000  Uiso   1.00
C365   C     0.70987   0.91521   0.19978   0.00000  Uiso   1.00
C366   C     0.78471   0.71475   0.09699   0.00000  Uiso   1.00
C367   C     0.88196   0.95192   0.23634   0.00000  Uiso   1.00
C368   C     0.88454   0.71732   0.23356   0.00000  Uiso   1.00
C369   C     0.78213   0.94935   0.09978   0.00000  Uiso   1.00
C370   C     0.83327   0.83329   0.07360   0.00000  Uiso   1.00
C371   C     0.83340   0.83338   0.25974   0.00000  Uiso   1.00
C372   C     0.83331   0.83327   0.02186   0.00000  Uiso   1.00
C373   C     0.83336   0.83340   0.31147   0.00000  Uiso   1.00
C374   C     0.68654   0.79064   0.16264   0.00000  Uiso   1.00
C375   C     0.98013   0.87603   0.17069   0.00000  Uiso   1.00
C376   C     0.97785   0.79244   0.15403   0.00000  Uiso   1.00
Cu377  Cu    0.83333   0.88022   0.16667   0.00000  Uiso   1.00
Cu378  Cu    0.83333   0.78645   0.16667   0.00000  Uiso   1.00
N379   N     0.83333   0.95069   0.16667   0.00000  Uiso   1.00
N380   N     0.76031   0.92950   0.07243   0.00000  Uiso   1.00
N381   N     0.83333   0.71598   0.16667   0.00000  Uiso   1.00
N382   N     0.71811   0.70833   0.16978   0.00000  Uiso   1.00
N383   N     0.94856   0.95833   0.16356   0.00000  Uiso   1.00
N384   N     0.94007   0.71903   0.11687   0.00000  Uiso   1.00
N385   N     0.72660   0.94764   0.21646   0.00000  Uiso   1.00
N386   N     0.76466   0.73344   0.06765   0.00000  Uiso   1.00
N387   N     0.90200   0.93322   0.26569   0.00000  Uiso   1.00
N388   N     0.90636   0.73717   0.26091   0.00000  Uiso   1.00
O389   O     0.77321   0.87291   0.16666   0.00000  Uiso   1.00
O390   O     0.89345   0.79375   0.16667   0.00000  Uiso   1.00
O391   O     0.89345   0.87291   0.16667   0.00000  Uiso   1.00
O392   O     0.77321   0.79375   0.16666   0.00000  Uiso   1.00
O393   O     0.83333   0.87292   0.09613   0.00000  Uiso   1.00
O394   O     0.83333   0.79375   0.23720   0.00000  Uiso   1.00
O395   O     0.83333   0.87292   0.23720   0.00000  Uiso   1.00
O396   O     0.83333   0.79375   0.09613   0.00000  Uiso   1.00
C397   C     0.08753   0.16622   0.50268   0.00000  Uiso   1.00
C398   C     0.02215   0.20756   0.51264   0.00000  Uiso   1.00
C399   C     0.29060   0.16782   0.49487   0.00000  Uiso   1.00
C400   C     0.04273   0.16551   0.50513   0.00000  Uiso   1.00
C401   C     0.14285   0.02418   0.46670   0.00000  Uiso   1.00
C402   C     0.19049   0.30915   0.53330   0.00000  Uiso   1.00
C403   C     0.19090   0.02540   0.53288   0.00000  Uiso   1.00
C404   C     0.14244   0.30793   0.46712   0.00000  Uiso   1.00
C405   C     0.03787   0.07837   0.49958   0.00000  Uiso   1.00
C406   C     0.29547   0.25496   0.50042   0.00000  Uiso   1.00
C407   C     0.29013   0.08479   0.46688   0.00000  Uiso   1.00
C408   C     0.24580   0.16711   0.49732   0.00000  Uiso   1.00
C409   C     0.04320   0.24855   0.53312   0.00000  Uiso   1.00
C410   C     0.11804   0.04808   0.43032   0.00000  Uiso   1.00
C411   C     0.21529   0.28525   0.56968   0.00000  Uiso   1.00
C412   C     0.21787   0.05065   0.56689   0.00000  Uiso   1.00
C413   C     0.11546   0.28268   0.43311   0.00000  Uiso   1.00
C414   C     0.16660   0.16662   0.40693   0.00000  Uiso   1.00
C415   C     0.16674   0.16671   0.59307   0.00000  Uiso   1.00
C416   C     0.16664   0.16660   0.35519   0.00000  Uiso   1.00
C417   C     0.16669   0.16673   0.64481   0.00000  Uiso   1.00
C418   C     0.01987   0.12397   0.49597   0.00000  Uiso   1.00
C419   C     0.31346   0.20936   0.50403   0.00000  Uiso   1.00
C420   C     0.31119   0.12578   0.48736   0.00000  Uiso   1.00
Cu421  Cu    0.16667   0.21355   0.50000   0.00000  Uiso   1.00
Cu422  Cu    0.16667   0.11978   0.50000   0.00000  Uiso   1.00
N423   N     0.16667   0.28402   0.50000   0.00000  Uiso   1.00
N424   N     0.09364   0.26283   0.40576   0.00000  Uiso   1.00
N425   N     0.16667   0.04931   0.50000   0.00000  Uiso   1.00
N426   N     0.05144   0.04167   0.50311   0.00000  Uiso   1.00
N427   N     0.28189   0.29167   0.49689   0.00000  Uiso   1.00
N428   N     0.27340   0.05236   0.45020   0.00000  Uiso   1.00
N429   N     0.05993   0.28097   0.54980   0.00000  Uiso   1.00
N430   N     0.09800   0.06678   0.40098   0.00000  Uiso   1.00
N431   N     0.23534   0.26656   0.59902   0.00000  Uiso   1.00
N432   N     0.23970   0.07050   0.59424   0.00000  Uiso   1.00
O433   O     0.10655   0.20625   0.50000   0.00000  Uiso   1.00
O434   O     0.22679   0.12709   0.50000   0.00000  Uiso   1.00
O435   O     0.22679   0.20625   0.50000   0.00000  Uiso   1.00
O436   O     0.10655   0.12709   0.50000   0.00000  Uiso   1.00
O437   O     0.16667   0.20625   0.42946   0.00000  Uiso   1.00
O438   O     0.16667   0.12708   0.57054   0.00000  Uiso   1.00
O439   O     0.16667   0.20625   0.57054   0.00000  Uiso   1.00
O440   O     0.16667   0.12708   0.42946   0.00000  Uiso   1.00
C441   C     0.42086   0.16622   0.50268   0.00000  Uiso   1.00
C442   C     0.35548   0.20756   0.51264   0.00000  Uiso   1.00
C443   C     0.62393   0.16782   0.49487   0.00000  Uiso   1.00
C444   C     0.37607   0.16551   0.50513   0.00000  Uiso   1.00
C445   C     0.47618   0.02418   0.46670   0.00000  Uiso   1.00
C446   C     0.52382   0.30915   0.53330   0.00000  Uiso   1.00
C447   C     0.52423   0.02540   0.53288   0.00000  Uiso   1.00
C448   C     0.47577   0.30793   0.46712   0.00000  Uiso   1.00
C449   C     0.37120   0.07837   0.49958   0.00000  Uiso   1.00
C450   C     0.62880   0.25496   0.50042   0.00000  Uiso   1.00
C451   C     0.62347   0.08479   0.46688   0.00000  Uiso   1.00
C452   C     0.57914   0.16711   0.49732   0.00000  Uiso   1.00
C453   C     0.37653   0.24855   0.53312   0.00000  Uiso   1.00
C454   C     0.45138   0.04808   0.43032   0.00000  Uiso   1.00
C455   C     0.54862   0.28525   0.56968   0.00000  Uiso   1.00
C456   C     0.55121   0.05065   0.56689   0.00000  Uiso   1.00
C457   C     0.44879   0.28268   0.43311   0.00000  Uiso   1.00
C458   C     0.49993   0.16662   0.40693   0.00000  Uiso   1.00
C459   C     0.50007   0.16671   0.59307   0.00000  Uiso   1.00
C460   C     0.49998   0.16660   0.35519   0.00000  Uiso   1.00
C461   C     0.50002   0.16673   0.64481   0.00000  Uiso   1.00
C462   C     0.35321   0.12397   0.49597   0.00000  Uiso   1.00
C463   C     0.64679   0.20936   0.50403   0.00000  Uiso   1.00
C464   C     0.64452   0.12578   0.48736   0.00000  Uiso   1.00
Cu465  Cu    0.50000   0.21355   0.50000   0.00000  Uiso   1.00
Cu466  Cu    0.50000   0.11978   0.50000   0.00000  Uiso   1.00
N467   N     0.50000   0.28402   0.50000   0.00000  Uiso   1.00
N468   N     0.42697   0.26283   0.40576   0.00000  Uiso   1.00
N469   N     0.50000   0.04931   0.50000   0.00000  Uiso   1.00
N470   N     0.38477   0.04167   0.50311   0.00000  Uiso   1.00
N471   N     0.61523   0.29167   0.49689   0.00000  Uiso   1.00
N472   N     0.60674   0.05236   0.45020   0.00000  Uiso   1.00
N473   N     0.39326   0.28097   0.54980   0.00000  Uiso   1.00
N474   N     0.43133   0.06678   0.40098   0.00000  Uiso   1.00
N475   N     0.56867   0.26656   0.59902   0.00000  Uiso   1.00
N476   N     0.57303   0.07050   0.59424   0.00000  Uiso   1.00
O477   O     0.43988   0.20625   0.50000   0.00000  Uiso   1.00
O478   O     0.56012   0.12709   0.50000   0.00000  Uiso   1.00
O479   O     0.56012   0.20625   0.50000   0.00000  Uiso   1.00
O480   O     0.43988   0.12709   0.50000   0.00000  Uiso   1.00
O481   O     0.50000   0.20625   0.42946   0.00000  Uiso   1.00
O482   O     0.50000   0.12708   0.57054   0.00000  Uiso   1.00
O483   O     0.50000   0.20625   0.57054   0.00000  Uiso   1.00
O484   O     0.50000   0.12708   0.42946   0.00000  Uiso   1.00
C485   C     0.75420   0.16622   0.50268   0.00000  Uiso   1.00
C486   C     0.68881   0.20756   0.51264   0.00000  Uiso   1.00
C487   C     0.95727   0.16782   0.49487   0.00000  Uiso   1.00
C488   C     0.70940   0.16551   0.50513   0.00000  Uiso   1.00
C489   C     0.80951   0.02418   0.46670   0.00000  Uiso   1.00
C490   C     0.85715   0.30915   0.53330   0.00000  Uiso   1.00
C491   C     0.85756   0.02540   0.53288   0.00000  Uiso   1.00
C492   C     0.80911   0.30793   0.46712   0.00000  Uiso   1.00
C493   C     0.70453   0.07837   0.49958   0.00000  Uiso   1.00
C494   C     0.96213   0.25496   0.50042   0.00000  Uiso   1.00
C495   C     0.95680   0.08479   0.46688   0.00000  Uiso   1.00
C496   C     0.91247   0.16711   0.49732   0.00000  Uiso   1.00
C497   C     0.70987   0.24855   0.53312   0.00000  Uiso   1.00
C498   C     0.78471   0.04808   0.43032   0.00000  Uiso   1.00
C499   C     0.88196   0.28525   0.56968   0.00000  Uiso   1.00
C500   C     0.88454   0.05065   0.56689   0.00000  Uiso   1.00
C501   C     0.78213   0.28268   0.43311   0.00000  Uiso   1.00
C502   C     0.83327   0.16662   0.40693   0.00000  Uiso   1.00
C503   C     0.83340   0.16671   0.59307   0.00000  Uiso   1.00
C504   C     0.83331   0.16660   0.35519   0.00000  Uiso   1.00
C505   C     0.83336   0.16673   0.64481   0.00000  Uiso   1.00
C506   C     0.68654   0.12397   0.49597   0.00000  Uiso   1.00
C507   C     0.98013   0.20936   0.50403   0.00000  Uiso   1.00
C508   C     0.97785   0.12578   0.48736   0.00000  Uiso   1.00
Cu509  Cu    0.83333   0.21355   0.50000   0.00000  Uiso   1.00
Cu510  Cu    0.83333   0.11978   0.50000   0.00000  Uiso   1.00
N511   N     0.83333   0.28402   0.50000   0.00000  Uiso   1.00
N512   N     0.76031   0.26283   0.40576   0.00000  Uiso   1.00
N513   N     0.83333   0.04931   0.50000   0.00000  Uiso   1.00
N514   N     0.71811   0.04167   0.50311   0.00000  Uiso   1.00
N515   N     0.94856   0.29167   0.49689   0.00000  Uiso   1.00
N516   N     0.94007   0.05236   0.45020   0.00000  Uiso   1.00
N517   N     0.72660   0.28097   0.54980   0.00000  Uiso   1.00
N518   N     0.76466   0.06678   0.40098   0.00000  Uiso   1.00
N519   N     0.90200   0.26656   0.59902   0.00000  Uiso   1.00
N520   N     0.90636   0.07050   0.59424   0.00000  Uiso   1.00
O521   O     0.77321   0.20625   0.50000   0.00000  Uiso   1.00
O522   O     0.89345   0.12709   0.50000   0.00000  Uiso   1.00
O523   O     0.89345   0.20625   0.50000   0.00000  Uiso   1.00
O524   O     0.77321   0.12709   0.50000   0.00000  Uiso   1.00
O525   O     0.83333   0.20625   0.42946   0.00000  Uiso   1.00
O526   O     0.83333   0.12708   0.57054   0.00000  Uiso   1.00
O527   O     0.83333   0.20625   0.57054   0.00000  Uiso   1.00
O528   O     0.83333   0.12708   0.42946   0.00000  Uiso   1.00
C529   C     0.08753   0.49956   0.50268   0.00000  Uiso   1.00
C530   C     0.02215   0.54089   0.51264   0.00000  Uiso   1.00
C531   C     0.29060   0.50116   0.49487   0.00000  Uiso   1.00
C532   C     0.04273   0.49884   0.50513   0.00000  Uiso   1.00
C533   C     0.14285   0.35751   0.46670   0.00000  Uiso   1.00
C534   C     0.19049   0.64249   0.53330   0.00000  Uiso   1.00
C535   C     0.19090   0.35874   0.53288   0.00000  Uiso   1.00
C536   C     0.14244   0.64126   0.46712   0.00000  Uiso   1.00
C537   C     0.03787   0.41171   0.49958   0.00000  Uiso   1.00
C538   C     0.29547   0.58829   0.50042   0.00000  Uiso   1.00
C539   C     0.29013   0.41812   0.46688   0.00000  Uiso   1.00
C540   C     0.24580   0.50044   0.49732   0.00000  Uiso   1.00
C541   C     0.04320   0.58188   0.53312   0.00000  Uiso   1.00
C542   C     0.11804   0.38142   0.43032   0.00000  Uiso   1.00
C543   C     0.21529   0.61858   0.56968   0.00000  Uiso   1.00
C544   C     0.21787   0.38398   0.56689   0.00000  Uiso   1.00
C545   C     0.11546   0.61602   0.43311   0.00000  Uiso   1.00
C546   C     0.16660   0.49995   0.40693   0.00000  Uiso   1.00
C547   C     0.16674   0.50005   0.59307   0.00000  Uiso   1.00
C548   C     0.16664   0.49994   0.35519   0.00000  Uiso   1.00
C549   C     0.16669   0.50006   0.64481   0.00000  Uiso   1.00
C550   C     0.01987   0.45731   0.49597   0.00000  Uiso   1.00
C551   C     0.31346   0.54269   0.50403   0.00000  Uiso   1.00
C552   C     0.31119   0.45911   0.48736   0.00000  Uiso   1.00
Cu553  Cu    0.16667   0.54689   0.50000   0.00000  Uiso   1.00
Cu554  Cu    0.16667   0.45311   0.50000   0.00000  Uiso   1.00
N555   N     0.16667   0.61736   0.50000   0.00000  Uiso   1.00
N556   N     0.09364   0.59616   0.40576   0.00000  Uiso   1.00
N557   N     0.16667   0.38264   0.50000   0.00000  Uiso   1.00
N558   N     0.05144   0.37500   0.50311   0.00000  Uiso   1.00
N559   N     0.28189   0.62500   0.49689   0.00000  Uiso   1.00
N560   N     0.27340   0.38569   0.45020   0.00000  Uiso   1.00
N561   N     0.05993   0.61431   0.54980   0.00000  Uiso   1.00
N562   N     0.09800   0.40011   0.40098   0.00000  Uiso   1.00
N563   N     0.23534   0.59989   0.59902   0.00000  Uiso   1.00
N564   N     0.23970   0.40384   0.59424   0.00000  Uiso   1.00
O565   O     0.10655   0.53958   0.50000   0.00000  Uiso   1.00
O566   O     0.22679   0.46042   0.50000   0.00000  Uiso   1.00
O567   O     0.22679   0.53958   0.50000   0.00000  Uiso   1.00
O568   O     0.10655   0.46042   0.50000   0.00000  Uiso   1.00
O569   O     0.16667   0.53959   0.42946   0.00000  Uiso   1.00
O570   O     0.16667   0.46041   0.57054   0.00000  Uiso   1.00
O571   O     0.16667   0.53959   0.57054   0.00000  Uiso   1.00
O572   O     0.16667   0.46041   0.42946   0.00000  Uiso   1.00
C573   C     0.42086   0.49956   0.50268   0.00000  Uiso   1.00
C574   C     0.35548   0.54089   0.51264   0.00000  Uiso   1.00
C575   C     0.62393   0.50116   0.49487   0.00000  Uiso   1.00
C576   C     0.37607   0.49884   0.50513   0.00000  Uiso   1.00
C577   C     0.47618   0.35751   0.46670   0.00000  Uiso   1.00
C578   C     0.52382   0.64249   0.53330   0.00000  Uiso   1.00
C579   C     0.52423   0.35874   0.53288   0.00000  Uiso   1.00
C580   C     0.47577   0.64126   0.46712   0.00000  Uiso   1.00
C581   C     0.37120   0.41171   0.49958   0.00000  Uiso   1.00
C582   C     0.62880   0.58829   0.50042   0.00000  Uiso   1.00
C583   C     0.62347   0.41812   0.46688   0.00000  Uiso   1.00
C584   C     0.57914   0.50044   0.49732   0.00000  Uiso   1.00
C585   C     0.37653   0.58188   0.53312   0.00000  Uiso   1.00
C586   C     0.45138   0.38142   0.43032   0.00000  Uiso   1.00
C587   C     0.54862   0.61858   0.56968   0.00000  Uiso   1.00
C588   C     0.55121   0.38398   0.56689   0.00000  Uiso   1.00
C589   C     0.44879   0.61602   0.43311   0.00000  Uiso   1.00
C590   C     0.49993   0.49995   0.40693   0.00000  Uiso   1.00
C591   C     0.50007   0.50005   0.59307   0.00000  Uiso   1.00
C592   C     0.49998   0.49994   0.35519   0.00000  Uiso   1.00
C593   C     0.50002   0.50006   0.64481   0.00000  Uiso   1.00
C594   C     0.35321   0.45731   0.49597   0.00000  Uiso   1.00
C595   C     0.64679   0.54269   0.50403   0.00000  Uiso   1.00
C596   C     0.64452   0.45911   0.48736   0.00000  Uiso   1.00
Cu597  Cu    0.50000   0.54689   0.50000   0.00000  Uiso   1.00
Cu598  Cu    0.50000   0.45311   0.50000   0.00000  Uiso   1.00
N599   N     0.50000   0.61736   0.50000   0.00000  Uiso   1.00
N600   N     0.42697   0.59616   0.40576   0.00000  Uiso   1.00
N601   N     0.50000   0.38264   0.50000   0.00000  Uiso   1.00
N602   N     0.38477   0.37500   0.50311   0.00000  Uiso   1.00
N603   N     0.61523   0.62500   0.49689   0.00000  Uiso   1.00
N604   N     0.60674   0.38569   0.45020   0.00000  Uiso   1.00
N605   N     0.39326   0.61431   0.54980   0.00000  Uiso   1.00
N606   N     0.43133   0.40011   0.40098   0.00000  Uiso   1.00
N607   N     0.56867   0.59989   0.59902   0.00000  Uiso   1.00
N608   N     0.57303   0.40384   0.59424   0.00000  Uiso   1.00
O609   O     0.43988   0.53958   0.50000   0.00000  Uiso   1.00
O610   O     0.56012   0.46042   0.50000   0.00000  Uiso   1.00
O611   O     0.56012   0.53958   0.50000   0.00000  Uiso   1.00
O612   O     0.43988   0.46042   0.50000   0.00000  Uiso   1.00
O613   O     0.50000   0.53959   0.42946   0.00000  Uiso   1.00
O614   O     0.50000   0.46041   0.57054   0.00000  Uiso   1.00
O615   O     0.50000   0.53959   0.57054   0.00000  Uiso   1.00
O616   O     0.50000   0.46041   0.42946   0.00000  Uiso   1.00
C617   C     0.75420   0.49956   0.50268   0.00000  Uiso   1.00
C618   C     0.68881   0.54089   0.51264   0.00000  Uiso   1.00
C619   C     0.95727   0.50116   0.49487   0.00000  Uiso   1.00
C620   C     0.70940   0.49884   0.50513   0.00000  Uiso   1.00
C621   C     0.80951   0.35751   0.46670   0.00000  Uiso   1.00
C622   C     0.85715   0.64249   0.53330   0.00000  Uiso   1.00
C623   C     0.85756   0.35874   0.53288   0.00000  Uiso   1.00
C624   C     0.80911   0.64126   0.46712   0.00000  Uiso   1.00
C625   C     0.70453   0.41171   0.49958   0.00000  Uiso   1.00
C626   C     0.96213   0.58829   0.50042   0.00000  Uiso   1.00
C627   C     0.95680   0.41812   0.46688   0.00000  Uiso   1.00
C628   C     0.91247   0.50044   0.49732   0.00000  Uiso   1.00
C629   C     0.70987   0.58188   0.53312   0.00000  Uiso   1.00
C630   C     0.78471   0.38142   0.43032   0.00000  Uiso   1.00
C631   C     0.88196   0.61858   0.56968   0.00000  Uiso   1.00
C632   C     0.88454   0.38398   0.56689   0.00000  Uiso   1.00
C633   C     0.78213   0.61602   0.43311   0.00000  Uiso   1.00
C634   C     0.83327   0.49995   0.40693   0.00000  Uiso   1.00
C635   C     0.83340   0.50005   0.59307   0.00000  Uiso   1.00
C636   C     0.83331   0.49994   0.35519   0.00000  Uiso   1.00
C637   C     0.83336   0.50006   0.64481   0.00000  Uiso   1.00
C638   C     0.68654   0.45731   0.49597   0.00000  Uiso   1.00
C639   C     0.98013   0.54269   0.50403   0.00000  Uiso   1.00
C640   C     0.97785   0.45911   0.48736   0.00000  Uiso   1.00
Cu641  Cu    0.83333   0.54689   0.50000   0.00000  Uiso   1.00
Cu642  Cu    0.83333   0.45311   0.50000   0.00000  Uiso   1.00
N643   N     0.83333   0.61736   0.50000   0.00000  Uiso   1.00
N644   N     0.76031   0.59616   0.40576   0.00000  Uiso   1.00
N645   N     0.83333   0.38264   0.50000   0.00000  Uiso   1.00
N646   N     0.71811   0.37500   0.50311   0.00000  Uiso   1.00
N647   N     0.94856   0.62500   0.49689   0.00000  Uiso   1.00
N648   N     0.94007   0.38569   0.45020   0.00000  Uiso   1.00
N649   N     0.72660   0.61431   0.54980   0.00000  Uiso   1.00
N650   N     0.76466   0.40011   0.40098   0.00000  Uiso   1.00
N651   N     0.90200   0.59989   0.59902   0.00000  Uiso   1.00
N652   N     0.90636   0.40384   0.59424   0.00000  Uiso   1.00
O653   O     0.77321   0.53958   0.50000   0.00000  Uiso   1.00
O654   O     0.89345   0.46042   0.50000   0.00000  Uiso   1.00
O655   O     0.89345   0.53958   0.50000   0.00000  Uiso   1.00
O656   O     0.77321   0.46042   0.50000   0.00000  Uiso   1.00
O657   O     0.83333   0.53959   0.42946   0.00000  Uiso   1.00
O658   O     0.83333   0.46041   0.57054   0.00000  Uiso   1.00
O659   O     0.83333   0.53959   0.57054   0.00000  Uiso   1.00
O660   O     0.83333   0.46041   0.42946   0.00000  Uiso   1.00
C661   C     0.08753   0.83289   0.50268   0.00000  Uiso   1.00
C662   C     0.02215   0.87422   0.51264   0.00000  Uiso   1.00
C663   C     0.29060   0.83449   0.49487   0.00000  Uiso   1.00
C664   C     0.04273   0.83218   0.50513   0.00000  Uiso   1.00
C665   C     0.14285   0.69085   0.46670   0.00000  Uiso   1.00
C666   C     0.19049   0.97582   0.53330   0.00000  Uiso   1.00
C667   C     0.19090   0.69207   0.53288   0.00000  Uiso   1.00
C668   C     0.14244   0.97460   0.46712   0.00000  Uiso   1.00
C669   C     0.03787   0.74504   0.49958   0.00000  Uiso   1.00
C670   C     0.29547   0.92163   0.50042   0.00000  Uiso   1.00
C671   C     0.29013   0.75145   0.46688   0.00000  Uiso   1.00
C672   C     0.24580   0.83378   0.49732   0.00000  Uiso   1.00
C673   C     0.04320   0.91521   0.53312   0.00000  Uiso   1.00
C674   C     0.11804   0.71475   0.43032   0.00000  Uiso   1.00
C675   C     0.21529   0.95192   0.56968   0.00000  Uiso   1.00
C676   C     0.21787   0.71732   0.56689   0.00000  Uiso   1.00
C677   C     0.11546   0.94935   0.43311   0.00000  Uiso   1.00
C678   C     0.16660   0.83329   0.40693   0.00000  Uiso   1.00
C679   C     0.16674   0.83338   0.59307   0.00000  Uiso   1.00
C680   C     0.16664   0.83327   0.35519   0.00000  Uiso   1.00
C681   C     0.16669   0.83340   0.64481   0.00000  Uiso   1.00
C682   C     0.01987   0.79064   0.49597   0.00000  Uiso   1.00
C683   C     0.31346   0.87603   0.50403   0.00000  Uiso   1.00
C684   C     0.31119   0.79244   0.48736   0.00000  Uiso   1.00
Cu685  Cu    0.16667   0.88022   0.50000   0.00000  Uiso   1.00
Cu686  Cu    0.16667   0.78645   0.50000   0.00000  Uiso   1.00
N687   N     0.16667   0.95069   0.50000   0.00000  Uiso   1.00
N688   N     0.09364   0.92950   0.40576   0.00000  Uiso   1.00
N689   N     0.16667   0.71598   0.50000   0.00000  Uiso   1.00
N690   N     0.05144   0.70833   0.50311   0.00000  Uiso   1.00
N691   N     0.28189   0.95833   0.49689   0.00000  Uiso   1.00
N692   N     0.27340   0.71903   0.45020   0.00000  Uiso   1.00
N693   N     0.05993   0.94764   0.54980   0.00000  Uiso   1.00
N694   N     0.09800   0.73344   0.40098   0.00000  Uiso   1.00
N695   N     0.23534   0.93322   0.59902   0.00000  Uiso   1.00
N696   N     0.23970   0.73717   0.59424   0.00000  Uiso   1.00
O697   O     0.10655   0.87291   0.50000   0.00000  Uiso   1.00
O698   O     0.22679   0.79375   0.50000   0.00000  Uiso   1.00
O699   O     0.22679   0.87291   0.50000   0.00000  Uiso   1.00
O700   O     0.10655   0.79375   0.50000   0.00000  Uiso   1.00
O701   O     0.16667   0.87292   0.42946   0.00000  Uiso   1.00
O702   O     0.16667   0.79375   0.57054   0.00000  Uiso   1.00
O703   O     0.16667   0.87292   0.57054   0.00000  Uiso   1.00
O704   O     0.16667   0.79375   0.42946   0.00000  Uiso   1.00
C705   C     0.42086   0.83289   0.50268   0.00000  Uiso   1.00
C706   C     0.35548   0.87422   0.51264   0.00000  Uiso   1.00
C707   C     0.62393   0.83449   0.49487   0.00000  Uiso   1.00
C708   C     0.37607   0.83218   0.50513   0.00000  Uiso   1.00
C709   C     0.47618   0.69085   0.46670   0.00000  Uiso   1.00
C710   C     0.52382   0.97582   0.53330   0.00000  Uiso   1.00
C711   C     0.52423   0.69207   0.53288   0.00000  Uiso   1.00
C712   C     0.47577   0.97460   0.46712   0.00000  Uiso   1.00
C713   C     0.37120   0.74504   0.49958   0.00000  Uiso   1.00
C714   C     0.62880   0.92163   0.50042   0.00000  Uiso   1.00
C715   C     0.62347   0.75145   0.46688   0.00000  Uiso   1.00
C716   C     0.57914   0.83378   0.49732   0.00000  Uiso   1.00
C717   C     0.37653   0.91521   0.53312   0.00000  Uiso   1.00
C718   C     0.45138   0.71475   0.43032   0.00000  Uiso   1.00
C719   C     0.54862   0.95192   0.56968   0.00000  Uiso   1.00
C720   C     0.55121   0.71732   0.56689   0.00000  Uiso   1.00
C721   C     0.44879   0.94935   0.43311   0.00000  Uiso   1.00
C722   C     0.49993   0.83329   0.40693   0.00000  Uiso   1.00
C723   C     0.50007   0.83338   0.59307   0.00000  Uiso   1.00
C724   C     0.49998   0.83327   0.35519   0.00000  Uiso   1.00
C725   C     0.50002   0.83340   0.64481   0.00000  Uiso   1.00
C726   C     0.35321   0.79064   0.49597   0.00000  Uiso   1.00
C727   C     0.64679   0.87603   0.50403   0.00000  Uiso   1.00
C728   C     0.64452   0.79244   0.48736   0.00000  Uiso   1.00
Cu729  Cu    0.50000   0.88022   0.50000   0.00000  Uiso   1.00
Cu730  Cu    0.50000   0.78645   0.50000   0.00000  Uiso   1.00
N731   N     0.50000   0.95069   0.50000   0.00000  Uiso   1.00
N732   N     0.42697   0.92950   0.40576   0.00000  Uiso   1.00
N733   N     0.50000   0.71598   0.50000   0.00000  Uiso   1.00
N734   N     0.38477   0.70833   0.50311   0.00000  Uiso   1.00
N735   N     0.61523   0.95833   0.49689   0.00000  Uiso   1.00
N736   N     0.60674   0.71903   0.45020   0.00000  Uiso   1.00
N737   N     0.39326   0.94764   0.54980   0.00000  Uiso   1.00
N738   N     0.43133   0.73344   0.40098   0.00000  Uiso   1.00
N739   N     0.56867   0.93322   0.59902   0.00000  Uiso   1.00
N740   N     0.57303   0.73717   0.59424   0.00000  Uiso   1.00
O741   O     0.43988   0.87291   0.50000   0.00000  Uiso   1.00
O742   O     0.56012   0.79375   0.50000   0.00000  Uiso   1.00
O743   O     0.56012   0.87291   0.50000   0.00000  Uiso   1.00
O744   O     0.43988   0.79375   0.50000   0.00000  Uiso   1.00
O745   O     0.50000   0.87292   0.42946   0.00000  Uiso   1.00
O746   O     0.50000   0.79375   0.57054   0.00000  Uiso   1.00
O747   O     0.50000   0.87292   0.57054   0.00000  Uiso   1.00
O748   O     0.50000   0.79375   0.42946   0.00000  Uiso   1.00
C749   C     0.75420   0.83289   0.50268   0.00000  Uiso   1.00
C750   C     0.68881   0.87422   0.51264   0.00000  Uiso   1.00
C751   C     0.95727   0.83449   0.49487   0.00000  Uiso   1.00
C752   C     0.70940   0.83218   0.50513   0.00000  Uiso   1.00
C753   C     0.80951   0.69085   0.46670   0.00000  Uiso   1.00
C754   C     0.85715   0.97582   0.53330   0.00000  Uiso   1.00
C755   C     0.85756   0.69207   0.53288   0.00000  Uiso   1.00
C756   C     0.80911   0.97460   0.46712   0.00000  Uiso   1.00
C757   C     0.70453   0.74504   0.49958   0.00000  Uiso   1.00
C758   C     0.96213   0.92163   0.50042   0.00000  Uiso   1.00
C759   C     0.95680   0.75145   0.46688   0.00000  Uiso   1.00
C760   C     0.91247   0.83378   0.49732   0.00000  Uiso   1.00
C761   C     0.70987   0.91521   0.53312   0.00000  Uiso   1.00
C762   C     0.78471   0.71475   0.43032   0.00000  Uiso   1.00
C763   C     0.88196   0.95192   0.56968   0.00000  Uiso   1.00
C764   C     0.88454   0.71732   0.56689   0.00000  Uiso   1.00
C765   C     0.78213   0.94935   0.43311   0.00000  Uiso   1.00
C766   C     0.83327   0.83329   0.40693   0.00000  Uiso   1.00
C767   C     0.83340   0.83338   0.59307   0.00000  Uiso   1.00
C768   C     0.83331   0.83327   0.35519   0.00000  Uiso   1.00
C769   C     0.83336   0.83340   0.64481   0.00000  Uiso   1.00
C770   C     0.68654   0.79064   0.49597   0.00000  Uiso   1.00
C771   C     0.98013   0.87603   0.50403   0.00000  Uiso   1.00
C772   C     0.97785   0.79244   0.48736   0.00000  Uiso   1.00
Cu773  Cu    0.83333   0.88022   0.50000   0.00000  Uiso   1.00
Cu774  Cu    0.83333   0.78645   0.50000   0.00000  Uiso   1.00
N775   N     0.83333   0.95069   0.50000   0.00000  Uiso   1.00
N776   N     0.76031   0.92950   0.40576   0.00000  Uiso   1.00
N777   N     0.83333   0.71598   0.50000   0.00000  Uiso   1.00
N778   N     0.71811   0.70833   0.50311   0.00000  Uiso   1.00
N779   N     0.94856   0.95833   0.49689   0.00000  Uiso   1.00
N780   N     0.94007   0.71903   0.45020   0.00000  Uiso   1.00
N781   N     0.72660   0.94764   0.54980   0.00000  Uiso   1.00
N782   N     0.76466   0.73344   0.40098   0.00000  Uiso   1.00
N783   N     0.90200   0.93322   0.59902   0.00000  Uiso   1.00
N784   N     0.90636   0.73717   0.59424   0.00000  Uiso   1.00
O785   O     0.77321   0.87291   0.50000   0.00000  Uiso   1.00
O786   O     0.89345   0.79375   0.50000   0.00000  Uiso   1.00
O787   O     0.89345   0.87291   0.50000   0.00000  Uiso   1.00
O788   O     0.77321   0.79375   0.50000   0.00000  Uiso   1.00
O789   O     0.83333   0.87292   0.42946   0.00000  Uiso   1.00
O790   O     0.83333   0.79375   0.57054   0.00000  Uiso   1.00
O791   O     0.83333   0.87292   0.57054   0.00000  Uiso   1.00
O792   O     0.83333   0.79375   0.42946   0.00000  Uiso   1.00
C793   C     0.08753   0.16622   0.83602   0.00000  Uiso   1.00
C794   C     0.02215   0.20756   0.84597   0.00000  Uiso   1.00
C795   C     0.29060   0.16782   0.82820   0.00000  Uiso   1.00
C796   C     0.04273   0.16551   0.83847   0.00000  Uiso   1.00
C797   C     0.14285   0.02418   0.80003   0.00000  Uiso   1.00
C798   C     0.19049   0.30915   0.86664   0.00000  Uiso   1.00
C799   C     0.19090   0.02540   0.86621   0.00000  Uiso   1.00
C800   C     0.14244   0.30793   0.80046   0.00000  Uiso   1.00
C801   C     0.03787   0.07837   0.83292   0.00000  Uiso   1.00
C802   C     0.29547   0.25496   0.83375   0.00000  Uiso   1.00
C803   C     0.29013   0.08479   0.80022   0.00000  Uiso   1.00
C804   C     0.24580   0.16711   0.83065   0.00000  Uiso   1.00
C805   C     0.04320   0.24855   0.86645   0.00000  Uiso   1.00
C806   C     0.11804   0.04808   0.76366   0.00000  Uiso   1.00
C807   C     0.21529   0.28525   0.90301   0.00000  Uiso   1.00
C808   C     0.21787   0.05065   0.90022   0.00000  Uiso   1.00
C809   C     0.11546   0.28268   0.76644   0.00000  Uiso   1.00
C810   C     0.16660   0.16662   0.74027   0.00000  Uiso   1.00
C811   C     0.16674   0.16671   0.92640   0.00000  Uiso   1.00
C812   C     0.16664   0.16660   0.68853   0.00000  Uiso   1.00
C813   C     0.16669   0.16673   0.97814   0.00000  Uiso   1.00
C814   C     0.01987   0.12397   0.82931   0.00000  Uiso   1.00
C815   C     0.31346   0.20936   0.83736   0.00000  Uiso   1.00
C816   C     0.31119   0.12578   0.82070   0.00000  Uiso   1.00
Cu817  Cu    0.16667   0.21355   0.83333   0.00000  Uiso   1.00
Cu818  Cu    0.16667   0.11978   0.83333   0.00000  Uiso   1.00
N819   N     0.16667   0.28402   0.83333   0.00000  Uiso   1.00
N820   N     0.09364   0.26283   0.73909   0.00000  Uiso   1.00
N821   N     0.16667   0.04931   0.83333   0.00000  Uiso   1.00
N822   N     0.05144   0.04167   0.83644   0.00000  Uiso   1.00
N823   N     0.28189   0.29167   0.83023   0.00000  Uiso   1.00
N824   N     0.27340   0.05236   0.78354   0.00000  Uiso   1.00
N825   N     0.05993   0.28097   0.88313   0.00000  Uiso   1.00
N826   N     0.09800   0.06678   0.73431   0.00000  Uiso   1.00
N827   N     0.23534   0.26656   0.93235   0.00000  Uiso   1.00
N828   N     0.23970   0.07050   0.92757   0.00000  Uiso   1.00
O829   O     0.10655   0.20625   0.83333   0.00000  Uiso   1.00
O830   O     0.22679   0.12709   0.83334   0.00000  Uiso   1.00
O831   O     0.22679   0.20625   0.83334   0.00000  Uiso   1.00
O832   O     0.10655   0.12709   0.83333   0.00000  Uiso   1.00
O833   O     0.16667   0.20625   0.76280   0.00000  Uiso   1.00
O834   O     0.16667   0.12708   0.90387   0.00000  Uiso   1.00
O835   O     0.16667   0.20625   0.90387   0.00000  Uiso   1.00
O836   O     0.16667   0.12708   0.76280   0.00000  Uiso   1.00
C837   C     0.42086   0.16622   0.83602   0.00000  Uiso   1.00
C838   C     0.35548   0.20756   0.84597   0.00000  Uiso   1.00
C839   C     0.62393   0.16782   0.82820   0.00000  Uiso   1.00
C840   C     0.37607   0.16551   0.83847   0.00000  Uiso   1.00
C841   C     0.47618   0.02418   0.80003   0.00000  Uiso   1.00
C842   C     0.52382   0.30915   0.86664   0.00000  Uiso   1.00
C843   C     0.52423   0.02540   0.86621   0.00000  Uiso   1.00
C844   C     0.47577   0.30793   0.80046   0.00000  Uiso   1.00
C845   C     0.37120   0.07837   0.83292   0.00000  Uiso   1.00
C846   C     0.62880   0.25496   0.83375   0.00000  Uiso   1.00
C847   C     0.62347   0.08479   0.80022   0.00000  Uiso   1.00
C848   C     0.57914   0.16711   0.83065   0.00000  Uiso   1.00
C849   C     0.37653   0.24855   0.86645   0.00000  Uiso   1.00
C850   C     0.45138   0.04808   0.76366   0.00000  Uiso   1.00
C851   C     0.54862   0.28525   0.90301   0.00000  Uiso   1.00
C852   C     0.55121   0.05065   0.90022   0.00000  Uiso   1.00
C853   C     0.44879   0.28268   0.76644   0.00000  Uiso   1.00
C854   C     0.49993   0.16662   0.74027   0.00000  Uiso   1.00
C855   C     0.50007   0.16671   0.92640   0.00000  Uiso   1.00
C856   C     0.49998   0.16660   0.68853   0.00000  Uiso   1.00
C857   C     0.50002   0.16673   0.97814   0.00000  Uiso   1.00
C858   C     0.35321   0.12397   0.82931   0.00000  Uiso   1.00
C859   C     0.64679   0.20936   0.83736   0.00000  Uiso   1.00
C860   C     0.64452   0.12578   0.82070   0.00000  Uiso   1.00
Cu861  Cu    0.50000   0.21355   0.83333   0.00000  Uiso   1.00
Cu862  Cu    0.50000   0.11978   0.83333   0.00000  Uiso   1.00
N863   N     0.50000   0.28402   0.83333   0.00000  Uiso   1.00
N864   N     0.42697   0.26283   0.73909   0.00000  Uiso   1.00
N865   N     0.50000   0.04931   0.83333   0.00000  Uiso   1.00
N866   N     0.38477   0.04167   0.83644   0.00000  Uiso   1.00
N867   N     0.61523   0.29167   0.83023   0.00000  Uiso   1.00
N868   N     0.60674   0.05236   0.78354   0.00000  Uiso   1.00
N869   N     0.39326   0.28097   0.88313   0.00000  Uiso   1.00
N870   N     0.43133   0.06678   0.73431   0.00000  Uiso   1.00
N871   N     0.56867   0.26656   0.93235   0.00000  Uiso   1.00
N872   N     0.57303   0.07050   0.92757   0.00000  Uiso   1.00
O873   O     0.43988   0.20625   0.83333   0.00000  Uiso   1.00
O874   O     0.56012   0.12709   0.83334   0.00000  Uiso   1.00
O875   O     0.56012   0.20625   0.83334   0.00000  Uiso   1.00
O876   O     0.43988   0.12709   0.83333   0.00000  Uiso   1.00
O877   O     0.50000   0.20625   0.76280   0.00000  Uiso   1.00
O878   O     0.50000   0.12708   0.90387   0.00000  Uiso   1.00
O879   O     0.50000   0.20625   0.90387   0.00000  Uiso   1.00
O880   O     0.50000   0.12708   0.76280   0.00000  Uiso   1.00
C881   C     0.75420   0.16622   0.83602   0.00000  Uiso   1.00
C882   C     0.68881   0.20756   0.84597   0.00000  Uiso   1.00
C883   C     0.95727   0.16782   0.82820   0.00000  Uiso   1.00
C884   C     0.70940   0.16551   0.83847   0.00000  Uiso   1.00
C885   C     0.80951   0.02418   0.80003   0.00000  Uiso   1.00
C886   C     0.85715   0.30915   0.86664   0.00000  Uiso   1.00
C887   C     0.85756   0.02540   0.86621   0.00000  Uiso   1.00
C888   C     0.80911   0.30793   0.80046   0.00000  Uiso   1.00
C889   C     0.70453   0.07837   0.83292   0.00000  Uiso   1.00
C890   C     0.96213   0.25496   0.83375   0.00000  Uiso   1.00
C891   C     0.95680   0.08479   0.80022   0.00000  Uiso   1.00
C892   C     0.91247   0.16711   0.83065   0.00000  Uiso   1.00
C893   C     0.70987   0.24855   0.86645   0.00000  Uiso   1.00
C894   C     0.78471   0.04808   0.76366   0.00000  Uiso   1.00
C895   C     0.88196   0.28525   0.90301   0.00000  Uiso   1.00
C896   C     0.88454   0.05065   0.90022   0.00000  Uiso   1.00
C897   C     0.78213   0.28268   0.76644   0.00000  Uiso   1.00
C898   C     0.83327   0.16662   0.74027   0.00000  Uiso   1.00
C899   C     0.83340   0.16671   0.92640   0.00000  Uiso   1.00
C900   C     0.83331   0.16660   0.68853   0.00000  Uiso   1.00
C901   C     0.83336   0.16673   0.97814   0.00000  Uiso   1.00
C902   C     0.68654   0.12397   0.82931   0.00000  Uiso   1.00
C903   C     0.98013   0.20936   0.83736   0.00000  Uiso   1.00
C904   C     0.97785   0.12578   0.82070   0.00000  Uiso   1.00
Cu905  Cu    0.83333   0.21355   0.83333   0.00000  Uiso   1.00
Cu906  Cu    0.83333   0.11978   0.83333   0.00000  Uiso   1.00
N907   N     0.83333   0.28402   0.83333   0.00000  Uiso   1.00
N908   N     0.76031   0.26283   0.73909   0.00000  Uiso   1.00
N909   N     0.83333   0.04931   0.83333   0.00000  Uiso   1.00
N910   N     0.71811   0.04167   0.83644   0.00000  Uiso   1.00
N911   N     0.94856   0.29167   0.83023   0.00000  Uiso   1.00
N912   N     0.94007   0.05236   0.78354   0.00000  Uiso   1.00
N913   N     0.72660   0.28097   0.88313   0.00000  Uiso   1.00
N914   N     0.76466   0.06678   0.73431   0.00000  Uiso   1.00
N915   N     0.90200   0.26656   0.93235   0.00000  Uiso   1.00
N916   N     0.90636   0.07050   0.92757   0.00000  Uiso   1.00
O917   O     0.77321   0.20625   0.83333   0.00000  Uiso   1.00
O918   O     0.89345   0.12709   0.83334   0.00000  Uiso   1.00
O919   O     0.89345   0.20625   0.83334   0.00000  Uiso   1.00
O920   O     0.77321   0.12709   0.83333   0.00000  Uiso   1.00
O921   O     0.83333   0.20625   0.76280   0.00000  Uiso   1.00
O922   O     0.83333   0.12708   0.90387   0.00000  Uiso   1.00
O923   O     0.83333   0.20625   0.90387   0.00000  Uiso   1.00
O924   O     0.83333   0.12708   0.76280   0.00000  Uiso   1.00
C925   C     0.08753   0.49956   0.83602   0.00000  Uiso   1.00
C926   C     0.02215   0.54089   0.84597   0.00000  Uiso   1.00
C927   C     0.29060   0.50116   0.82820   0.00000  Uiso   1.00
C928   C     0.04273   0.49884   0.83847   0.00000  Uiso   1.00
C929   C     0.14285   0.35751   0.80003   0.00000  Uiso   1.00
C930   C     0.19049   0.64249   0.86664   0.00000  Uiso   1.00
C931   C     0.19090   0.35874   0.86621   0.00000  Uiso   1.00
C932   C     0.14244   0.64126   0.80046   0.00000  Uiso   1.00
C933   C     0.03787   0.41171   0.83292   0.00000  Uiso   1.00
C934   C     0.29547   0.58829   0.83375   0.00000  Uiso   1.00
C935   C     0.29013   0.41812   0.80022   0.00000  Uiso   1.00
C936   C     0.24580   0.50044   0.83065   0.00000  Uiso   1.00
C937   C     0.04320   0.58188   0.86645   0.00000  Uiso   1.00
C938   C     0.11804   0.38142   0.76366   0.00000  Uiso   1.00
C939   C     0.21529   0.61858   0.90301   0.00000  Uiso   1.00
C940   C     0.21787   0.38398   0.90022   0.00000  Uiso   1.00
C941   C     0.11546   0.61602   0.76644   0.00000  Uiso   1.00
C942   C     0.16660   0.49995   0.74027   0.00000  Uiso   1.00
C943   C     0.16674   0.50005   0.92640   0.00000  Uiso   1.00
C944   C     0.16664   0.49994   0.68853   0.00000  Uiso   1.00
C945   C     0.16669   0.50006   0.97814   0.00000  Uiso   1.00
C946   C     0.01987   0.45731   0.82931   0.00000  Uiso   1.00
C947   C     0.31346   0.54269   0.83736   0.00000  Uiso   1.00
C948   C     0.31119   0.45911   0.82070   0.00000  Uiso   1.00
Cu949  Cu    0.16667   0.54689   0.83333   0.00000  Uiso   1.00
Cu950  Cu    0.16667   0.45311   0.83333   0.00000  Uiso   1.00
N951   N     0.16667   0.61736   0.83333   0.00000  Uiso   1.00
N952   N     0.09364   0.59616   0.73909   0.00000  Uiso   1.00
N953   N     0.16667   0.38264   0.83333   0.00000  Uiso   1.00
N954   N     0.05144   0.37500   0.83644   0.00000  Uiso   1.00
N955   N     0.28189   0.62500   0.83023   0.00000  Uiso   1.00
N956   N     0.27340   0.38569   0.78354   0.00000  Uiso   1.00
N957   N     0.05993   0.61431   0.88313   0.00000  Uiso   1.00
N958   N     0.09800   0.40011   0.73431   0.00000  Uiso   1.00
N959   N     0.23534   0.59989   0.93235   0.00000  Uiso   1.00
N960   N     0.23970   0.40384   0.92757   0.00000  Uiso   1.00
O961   O     0.10655   0.53958   0.83333   0.00000  Uiso   1.00
O962   O     0.22679   0.46042   0.83334   0.00000  Uiso   1.00
O963   O     0.22679   0.53958   0.83334   0.00000  Uiso   1.00
O964   O     0.10655   0.46042   0.83333   0.00000  Uiso   1.00
O965   O     0.16667   0.53959   0.76280   0.00000  Uiso   1.00
O966   O     0.16667   0.46041   0.90387   0.00000  Uiso   1.00
O967   O     0.16667   0.53959   0.90387   0.00000  Uiso   1.00
O968   O     0.16667   0.46041   0.76280   0.00000  Uiso   1.00
C969   C     0.42086   0.49956   0.83602   0.00000  Uiso   1.00
C970   C     0.35548   0.54089   0.84597   0.00000  Uiso   1.00
C971   C     0.62393   0.50116   0.82820   0.00000  Uiso   1.00
C972   C     0.37607   0.49884   0.83847   0.00000  Uiso   1.00
C973   C     0.47618   0.35751   0.80003   0.00000  Uiso   1.00
C974   C     0.52382   0.64249   0.86664   0.00000  Uiso   1.00
C975   C     0.52423   0.35874   0.86621   0.00000  Uiso   1.00
C976   C     0.47577   0.64126   0.80046   0.00000  Uiso   1.00
C977   C     0.37120   0.41171   0.83292   0.00000  Uiso   1.00
C978   C     0.62880   0.58829   0.83375   0.00000  Uiso   1.00
C979   C     0.62347   0.41812   0.80022   0.00000  Uiso   1.00
C980   C     0.57914   0.50044   0.83065   0.00000  Uiso   1.00
C981   C     0.37653   0.58188   0.86645   0.00000  Uiso   1.00
C982   C     0.45138   0.38142   0.76366   0.00000  Uiso   1.00
C983   C     0.54862   0.61858   0.90301   0.00000  Uiso   1.00
C984   C     0.55121   0.38398   0.90022   0.00000  Uiso   1.00
C985   C     0.44879   0.61602   0.76644   0.00000  Uiso   1.00
C986   C     0.49993   0.49995   0.74027   0.00000  Uiso   1.00
C987   C     0.50007   0.50005   0.92640   0.00000  Uiso   1.00
C988   C     0.49998   0.49994   0.68853   0.00000  Uiso   1.00
C989   C     0.50002   0.50006   0.97814   0.00000  Uiso   1.00
C990   C     0.35321   0.45731   0.82931   0.00000  Uiso   1.00
C991   C     0.64679   0.54269   0.83736   0.00000  Uiso   1.00
C992   C     0.64452   0.45911   0.82070   0.00000  Uiso   1.00
Cu993  Cu    0.50000   0.54689   0.83333   0.00000  Uiso   1.00
Cu994  Cu    0.50000   0.45311   0.83333   0.00000  Uiso   1.00
N995   N     0.50000   0.61736   0.83333   0.00000  Uiso   1.00
N996   N     0.42697   0.59616   0.73909   0.00000  Uiso   1.00
N997   N     0.50000   0.38264   0.83333   0.00000  Uiso   1.00
N998   N     0.38477   0.37500   0.83644   0.00000  Uiso   1.00
N999   N     0.61523   0.62500   0.83023   0.00000  Uiso   1.00
N1000  N     0.60674   0.38569   0.78354   0.00000  Uiso   1.00
N1001  N     0.39326   0.61431   0.88313   0.00000  Uiso   1.00
N1002  N     0.43133   0.40011   0.73431   0.00000  Uiso   1.00
N1003  N     0.56867   0.59989   0.93235   0.00000  Uiso   1.00
N1004  N     0.57303   0.40384   0.92757   0.00000  Uiso   1.00
O1005  O     0.43988   0.53958   0.83333   0.00000  Uiso   1.00
O1006  O     0.56012   0.46042   0.83334   0.00000  Uiso   1.00
O1007  O     0.56012   0.53958   0.83334   0.00000  Uiso   1.00
O1008  O     0.43988   0.46042   0.83333   0.00000  Uiso   1.00
O1009  O     0.50000   0.53959   0.76280   0.00000  Uiso   1.00
O1010  O     0.50000   0.46041   0.90387   0.00000  Uiso   1.00
O1011  O     0.50000   0.53959   0.90387   0.00000  Uiso   1.00
O1012  O     0.50000   0.46041   0.76280   0.00000  Uiso   1.00
C1013  C     0.75420   0.49956   0.83602   0.00000  Uiso   1.00
C1014  C     0.68881   0.54089   0.84597   0.00000  Uiso   1.00
C1015  C     0.95727   0.50116   0.82820   0.00000  Uiso   1.00
C1016  C     0.70940   0.49884   0.83847   0.00000  Uiso   1.00
C1017  C     0.80951   0.35751   0.80003   0.00000  Uiso   1.00
C1018  C     0.85715   0.64249   0.86664   0.00000  Uiso   1.00
C1019  C     0.85756   0.35874   0.86621   0.00000  Uiso   1.00
C1020  C     0.80911   0.64126   0.80046   0.00000  Uiso   1.00
C1021  C     0.70453   0.41171   0.83292   0.00000  Uiso   1.00
C1022  C     0.96213   0.58829   0.83375   0.00000  Uiso   1.00
C1023  C     0.95680   0.41812   0.80022   0.00000  Uiso   1.00
C1024  C     0.91247   0.50044   0.83065   0.00000  Uiso   1.00
C1025  C     0.70987   0.58188   0.86645   0.00000  Uiso   1.00
C1026  C     0.78471   0.38142   0.76366   0.00000  Uiso   1.00
C1027  C     0.88196   0.61858   0.90301   0.00000  Uiso   1.00
C1028  C     0.88454   0.38398   0.90022   0.00000  Uiso   1.00
C1029  C     0.78213   0.61602   0.76644   0.00000  Uiso   1.00
C1030  C     0.83327   0.49995   0.74027   0.00000  Uiso   1.00
C1031  C     0.83340   0.50005   0.92640   0.00000  Uiso   1.00
C1032  C     0.83331   0.49994   0.68853   0.00000  Uiso   1.00
C1033  C     0.83336   0.50006   0.97814   0.00000  Uiso   1.00
C1034  C     0.68654   0.45731   0.82931   0.00000  Uiso   1.00
C1035  C     0.98013   0.54269   0.83736   0.00000  Uiso   1.00
C1036  C     0.97785   0.45911   0.82070   0.00000  Uiso   1.00
Cu1037 Cu    0.83333   0.54689   0.83333   0.00000  Uiso   1.00
Cu1038 Cu    0.83333   0.45311   0.83333   0.00000  Uiso   1.00
N1039  N     0.83333   0.61736   0.83333   0.00000  Uiso   1.00
N1040  N     0.76031   0.59616   0.73909   0.00000  Uiso   1.00
N1041  N     0.83333   0.38264   0.83333   0.00000  Uiso   1.00
N1042  N     0.71811   0.37500   0.83644   0.00000  Uiso   1.00
N1043  N     0.94856   0.62500   0.83023   0.00000  Uiso   1.00
N1044  N     0.94007   0.38569   0.78354   0.00000  Uiso   1.00
N1045  N     0.72660   0.61431   0.88313   0.00000  Uiso   1.00
N1046  N     0.76466   0.40011   0.73431   0.00000  Uiso   1.00
N1047  N     0.90200   0.59989   0.93235   0.00000  Uiso   1.00
N1048  N     0.90636   0.40384   0.92757   0.00000  Uiso   1.00
O1049  O     0.77321   0.53958   0.83333   0.00000  Uiso   1.00
O1050  O     0.89345   0.46042   0.83334   0.00000  Uiso   1.00
O1051  O     0.89345   0.53958   0.83334   0.00000  Uiso   1.00
O1052  O     0.77321   0.46042   0.83333   0.00000  Uiso   1.00
O1053  O     0.83333   0.53959   0.76280   0.00000  Uiso   1.00
O1054  O     0.83333   0.46041   0.90387   0.00000  Uiso   1.00
O1055  O     0.83333   0.53959   0.90387   0.00000  Uiso   1.00
O1056  O     0.83333   0.46041   0.76280   0.00000  Uiso   1.00
C1057  C     0.08753   0.83289   0.83602   0.00000  Uiso   1.00
C1058  C     0.02215   0.87422   0.84597   0.00000  Uiso   1.00
C1059  C     0.29060   0.83449   0.82820   0.00000  Uiso   1.00
C1060  C     0.04273   0.83218   0.83847   0.00000  Uiso   1.00
C1061  C     0.14285   0.69085   0.80003   0.00000  Uiso   1.00
C1062  C     0.19049   0.97582   0.86664   0.00000  Uiso   1.00
C1063  C     0.19090   0.69207   0.86621   0.00000  Uiso   1.00
C1064  C     0.14244   0.97460   0.80046   0.00000  Uiso   1.00
C1065  C     0.03787   0.74504   0.83292   0.00000  Uiso   1.00
C1066  C     0.29547   0.92163   0.83375   0.00000  Uiso   1.00
C1067  C     0.29013   0.75145   0.80022   0.00000  Uiso   1.00
C1068  C     0.24580   0.83378   0.83065   0.00000  Uiso   1.00
C1069  C     0.04320   0.91521   0.86645   0.00000  Uiso   1.00
C1070  C     0.11804   0.71475   0.76366   0.00000  Uiso   1.00
C1071  C     0.21529   0.95192   0.90301   0.00000  Uiso   1.00
C1072  C     0.21787   0.71732   0.90022   0.00000  Uiso   1.00
C1073  C     0.11546   0.94935   0.76644   0.00000  Uiso   1.00
C1074  C     0.16660   0.83329   0.74027   0.00000  Uiso   1.00
C1075  C     0.16674   0.83338   0.92640   0.00000  Uiso   1.00
C1076  C     0.16664   0.83327   0.68853   0.00000  Uiso   1.00
C1077  C     0.16669   0.83340   0.97814   0.00000  Uiso   1.00
C1078  C     0.01987   0.79064   0.82931   0.00000  Uiso   1.00
C1079  C     0.31346   0.87603   0.83736   0.00000  Uiso   1.00
C1080  C     0.31119   0.79244   0.82070   0.00000  Uiso   1.00
Cu1081 Cu    0.16667   0.88022   0.83333   0.00000  Uiso   1.00
Cu1082 Cu    0.16667   0.78645   0.83333   0.00000  Uiso   1.00
N1083  N     0.16667   0.95069   0.83333   0.00000  Uiso   1.00
N1084  N     0.09364   0.92950   0.73909   0.00000  Uiso   1.00
N1085  N     0.16667   0.71598   0.83333   0.00000  Uiso   1.00
N1086  N     0.05144   0.70833   0.83644   0.00000  Uiso   1.00
N1087  N     0.28189   0.95833   0.83023   0.00000  Uiso   1.00
N1088  N     0.27340   0.71903   0.78354   0.00000  Uiso   1.00
N1089  N     0.05993   0.94764   0.88313   0.00000  Uiso   1.00
N1090  N     0.09800   0.73344   0.73431   0.00000  Uiso   1.00
N1091  N     0.23534   0.93322   0.93235   0.00000  Uiso   1.00
N1092  N     0.23970   0.73717   0.92757   0.00000  Uiso   1.00
O1093  O     0.10655   0.87291   0.83333   0.00000  Uiso   1.00
O1094  O     0.22679   0.79375   0.83334   0.00000  Uiso   1.00
O1095  O     0.22679   0.87291   0.83334   0.00000  Uiso   1.00
O1096  O     0.10655   0.79375   0.83333   0.00000  Uiso   1.00
O1097  O     0.16667   0.87292   0.76280   0.00000  Uiso   1.00
O1098  O     0.16667   0.79375   0.90387   0.00000  Uiso   1.00
O1099  O     0.16667   0.87292   0.90387   0.00000  Uiso   1.00
O1100  O     0.16667   0.79375   0.76280   0.00000  Uiso   1.00
C1101  C     0.42086   0.83289   0.83602   0.00000  Uiso   1.00
C1102  C     0.35548   0.87422   0.84597   0.00000  Uiso   1.00
C1103  C     0.62393   0.83449   0.82820   0.00000  Uiso   1.00
C1104  C     0.37607   0.83218   0.83847   0.00000  Uiso   1.00
C1105  C     0.47618   0.69085   0.80003   0.00000  Uiso   1.00
C1106  C     0.52382   0.97582   0.86664   0.00000  Uiso   1.00
C1107  C     0.52423   0.69207   0.86621   0.00000  Uiso   1.00
C1108  C     0.47577   0.97460   0.80046   0.00000  Uiso   1.00
C1109  C     0.37120   0.74504   0.83292   0.00000  Uiso   1.00
C1110  C     0.62880   0.92163   0.83375   0.00000  Uiso   1.00
C1111  C     0.62347   0.75145   0.80022   0.00000  Uiso   1.00
C1112  C     0.57914   0.83378   0.83065   0.00000  Uiso   1.00
C1113  C     0.37653   0.91521   0.86645   0.00000  Uiso   1.00
C1114  C     0.45138   0.71475   0.76366   0.00000  Uiso   1.00
C1115  C     0.54862   0.95192   0.90301   0.00000  Uiso   1.00
C1116  C     0.55121   0.71732   0.90022   0.00000  Uiso   1.00
C1117  C     0.44879   0.94935   0.76644   0.00000  Uiso   1.00
C1118  C     0.49993   0.83329   0.74027   0.00000  Uiso   1.00
C1119  C     0.50007   0.83338   0.92640   0.00000  Uiso   1.00
C1120  C     0.49998   0.83327   0.68853   0.00000  Uiso   1.00
C1121  C     0.50002   0.83340   0.97814   0.00000  Uiso   1.00
C1122  C     0.35321   0.79064   0.82931   0.00000  Uiso   1.00
C1123  C     0.64679   0.87603   0.83736   0.00000  Uiso   1.00
C1124  C     0.64452   0.79244   0.82070   0.00000  Uiso   1.00
Cu1125 Cu    0.50000   0.88022   0.83333   0.00000  Uiso   1.00
Cu1126 Cu    0.50000   0.78645   0.83333   0.00000  Uiso   1.00
N1127  N     0.50000   0.95069   0.83333   0.00000  Uiso   1.00
N1128  N     0.42697   0.92950   0.73909   0.00000  Uiso   1.00
N1129  N     0.50000   0.71598   0.83333   0.00000  Uiso   1.00
N1130  N     0.38477   0.70833   0.83644   0.00000  Uiso   1.00
N1131  N     0.61523   0.95833   0.83023   0.00000  Uiso   1.00
N1132  N     0.60674   0.71903   0.78354   0.00000  Uiso   1.00
N1133  N     0.39326   0.94764   0.88313   0.00000  Uiso   1.00
N1134  N     0.43133   0.73344   0.73431   0.00000  Uiso   1.00
N1135  N     0.56867   0.93322   0.93235   0.00000  Uiso   1.00
N1136  N     0.57303   0.73717   0.92757   0.00000  Uiso   1.00
O1137  O     0.43988   0.87291   0.83333   0.00000  Uiso   1.00
O1138  O     0.56012   0.79375   0.83334   0.00000  Uiso   1.00
O1139  O     0.56012   0.87291   0.83334   0.00000  Uiso   1.00
O1140  O     0.43988   0.79375   0.83333   0.00000  Uiso   1.00
O1141  O     0.50000   0.87292   0.76280   0.00000  Uiso   1.00
O1142  O     0.50000   0.79375   0.90387   0.00000  Uiso   1.00
O1143  O     0.50000   0.87292   0.90387   0.00000  Uiso   1.00
O1144  O     0.50000   0.79375   0.76280   0.00000  Uiso   1.00
C1145  C     0.75420   0.83289   0.83602   0.00000  Uiso   1.00
C1146  C     0.68881   0.87422   0.84597   0.00000  Uiso   1.00
C1147  C     0.95727   0.83449   0.82820   0.00000  Uiso   1.00
C1148  C     0.70940   0.83218   0.83847   0.00000  Uiso   1.00
C1149  C     0.80951   0.69085   0.80003   0.00000  Uiso   1.00
C1150  C     0.85715   0.97582   0.86664   0.00000  Uiso   1.00
C1151  C     0.85756   0.69207   0.86621   0.00000  Uiso   1.00
C1152  C     0.80911   0.97460   0.80046   0.00000  Uiso   1.00
C1153  C     0.70453   0.74504   0.83292   0.00000  Uiso   1.00
C1154  C     0.96213   0.92163   0.83375   0.00000  Uiso   1.00
C1155  C     0.95680   0.75145   0.80022   0.00000  Uiso   1.00
C1156  C     0.91247   0.83378   0.83065   0.00000  Uiso   1.00
C1157  C     0.70987   0.91521   0.86645   0.00000  Uiso   1.00
C1158  C     0.78471   0.71475   0.76366   0.00000  Uiso   1.00
C1159  C     0.88196   0.95192   0.90301   0.00000  Uiso   1.00
C1160  C     0.88454   0.71732   0.90022   0.00000  Uiso   1.00
C1161  C     0.78213   0.94935   0.76644   0.00000  Uiso   1.00
C1162  C     0.83327   0.83329   0.74027   0.00000  Uiso   1.00
C1163  C     0.83340   0.83338   0.92640   0.00000  Uiso   1.00
C1164  C     0.83331   0.83327   0.68853   0.00000  Uiso   1.00
C1165  C     0.83336   0.83340   0.97814   0.00000  Uiso   1.00
C1166  C     0.68654   0.79064   0.82931   0.00000  Uiso   1.00
C1167  C     0.98013   0.87603   0.83736   0.00000  Uiso   1.00
C1168  C     0.97785   0.79244   0.82070   0.00000  Uiso   1.00
Cu1169 Cu    0.83333   0.88022   0.83333   0.00000  Uiso   1.00
Cu1170 Cu    0.83333   0.78645   0.83333   0.00000  Uiso   1.00
N1171  N     0.83333   0.95069   0.83333   0.00000  Uiso   1.00
N1172  N     0.76031   0.92950   0.73909   0.00000  Uiso   1.00
N1173  N     0.83333   0.71598   0.83333   0.00000  Uiso   1.00
N1174  N     0.71811   0.70833   0.83644   0.00000  Uiso   1.00
N1175  N     0.94856   0.95833   0.83023   0.00000  Uiso   1.00
N1176  N     0.94007   0.71903   0.78354   0.00000  Uiso   1.00
N1177  N     0.72660   0.94764   0.88313   0.00000  Uiso   1.00
N1178  N     0.76466   0.73344   0.73431   0.00000  Uiso   1.00
N1179  N     0.90200   0.93322   0.93235   0.00000  Uiso   1.00
N1180  N     0.90636   0.73717   0.92757   0.00000  Uiso   1.00
O1181  O     0.77321   0.87291   0.83333   0.00000  Uiso   1.00
O1182  O     0.89345   0.79375   0.83334   0.00000  Uiso   1.00
O1183  O     0.89345   0.87291   0.83334   0.00000  Uiso   1.00
O1184  O     0.77321   0.79375   0.83333   0.00000  Uiso   1.00
O1185  O     0.83333   0.87292   0.76280   0.00000  Uiso   1.00
O1186  O     0.83333   0.79375   0.90387   0.00000  Uiso   1.00
O1187  O     0.83333   0.87292   0.90387   0.00000  Uiso   1.00
O1188  O     0.83333   0.79375   0.76280   0.00000  Uiso   1.00
loop_
_geom_bond_atom_site_label_1
_geom_bond_atom_site_label_2
_geom_bond_distance
_geom_bond_site_symmetry_2
_ccdc_geom_bond_type
C1     O37     1.303   .     A
C1     C4      1.476   .     S
C1     O40     1.300   .     A
C2     C4      1.414   .     A
C2     C13     1.455   .     S
C2     C111    1.395   1_455 S
C3     C24     1.414   .     A
C3     C12     1.476   .     S
C3     C23     1.416   .     A
C4     C22     1.416   .     A
C5     C14     1.445   .     S
C5     N29     1.372   .     A
C5     C272    1.426   1_545 S
C6     C15     1.445   .     S
C6     N27     1.372   .     A
C6     C139    1.426   .     S
C7     N29     1.372   .     A
C7     C16     1.444   .     S
C7     C270    1.426   1_545 S
C8     C17     1.444   .     S
C8     N27     1.372   .     A
C8     C137    1.426   .     S
C9     N30     1.156   .     T
C9     C22     1.450   .     S
C10    C23     1.450   .     S
C10    N31     1.156   .     T
C11    N32     1.157   .     T
C11    C24     1.455   .     S
C12    O39     1.300   .     A
C12    O38     1.303   .     A
C13    N33     1.157   .     T
C14    N34     1.158   .     T
C15    N35     1.158   .     T
C16    N36     1.158   .     T
C17    N28     1.158   .     T
C18    O44     1.293   .     A
C18    C20     1.408   .     S
C18    O41     1.292   .     A
C19    O42     1.292   .     A
C19    C21     1.408   .     S
C19    O43     1.293   .     A
C20    C813    1.190   1_554 S
C21    C416    1.190   .     S
C22    C112    1.395   1_455 S
C23    C46     1.395   .     S
C24    C66     1.395   .     S
Cu25   N27     2.026   .     S
Cu25   O43     1.932   .     S
Cu25   Cu26    2.696   .     S
Cu25   O41     1.930   .     S
Cu25   O37     1.984   .     S
Cu25   O39     1.992   .     S
Cu26   O44     1.932   .     S
Cu26   O40     1.992   .     S
Cu26   O42     1.930   .     S
Cu26   N29     2.026   .     S
Cu26   O38     1.984   .     S
C45    O81     1.303   .     A
C45    C48     1.476   .     S
C45    O84     1.300   .     A
C46    C48     1.414   .     A
C46    C57     1.455   .     S
C47    C68     1.414   .     A
C47    C56     1.476   .     S
C47    C67     1.416   .     A
C48    C66     1.416   .     A
C49    C58     1.445   .     S
C49    N73     1.372   .     A
C49    C316    1.426   1_545 S
C50    C59     1.445   .     S
C50    N71     1.372   .     A
C50    C183    1.426   .     S
C51    N73     1.372   .     A
C51    C60     1.444   .     S
C51    C314    1.426   1_545 S
C52    C61     1.444   .     S
C52    N71     1.372   .     A
C52    C181    1.426   .     S
C53    N74     1.156   .     T
C53    C66     1.450   .     S
C54    C67     1.450   .     S
C54    N75     1.156   .     T
C55    N76     1.157   .     T
C55    C68     1.455   .     S
C56    O83     1.300   .     A
C56    O82     1.303   .     A
C57    N77     1.157   .     T
C58    N78     1.158   .     T
C59    N79     1.158   .     T
C60    N80     1.158   .     T
C61    N72     1.158   .     T
C62    O88     1.293   .     A
C62    C64     1.408   .     S
C62    O85     1.292   .     A
C63    O86     1.292   .     A
C63    C65     1.408   .     S
C63    O87     1.293   .     A
C64    C857    1.190   1_554 S
C65    C460    1.190   .     S
C67    C90     1.395   .     S
C68    C110    1.395   .     S
Cu69   N71     2.026   .     S
Cu69   O87     1.932   .     S
Cu69   Cu70    2.696   .     S
Cu69   O85     1.930   .     S
Cu69   O81     1.984   .     S
Cu69   O83     1.992   .     S
Cu70   O88     1.932   .     S
Cu70   O84     1.992   .     S
Cu70   O86     1.930   .     S
Cu70   N73     2.026   .     S
Cu70   O82     1.984   .     S
C89    O125    1.303   .     A
C89    C92     1.476   .     S
C89    O128    1.300   .     A
C90    C92     1.414   .     A
C90    C101    1.455   .     S
C91    C112    1.414   .     A
C91    C100    1.476   .     S
C91    C111    1.416   .     A
C92    C110    1.416   .     A
C93    C102    1.445   .     S
C93    N117    1.372   .     A
C93    C360    1.426   1_545 S
C94    C103    1.445   .     S
C94    N115    1.372   .     A
C94    C227    1.426   .     S
C95    N117    1.372   .     A
C95    C104    1.444   .     S
C95    C358    1.426   1_545 S
C96    C105    1.444   .     S
C96    N115    1.372   .     A
C96    C225    1.426   .     S
C97    N118    1.156   .     T
C97    C110    1.450   .     S
C98    C111    1.450   .     S
C98    N119    1.156   .     T
C99    N120    1.157   .     T
C99    C112    1.455   .     S
C100   O127    1.300   .     A
C100   O126    1.303   .     A
C101   N121    1.157   .     T
C102   N122    1.158   .     T
C103   N123    1.158   .     T
C104   N124    1.158   .     T
C105   N116    1.158   .     T
C106   O132    1.293   .     A
C106   C108    1.408   .     S
C106   O129    1.292   .     A
C107   O130    1.292   .     A
C107   C109    1.408   .     S
C107   O131    1.293   .     A
C108   C901    1.190   1_554 S
C109   C504    1.190   .     S
C111   C2      1.395   1_655 S
C112   C22     1.395   1_655 S
Cu113  N115    2.026   .     S
Cu113  O131    1.932   .     S
Cu113  Cu114   2.696   .     S
Cu113  O129    1.930   .     S
Cu113  O125    1.984   .     S
Cu113  O127    1.992   .     S
Cu114  O132    1.932   .     S
Cu114  O128    1.992   .     S
Cu114  O130    1.930   .     S
Cu114  N117    2.026   .     S
Cu114  O126    1.984   .     S
C133   O169    1.303   .     A
C133   C136    1.476   .     S
C133   O172    1.300   .     A
C134   C136    1.414   .     A
C134   C145    1.455   .     S
C134   C243    1.395   1_455 S
C135   C156    1.414   .     A
C135   C144    1.476   .     S
C135   C155    1.416   .     A
C136   C154    1.416   .     A
C137   C146    1.445   .     S
C137   N161    1.372   .     A
C138   C147    1.445   .     S
C138   N159    1.372   .     A
C138   C271    1.426   .     S
C139   N161    1.372   .     A
C139   C148    1.444   .     S
C140   C149    1.444   .     S
C140   N159    1.372   .     A
C140   C269    1.426   .     S
C141   N162    1.156   .     T
C141   C154    1.450   .     S
C142   C155    1.450   .     S
C142   N163    1.156   .     T
C143   N164    1.157   .     T
C143   C156    1.455   .     S
C144   O171    1.300   .     A
C144   O170    1.303   .     A
C145   N165    1.157   .     T
C146   N166    1.158   .     T
C147   N167    1.158   .     T
C148   N168    1.158   .     T
C149   N160    1.158   .     T
C150   O176    1.293   .     A
C150   C152    1.408   .     S
C150   O173    1.292   .     A
C151   O174    1.292   .     A
C151   C153    1.408   .     S
C151   O175    1.293   .     A
C152   C945    1.190   1_554 S
C153   C548    1.190   .     S
C154   C244    1.395   1_455 S
C155   C178    1.395   .     S
C156   C198    1.395   .     S
Cu157  N159    2.026   .     S
Cu157  O175    1.932   .     S
Cu157  Cu158   2.696   .     S
Cu157  O173    1.930   .     S
Cu157  O169    1.984   .     S
Cu157  O171    1.992   .     S
Cu158  O176    1.932   .     S
Cu158  O172    1.992   .     S
Cu158  O174    1.930   .     S
Cu158  N161    2.026   .     S
Cu158  O170    1.984   .     S
C177   O213    1.303   .     A
C177   C180    1.476   .     S
C177   O216    1.300   .     A
C178   C180    1.414   .     A
C178   C189    1.455   .     S
C179   C200    1.414   .     A
C179   C188    1.476   .     S
C179   C199    1.416   .     A
C180   C198    1.416   .     A
C181   C190    1.445   .     S
C181   N205    1.372   .     A
C182   C191    1.445   .     S
C182   N203    1.372   .     A
C182   C315    1.426   .     S
C183   N205    1.372   .     A
C183   C192    1.444   .     S
C184   C193    1.444   .     S
C184   N203    1.372   .     A
C184   C313    1.426   .     S
C185   N206    1.156   .     T
C185   C198    1.450   .     S
C186   C199    1.450   .     S
C186   N207    1.156   .     T
C187   N208    1.157   .     T
C187   C200    1.455   .     S
C188   O215    1.300   .     A
C188   O214    1.303   .     A
C189   N209    1.157   .     T
C190   N210    1.158   .     T
C191   N211    1.158   .     T
C192   N212    1.158   .     T
C193   N204    1.158   .     T
C194   O220    1.293   .     A
C194   C196    1.408   .     S
C194   O217    1.292   .     A
C195   O218    1.292   .     A
C195   C197    1.408   .     S
C195   O219    1.293   .     A
C196   C989    1.190   1_554 S
C197   C592    1.190   .     S
C199   C222    1.395   .     S
C200   C242    1.395   .     S
Cu201  N203    2.026   .     S
Cu201  O219    1.932   .     S
Cu201  Cu202   2.696   .     S
Cu201  O217    1.930   .     S
Cu201  O213    1.984   .     S
Cu201  O215    1.992   .     S
Cu202  O220    1.932   .     S
Cu202  O216    1.992   .     S
Cu202  O218    1.930   .     S
Cu202  N205    2.026   .     S
Cu202  O214    1.984   .     S
C221   O257    1.303   .     A
C221   C224    1.476   .     S
C221   O260    1.300   .     A
C222   C224    1.414   .     A
C222   C233    1.455   .     S
C223   C244    1.414   .     A
C223   C232    1.476   .     S
C223   C243    1.416   .     A
C224   C242    1.416   .     A
C225   C234    1.445   .     S
C225   N249    1.372   .     A
C226   C235    1.445   .     S
C226   N247    1.372   .     A
C226   C359    1.426   .     S
C227   N249    1.372   .     A
C227   C236    1.444   .     S
C228   C237    1.444   .     S
C228   N247    1.372   .     A
C228   C357    1.426   .     S
C229   N250    1.156   .     T
C229   C242    1.450   .     S
C230   C243    1.450   .     S
C230   N251    1.156   .     T
C231   N252    1.157   .     T
C231   C244    1.455   .     S
C232   O259    1.300   .     A
C232   O258    1.303   .     A
C233   N253    1.157   .     T
C234   N254    1.158   .     T
C235   N255    1.158   .     T
C236   N256    1.158   .     T
C237   N248    1.158   .     T
C238   O264    1.293   .     A
C238   C240    1.408   .     S
C238   O261    1.292   .     A
C239   O262    1.292   .     A
C239   C241    1.408   .     S
C239   O263    1.293   .     A
C240   C1033   1.190   1_554 S
C241   C636    1.190   .     S
C243   C134    1.395   1_655 S
C244   C154    1.395   1_655 S
Cu245  N247    2.026   .     S
Cu245  O263    1.932   .     S
Cu245  Cu246   2.696   .     S
Cu245  O261    1.930   .     S
Cu245  O257    1.984   .     S
Cu245  O259    1.992   .     S
Cu246  O264    1.932   .     S
Cu246  O260    1.992   .     S
Cu246  O262    1.930   .     S
Cu246  N249    2.026   .     S
Cu246  O258    1.984   .     S
C265   O301    1.303   .     A
C265   C268    1.476   .     S
C265   O304    1.300   .     A
C266   C268    1.414   .     A
C266   C277    1.455   .     S
C266   C375    1.395   1_455 S
C267   C288    1.414   .     A
C267   C276    1.476   .     S
C267   C287    1.416   .     A
C268   C286    1.416   .     A
C269   C278    1.445   .     S
C269   N293    1.372   .     A
C270   C279    1.445   .     S
C270   N291    1.372   .     A
C270   C7      1.426   1_565 S
C271   N293    1.372   .     A
C271   C280    1.444   .     S
C272   C281    1.444   .     S
C272   N291    1.372   .     A
C272   C5      1.426   1_565 S
C273   N294    1.156   .     T
C273   C286    1.450   .     S
C274   C287    1.450   .     S
C274   N295    1.156   .     T
C275   N296    1.157   .     T
C275   C288    1.455   .     S
C276   O303    1.300   .     A
C276   O302    1.303   .     A
C277   N297    1.157   .     T
C278   N298    1.158   .     T
C279   N299    1.158   .     T
C280   N300    1.158   .     T
C281   N292    1.158   .     T
C282   O308    1.293   .     A
C282   C284    1.408   .     S
C282   O305    1.292   .     A
C283   O306    1.292   .     A
C283   C285    1.408   .     S
C283   O307    1.293   .     A
C284   C1077   1.190   1_554 S
C285   C680    1.190   .     S
C286   C376    1.395   1_455 S
C287   C310    1.395   .     S
C288   C330    1.395   .     S
Cu289  N291    2.026   .     S
Cu289  O307    1.932   .     S
Cu289  Cu290   2.696   .     S
Cu289  O305    1.930   .     S
Cu289  O301    1.984   .     S
Cu289  O303    1.992   .     S
Cu290  O308    1.932   .     S
Cu290  O304    1.992   .     S
Cu290  O306    1.930   .     S
Cu290  N293    2.026   .     S
Cu290  O302    1.984   .     S
C309   O345    1.303   .     A
C309   C312    1.476   .     S
C309   O348    1.300   .     A
C310   C312    1.414   .     A
C310   C321    1.455   .     S
C311   C332    1.414   .     A
C311   C320    1.476   .     S
C311   C331    1.416   .     A
C312   C330    1.416   .     A
C313   C322    1.445   .     S
C313   N337    1.372   .     A
C314   C323    1.445   .     S
C314   N335    1.372   .     A
C314   C51     1.426   1_565 S
C315   N337    1.372   .     A
C315   C324    1.444   .     S
C316   C325    1.444   .     S
C316   N335    1.372   .     A
C316   C49     1.426   1_565 S
C317   N338    1.156   .     T
C317   C330    1.450   .     S
C318   C331    1.450   .     S
C318   N339    1.156   .     T
C319   N340    1.157   .     T
C319   C332    1.455   .     S
C320   O347    1.300   .     A
C320   O346    1.303   .     A
C321   N341    1.157   .     T
C322   N342    1.158   .     T
C323   N343    1.158   .     T
C324   N344    1.158   .     T
C325   N336    1.158   .     T
C326   O352    1.293   .     A
C326   C328    1.408   .     S
C326   O349    1.292   .     A
C327   O350    1.292   .     A
C327   C329    1.408   .     S
C327   O351    1.293   .     A
C328   C1121   1.190   1_554 S
C329   C724    1.190   .     S
C331   C354    1.395   .     S
C332   C374    1.395   .     S
Cu333  N335    2.026   .     S
Cu333  O351    1.932   .     S
Cu333  Cu334   2.696   .     S
Cu333  O349    1.930   .     S
Cu333  O345    1.984   .     S
Cu333  O347    1.992   .     S
Cu334  O352    1.932   .     S
Cu334  O348    1.992   .     S
Cu334  O350    1.930   .     S
Cu334  N337    2.026   .     S
Cu334  O346    1.984   .     S
C353   O389    1.303   .     A
C353   C356    1.476   .     S
C353   O392    1.300   .     A
C354   C356    1.414   .     A
C354   C365    1.455   .     S
C355   C376    1.414   .     A
C355   C364    1.476   .     S
C355   C375    1.416   .     A
C356   C374    1.416   .     A
C357   C366    1.445   .     S
C357   N381    1.372   .     A
C358   C367    1.445   .     S
C358   N379    1.372   .     A
C358   C95     1.426   1_565 S
C359   N381    1.372   .     A
C359   C368    1.444   .     S
C360   C369    1.444   .     S
C360   N379    1.372   .     A
C360   C93     1.426   1_565 S
C361   N382    1.156   .     T
C361   C374    1.450   .     S
C362   C375    1.450   .     S
C362   N383    1.156   .     T
C363   N384    1.157   .     T
C363   C376    1.455   .     S
C364   O391    1.300   .     A
C364   O390    1.303   .     A
C365   N385    1.157   .     T
C366   N386    1.158   .     T
C367   N387    1.158   .     T
C368   N388    1.158   .     T
C369   N380    1.158   .     T
C370   O396    1.293   .     A
C370   C372    1.408   .     S
C370   O393    1.292   .     A
C371   O394    1.292   .     A
C371   C373    1.408   .     S
C371   O395    1.293   .     A
C372   C1165   1.190   1_554 S
C373   C768    1.190   .     S
C375   C266    1.395   1_655 S
C376   C286    1.395   1_655 S
Cu377  N379    2.026   .     S
Cu377  O395    1.932   .     S
Cu377  Cu378   2.696   .     S
Cu377  O393    1.930   .     S
Cu377  O389    1.984   .     S
Cu377  O391    1.992   .     S
Cu378  O396    1.932   .     S
Cu378  O392    1.992   .     S
Cu378  O394    1.930   .     S
Cu378  N381    2.026   .     S
Cu378  O390    1.984   .     S
C397   O433    1.303   .     A
C397   C400    1.476   .     S
C397   O436    1.300   .     A
C398   C400    1.414   .     A
C398   C409    1.455   .     S
C398   C507    1.395   1_455 S
C399   C420    1.414   .     A
C399   C408    1.476   .     S
C399   C419    1.416   .     A
C400   C418    1.416   .     A
C401   C410    1.445   .     S
C401   N425    1.372   .     A
C401   C668    1.426   1_545 S
C402   C411    1.445   .     S
C402   N423    1.372   .     A
C402   C535    1.426   .     S
C403   N425    1.372   .     A
C403   C412    1.444   .     S
C403   C666    1.426   1_545 S
C404   C413    1.444   .     S
C404   N423    1.372   .     A
C404   C533    1.426   .     S
C405   N426    1.156   .     T
C405   C418    1.450   .     S
C406   C419    1.450   .     S
C406   N427    1.156   .     T
C407   N428    1.157   .     T
C407   C420    1.455   .     S
C408   O435    1.300   .     A
C408   O434    1.303   .     A
C409   N429    1.157   .     T
C410   N430    1.158   .     T
C411   N431    1.158   .     T
C412   N432    1.158   .     T
C413   N424    1.158   .     T
C414   O440    1.293   .     A
C414   C416    1.408   .     S
C414   O437    1.292   .     A
C415   O438    1.292   .     A
C415   C417    1.408   .     S
C415   O439    1.293   .     A
C417   C812    1.190   .     S
C418   C508    1.395   1_455 S
C419   C442    1.395   .     S
C420   C462    1.395   .     S
Cu421  N423    2.026   .     S
Cu421  O439    1.932   .     S
Cu421  Cu422   2.696   .     S
Cu421  O437    1.930   .     S
Cu421  O433    1.984   .     S
Cu421  O435    1.992   .     S
Cu422  O440    1.932   .     S
Cu422  O436    1.992   .     S
Cu422  O438    1.930   .     S
Cu422  N425    2.026   .     S
Cu422  O434    1.984   .     S
C441   O477    1.303   .     A
C441   C444    1.476   .     S
C441   O480    1.300   .     A
C442   C444    1.414   .     A
C442   C453    1.455   .     S
C443   C464    1.414   .     A
C443   C452    1.476   .     S
C443   C463    1.416   .     A
C444   C462    1.416   .     A
C445   C454    1.445   .     S
C445   N469    1.372   .     A
C445   C712    1.426   1_545 S
C446   C455    1.445   .     S
C446   N467    1.372   .     A
C446   C579    1.426   .     S
C447   N469    1.372   .     A
C447   C456    1.444   .     S
C447   C710    1.426   1_545 S
C448   C457    1.444   .     S
C448   N467    1.372   .     A
C448   C577    1.426   .     S
C449   N470    1.156   .     T
C449   C462    1.450   .     S
C450   C463    1.450   .     S
C450   N471    1.156   .     T
C451   N472    1.157   .     T
C451   C464    1.455   .     S
C452   O479    1.300   .     A
C452   O478    1.303   .     A
C453   N473    1.157   .     T
C454   N474    1.158   .     T
C455   N475    1.158   .     T
C456   N476    1.158   .     T
C457   N468    1.158   .     T
C458   O484    1.293   .     A
C458   C460    1.408   .     S
C458   O481    1.292   .     A
C459   O482    1.292   .     A
C459   C461    1.408   .     S
C459   O483    1.293   .     A
C461   C856    1.190   .     S
C463   C486    1.395   .     S
C464   C506    1.395   .     S
Cu465  N467    2.026   .     S
Cu465  O483    1.932   .     S
Cu465  Cu466   2.696   .     S
Cu465  O481    1.930   .     S
Cu465  O477    1.984   .     S
Cu465  O479    1.992   .     S
Cu466  O484    1.932   .     S
Cu466  O480    1.992   .     S
Cu466  O482    1.930   .     S
Cu466  N469    2.026   .     S
Cu466  O478    1.984   .     S
C485   O521    1.303   .     A
C485   C488    1.476   .     S
C485   O524    1.300   .     A
C486   C488    1.414   .     A
C486   C497    1.455   .     S
C487   C508    1.414   .     A
C487   C496    1.476   .     S
C487   C507    1.416   .     A
C488   C506    1.416   .     A
C489   C498    1.445   .     S
C489   N513    1.372   .     A
C489   C756    1.426   1_545 S
C490   C499    1.445   .     S
C490   N511    1.372   .     A
C490   C623    1.426   .     S
C491   N513    1.372   .     A
C491   C500    1.444   .     S
C491   C754    1.426   1_545 S
C492   C501    1.444   .     S
C492   N511    1.372   .     A
C492   C621    1.426   .     S
C493   N514    1.156   .     T
C493   C506    1.450   .     S
C494   C507    1.450   .     S
C494   N515    1.156   .     T
C495   N516    1.157   .     T
C495   C508    1.455   .     S
C496   O523    1.300   .     A
C496   O522    1.303   .     A
C497   N517    1.157   .     T
C498   N518    1.158   .     T
C499   N519    1.158   .     T
C500   N520    1.158   .     T
C501   N512    1.158   .     T
C502   O528    1.293   .     A
C502   C504    1.408   .     S
C502   O525    1.292   .     A
C503   O526    1.292   .     A
C503   C505    1.408   .     S
C503   O527    1.293   .     A
C505   C900    1.190   .     S
C507   C398    1.395   1_655 S
C508   C418    1.395   1_655 S
Cu509  N511    2.026   .     S
Cu509  O527    1.932   .     S
Cu509  Cu510   2.696   .     S
Cu509  O525    1.930   .     S
Cu509  O521    1.984   .     S
Cu509  O523    1.992   .     S
Cu510  O528    1.932   .     S
Cu510  O524    1.992   .     S
Cu510  O526    1.930   .     S
Cu510  N513    2.026   .     S
Cu510  O522    1.984   .     S
C529   O565    1.303   .     A
C529   C532    1.476   .     S
C529   O568    1.300   .     A
C530   C532    1.414   .     A
C530   C541    1.455   .     S
C530   C639    1.395   1_455 S
C531   C552    1.414   .     A
C531   C540    1.476   .     S
C531   C551    1.416   .     A
C532   C550    1.416   .     A
C533   C542    1.445   .     S
C533   N557    1.372   .     A
C534   C543    1.445   .     S
C534   N555    1.372   .     A
C534   C667    1.426   .     S
C535   N557    1.372   .     A
C535   C544    1.444   .     S
C536   C545    1.444   .     S
C536   N555    1.372   .     A
C536   C665    1.426   .     S
C537   N558    1.156   .     T
C537   C550    1.450   .     S
C538   C551    1.450   .     S
C538   N559    1.156   .     T
C539   N560    1.157   .     T
C539   C552    1.455   .     S
C540   O567    1.300   .     A
C540   O566    1.303   .     A
C541   N561    1.157   .     T
C542   N562    1.158   .     T
C543   N563    1.158   .     T
C544   N564    1.158   .     T
C545   N556    1.158   .     T
C546   O572    1.293   .     A
C546   C548    1.408   .     S
C546   O569    1.292   .     A
C547   O570    1.292   .     A
C547   C549    1.408   .     S
C547   O571    1.293   .     A
C549   C944    1.190   .     S
C550   C640    1.395   1_455 S
C551   C574    1.395   .     S
C552   C594    1.395   .     S
Cu553  N555    2.026   .     S
Cu553  O571    1.932   .     S
Cu553  Cu554   2.696   .     S
Cu553  O569    1.930   .     S
Cu553  O565    1.984   .     S
Cu553  O567    1.992   .     S
Cu554  O572    1.932   .     S
Cu554  O568    1.992   .     S
Cu554  O570    1.930   .     S
Cu554  N557    2.026   .     S
Cu554  O566    1.984   .     S
C573   O609    1.303   .     A
C573   C576    1.476   .     S
C573   O612    1.300   .     A
C574   C576    1.414   .     A
C574   C585    1.455   .     S
C575   C596    1.414   .     A
C575   C584    1.476   .     S
C575   C595    1.416   .     A
C576   C594    1.416   .     A
C577   C586    1.445   .     S
C577   N601    1.372   .     A
C578   C587    1.445   .     S
C578   N599    1.372   .     A
C578   C711    1.426   .     S
C579   N601    1.372   .     A
C579   C588    1.444   .     S
C580   C589    1.444   .     S
C580   N599    1.372   .     A
C580   C709    1.426   .     S
C581   N602    1.156   .     T
C581   C594    1.450   .     S
C582   C595    1.450   .     S
C582   N603    1.156   .     T
C583   N604    1.157   .     T
C583   C596    1.455   .     S
C584   O611    1.300   .     A
C584   O610    1.303   .     A
C585   N605    1.157   .     T
C586   N606    1.158   .     T
C587   N607    1.158   .     T
C588   N608    1.158   .     T
C589   N600    1.158   .     T
C590   O616    1.293   .     A
C590   C592    1.408   .     S
C590   O613    1.292   .     A
C591   O614    1.292   .     A
C591   C593    1.408   .     S
C591   O615    1.293   .     A
C593   C988    1.190   .     S
C595   C618    1.395   .     S
C596   C638    1.395   .     S
Cu597  N599    2.026   .     S
Cu597  O615    1.932   .     S
Cu597  Cu598   2.696   .     S
Cu597  O613    1.930   .     S
Cu597  O609    1.984   .     S
Cu597  O611    1.992   .     S
Cu598  O616    1.932   .     S
Cu598  O612    1.992   .     S
Cu598  O614    1.930   .     S
Cu598  N601    2.026   .     S
Cu598  O610    1.984   .     S
C617   O653    1.303   .     A
C617   C620    1.476   .     S
C617   O656    1.300   .     A
C618   C620    1.414   .     A
C618   C629    1.455   .     S
C619   C640    1.414   .     A
C619   C628    1.476   .     S
C619   C639    1.416   .     A
C620   C638    1.416   .     A
C621   C630    1.445   .     S
C621   N645    1.372   .     A
C622   C631    1.445   .     S
C622   N643    1.372   .     A
C622   C755    1.426   .     S
C623   N645    1.372   .     A
C623   C632    1.444   .     S
C624   C633    1.444   .     S
C624   N643    1.372   .     A
C624   C753    1.426   .     S
C625   N646    1.156   .     T
C625   C638    1.450   .     S
C626   C639    1.450   .     S
C626   N647    1.156   .     T
C627   N648    1.157   .     T
C627   C640    1.455   .     S
C628   O655    1.300   .     A
C628   O654    1.303   .     A
C629   N649    1.157   .     T
C630   N650    1.158   .     T
C631   N651    1.158   .     T
C632   N652    1.158   .     T
C633   N644    1.158   .     T
C634   O660    1.293   .     A
C634   C636    1.408   .     S
C634   O657    1.292   .     A
C635   O658    1.292   .     A
C635   C637    1.408   .     S
C635   O659    1.293   .     A
C637   C1032   1.190   .     S
C639   C530    1.395   1_655 S
C640   C550    1.395   1_655 S
Cu641  N643    2.026   .     S
Cu641  O659    1.932   .     S
Cu641  Cu642   2.696   .     S
Cu641  O657    1.930   .     S
Cu641  O653    1.984   .     S
Cu641  O655    1.992   .     S
Cu642  O660    1.932   .     S
Cu642  O656    1.992   .     S
Cu642  O658    1.930   .     S
Cu642  N645    2.026   .     S
Cu642  O654    1.984   .     S
C661   O697    1.303   .     A
C661   C664    1.476   .     S
C661   O700    1.300   .     A
C662   C664    1.414   .     A
C662   C673    1.455   .     S
C662   C771    1.395   1_455 S
C663   C684    1.414   .     A
C663   C672    1.476   .     S
C663   C683    1.416   .     A
C664   C682    1.416   .     A
C665   C674    1.445   .     S
C665   N689    1.372   .     A
C666   C675    1.445   .     S
C666   N687    1.372   .     A
C666   C403    1.426   1_565 S
C667   N689    1.372   .     A
C667   C676    1.444   .     S
C668   C677    1.444   .     S
C668   N687    1.372   .     A
C668   C401    1.426   1_565 S
C669   N690    1.156   .     T
C669   C682    1.450   .     S
C670   C683    1.450   .     S
C670   N691    1.156   .     T
C671   N692    1.157   .     T
C671   C684    1.455   .     S
C672   O699    1.300   .     A
C672   O698    1.303   .     A
C673   N693    1.157   .     T
C674   N694    1.158   .     T
C675   N695    1.158   .     T
C676   N696    1.158   .     T
C677   N688    1.158   .     T
C678   O704    1.293   .     A
C678   C680    1.408   .     S
C678   O701    1.292   .     A
C679   O702    1.292   .     A
C679   C681    1.408   .     S
C679   O703    1.293   .     A
C681   C1076   1.190   .     S
C682   C772    1.395   1_455 S
C683   C706    1.395   .     S
C684   C726    1.395   .     S
Cu685  N687    2.026   .     S
Cu685  O703    1.932   .     S
Cu685  Cu686   2.696   .     S
Cu685  O701    1.930   .     S
Cu685  O697    1.984   .     S
Cu685  O699    1.992   .     S
Cu686  O704    1.932   .     S
Cu686  O700    1.992   .     S
Cu686  O702    1.930   .     S
Cu686  N689    2.026   .     S
Cu686  O698    1.984   .     S
C705   O741    1.303   .     A
C705   C708    1.476   .     S
C705   O744    1.300   .     A
C706   C708    1.414   .     A
C706   C717    1.455   .     S
C707   C728    1.414   .     A
C707   C716    1.476   .     S
C707   C727    1.416   .     A
C708   C726    1.416   .     A
C709   C718    1.445   .     S
C709   N733    1.372   .     A
C710   C719    1.445   .     S
C710   N731    1.372   .     A
C710   C447    1.426   1_565 S
C711   N733    1.372   .     A
C711   C720    1.444   .     S
C712   C721    1.444   .     S
C712   N731    1.372   .     A
C712   C445    1.426   1_565 S
C713   N734    1.156   .     T
C713   C726    1.450   .     S
C714   C727    1.450   .     S
C714   N735    1.156   .     T
C715   N736    1.157   .     T
C715   C728    1.455   .     S
C716   O743    1.300   .     A
C716   O742    1.303   .     A
C717   N737    1.157   .     T
C718   N738    1.158   .     T
C719   N739    1.158   .     T
C720   N740    1.158   .     T
C721   N732    1.158   .     T
C722   O748    1.293   .     A
C722   C724    1.408   .     S
C722   O745    1.292   .     A
C723   O746    1.292   .     A
C723   C725    1.408   .     S
C723   O747    1.293   .     A
C725   C1120   1.190   .     S
C727   C750    1.395   .     S
C728   C770    1.395   .     S
Cu729  N731    2.026   .     S
Cu729  O747    1.932   .     S
Cu729  Cu730   2.696   .     S
Cu729  O745    1.930   .     S
Cu729  O741    1.984   .     S
Cu729  O743    1.992   .     S
Cu730  O748    1.932   .     S
Cu730  O744    1.992   .     S
Cu730  O746    1.930   .     S
Cu730  N733    2.026   .     S
Cu730  O742    1.984   .     S
C749   O785    1.303   .     A
C749   C752    1.476   .     S
C749   O788    1.300   .     A
C750   C752    1.414   .     A
C750   C761    1.455   .     S
C751   C772    1.414   .     A
C751   C760    1.476   .     S
C751   C771    1.416   .     A
C752   C770    1.416   .     A
C753   C762    1.445   .     S
C753   N777    1.372   .     A
C754   C763    1.445   .     S
C754   N775    1.372   .     A
C754   C491    1.426   1_565 S
C755   N777    1.372   .     A
C755   C764    1.444   .     S
C756   C765    1.444   .     S
C756   N775    1.372   .     A
C756   C489    1.426   1_565 S
C757   N778    1.156   .     T
C757   C770    1.450   .     S
C758   C771    1.450   .     S
C758   N779    1.156   .     T
C759   N780    1.157   .     T
C759   C772    1.455   .     S
C760   O787    1.300   .     A
C760   O786    1.303   .     A
C761   N781    1.157   .     T
C762   N782    1.158   .     T
C763   N783    1.158   .     T
C764   N784    1.158   .     T
C765   N776    1.158   .     T
C766   O792    1.293   .     A
C766   C768    1.408   .     S
C766   O789    1.292   .     A
C767   O790    1.292   .     A
C767   C769    1.408   .     S
C767   O791    1.293   .     A
C769   C1164   1.190   .     S
C771   C662    1.395   1_655 S
C772   C682    1.395   1_655 S
Cu773  N775    2.026   .     S
Cu773  O791    1.932   .     S
Cu773  Cu774   2.696   .     S
Cu773  O789    1.930   .     S
Cu773  O785    1.984   .     S
Cu773  O787    1.992   .     S
Cu774  O792    1.932   .     S
Cu774  O788    1.992   .     S
Cu774  O790    1.930   .     S
Cu774  N777    2.026   .     S
Cu774  O786    1.984   .     S
C793   O829    1.303   .     A
C793   C796    1.476   .     S
C793   O832    1.300   .     A
C794   C796    1.414   .     A
C794   C805    1.455   .     S
C794   C903    1.395   1_455 S
C795   C816    1.414   .     A
C795   C804    1.476   .     S
C795   C815    1.416   .     A
C796   C814    1.416   .     A
C797   C806    1.445   .     S
C797   N821    1.372   .     A
C797   C1064   1.426   1_545 S
C798   C807    1.445   .     S
C798   N819    1.372   .     A
C798   C931    1.426   .     S
C799   N821    1.372   .     A
C799   C808    1.444   .     S
C799   C1062   1.426   1_545 S
C800   C809    1.444   .     S
C800   N819    1.372   .     A
C800   C929    1.426   .     S
C801   N822    1.156   .     T
C801   C814    1.450   .     S
C802   C815    1.450   .     S
C802   N823    1.156   .     T
C803   N824    1.157   .     T
C803   C816    1.455   .     S
C804   O831    1.300   .     A
C804   O830    1.303   .     A
C805   N825    1.157   .     T
C806   N826    1.158   .     T
C807   N827    1.158   .     T
C808   N828    1.158   .     T
C809   N820    1.158   .     T
C810   O836    1.293   .     A
C810   C812    1.408   .     S
C810   O833    1.292   .     A
C811   O834    1.292   .     A
C811   C813    1.408   .     S
C811   O835    1.293   .     A
C813   C20     1.190   1_556 S
C814   C904    1.395   1_455 S
C815   C838    1.395   .     S
C816   C858    1.395   .     S
Cu817  N819    2.026   .     S
Cu817  O835    1.932   .     S
Cu817  Cu818   2.696   .     S
Cu817  O833    1.930   .     S
Cu817  O829    1.984   .     S
Cu817  O831    1.992   .     S
Cu818  O836    1.932   .     S
Cu818  O832    1.992   .     S
Cu818  O834    1.930   .     S
Cu818  N821    2.026   .     S
Cu818  O830    1.984   .     S
C837   O873    1.303   .     A
C837   C840    1.476   .     S
C837   O876    1.300   .     A
C838   C840    1.414   .     A
C838   C849    1.455   .     S
C839   C860    1.414   .     A
C839   C848    1.476   .     S
C839   C859    1.416   .     A
C840   C858    1.416   .     A
C841   C850    1.445   .     S
C841   N865    1.372   .     A
C841   C1108   1.426   1_545 S
C842   C851    1.445   .     S
C842   N863    1.372   .     A
C842   C975    1.426   .     S
C843   N865    1.372   .     A
C843   C852    1.444   .     S
C843   C1106   1.426   1_545 S
C844   C853    1.444   .     S
C844   N863    1.372   .     A
C844   C973    1.426   .     S
C845   N866    1.156   .     T
C845   C858    1.450   .     S
C846   C859    1.450   .     S
C846   N867    1.156   .     T
C847   N868    1.157   .     T
C847   C860    1.455   .     S
C848   O875    1.300   .     A
C848   O874    1.303   .     A
C849   N869    1.157   .     T
C850   N870    1.158   .     T
C851   N871    1.158   .     T
C852   N872    1.158   .     T
C853   N864    1.158   .     T
C854   O880    1.293   .     A
C854   C856    1.408   .     S
C854   O877    1.292   .     A
C855   O878    1.292   .     A
C855   C857    1.408   .     S
C855   O879    1.293   .     A
C857   C64     1.190   1_556 S
C859   C882    1.395   .     S
C860   C902    1.395   .     S
Cu861  N863    2.026   .     S
Cu861  O879    1.932   .     S
Cu861  Cu862   2.696   .     S
Cu861  O877    1.930   .     S
Cu861  O873    1.984   .     S
Cu861  O875    1.992   .     S
Cu862  O880    1.932   .     S
Cu862  O876    1.992   .     S
Cu862  O878    1.930   .     S
Cu862  N865    2.026   .     S
Cu862  O874    1.984   .     S
C881   O917    1.303   .     A
C881   C884    1.476   .     S
C881   O920    1.300   .     A
C882   C884    1.414   .     A
C882   C893    1.455   .     S
C883   C904    1.414   .     A
C883   C892    1.476   .     S
C883   C903    1.416   .     A
C884   C902    1.416   .     A
C885   C894    1.445   .     S
C885   N909    1.372   .     A
C885   C1152   1.426   1_545 S
C886   C895    1.445   .     S
C886   N907    1.372   .     A
C886   C1019   1.426   .     S
C887   N909    1.372   .     A
C887   C896    1.444   .     S
C887   C1150   1.426   1_545 S
C888   C897    1.444   .     S
C888   N907    1.372   .     A
C888   C1017   1.426   .     S
C889   N910    1.156   .     T
C889   C902    1.450   .     S
C890   C903    1.450   .     S
C890   N911    1.156   .     T
C891   N912    1.157   .     T
C891   C904    1.455   .     S
C892   O919    1.300   .     A
C892   O918    1.303   .     A
C893   N913    1.157   .     T
C894   N914    1.158   .     T
C895   N915    1.158   .     T
C896   N916    1.158   .     T
C897   N908    1.158   .     T
C898   O924    1.293   .     A
C898   C900    1.408   .     S
C898   O921    1.292   .     A
C899   O922    1.292   .     A
C899   C901    1.408   .     S
C899   O923    1.293   .     A
C901   C108    1.190   1_556 S
C903   C794    1.395   1_655 S
C904   C814    1.395   1_655 S
Cu905  N907    2.026   .     S
Cu905  O923    1.932   .     S
Cu905  Cu906   2.696   .     S
Cu905  O921    1.930   .     S
Cu905  O917    1.984   .     S
Cu905  O919    1.992   .     S
Cu906  O924    1.932   .     S
Cu906  O920    1.992   .     S
Cu906  O922    1.930   .     S
Cu906  N909    2.026   .     S
Cu906  O918    1.984   .     S
C925   O961    1.303   .     A
C925   C928    1.476   .     S
C925   O964    1.300   .     A
C926   C928    1.414   .     A
C926   C937    1.455   .     S
C926   C1035   1.395   1_455 S
C927   C948    1.414   .     A
C927   C936    1.476   .     S
C927   C947    1.416   .     A
C928   C946    1.416   .     A
C929   C938    1.445   .     S
C929   N953    1.372   .     A
C930   C939    1.445   .     S
C930   N951    1.372   .     A
C930   C1063   1.426   .     S
C931   N953    1.372   .     A
C931   C940    1.444   .     S
C932   C941    1.444   .     S
C932   N951    1.372   .     A
C932   C1061   1.426   .     S
C933   N954    1.156   .     T
C933   C946    1.450   .     S
C934   C947    1.450   .     S
C934   N955    1.156   .     T
C935   N956    1.157   .     T
C935   C948    1.455   .     S
C936   O963    1.300   .     A
C936   O962    1.303   .     A
C937   N957    1.157   .     T
C938   N958    1.158   .     T
C939   N959    1.158   .     T
C940   N960    1.158   .     T
C941   N952    1.158   .     T
C942   O968    1.293   .     A
C942   C944    1.408   .     S
C942   O965    1.292   .     A
C943   O966    1.292   .     A
C943   C945    1.408   .     S
C943   O967    1.293   .     A
C945   C152    1.190   1_556 S
C946   C1036   1.395   1_455 S
C947   C970    1.395   .     S
C948   C990    1.395   .     S
Cu949  N951    2.026   .     S
Cu949  O967    1.932   .     S
Cu949  Cu950   2.696   .     S
Cu949  O965    1.930   .     S
Cu949  O961    1.984   .     S
Cu949  O963    1.992   .     S
Cu950  O968    1.932   .     S
Cu950  O964    1.992   .     S
Cu950  O966    1.930   .     S
Cu950  N953    2.026   .     S
Cu950  O962    1.984   .     S
C969   O1005   1.303   .     A
C969   C972    1.476   .     S
C969   O1008   1.300   .     A
C970   C972    1.414   .     A
C970   C981    1.455   .     S
C971   C992    1.414   .     A
C971   C980    1.476   .     S
C971   C991    1.416   .     A
C972   C990    1.416   .     A
C973   C982    1.445   .     S
C973   N997    1.372   .     A
C974   C983    1.445   .     S
C974   N995    1.372   .     A
C974   C1107   1.426   .     S
C975   N997    1.372   .     A
C975   C984    1.444   .     S
C976   C985    1.444   .     S
C976   N995    1.372   .     A
C976   C1105   1.426   .     S
C977   N998    1.156   .     T
C977   C990    1.450   .     S
C978   C991    1.450   .     S
C978   N999    1.156   .     T
C979   N1000   1.157   .     T
C979   C992    1.455   .     S
C980   O1007   1.300   .     A
C980   O1006   1.303   .     A
C981   N1001   1.157   .     T
C982   N1002   1.158   .     T
C983   N1003   1.158   .     T
C984   N1004   1.158   .     T
C985   N996    1.158   .     T
C986   O1012   1.293   .     A
C986   C988    1.408   .     S
C986   O1009   1.292   .     A
C987   O1010   1.292   .     A
C987   C989    1.408   .     S
C987   O1011   1.293   .     A
C989   C196    1.190   1_556 S
C991   C1014   1.395   .     S
C992   C1034   1.395   .     S
Cu993  N995    2.026   .     S
Cu993  O1011   1.932   .     S
Cu993  Cu994   2.696   .     S
Cu993  O1009   1.930   .     S
Cu993  O1005   1.984   .     S
Cu993  O1007   1.992   .     S
Cu994  O1012   1.932   .     S
Cu994  O1008   1.992   .     S
Cu994  O1010   1.930   .     S
Cu994  N997    2.026   .     S
Cu994  O1006   1.984   .     S
C1013  O1049   1.303   .     A
C1013  C1016   1.476   .     S
C1013  O1052   1.300   .     A
C1014  C1016   1.414   .     A
C1014  C1025   1.455   .     S
C1015  C1036   1.414   .     A
C1015  C1024   1.476   .     S
C1015  C1035   1.416   .     A
C1016  C1034   1.416   .     A
C1017  C1026   1.445   .     S
C1017  N1041   1.372   .     A
C1018  C1027   1.445   .     S
C1018  N1039   1.372   .     A
C1018  C1151   1.426   .     S
C1019  N1041   1.372   .     A
C1019  C1028   1.444   .     S
C1020  C1029   1.444   .     S
C1020  N1039   1.372   .     A
C1020  C1149   1.426   .     S
C1021  N1042   1.156   .     T
C1021  C1034   1.450   .     S
C1022  C1035   1.450   .     S
C1022  N1043   1.156   .     T
C1023  N1044   1.157   .     T
C1023  C1036   1.455   .     S
C1024  O1051   1.300   .     A
C1024  O1050   1.303   .     A
C1025  N1045   1.157   .     T
C1026  N1046   1.158   .     T
C1027  N1047   1.158   .     T
C1028  N1048   1.158   .     T
C1029  N1040   1.158   .     T
C1030  O1056   1.293   .     A
C1030  C1032   1.408   .     S
C1030  O1053   1.292   .     A
C1031  O1054   1.292   .     A
C1031  C1033   1.408   .     S
C1031  O1055   1.293   .     A
C1033  C240    1.190   1_556 S
C1035  C926    1.395   1_655 S
C1036  C946    1.395   1_655 S
Cu1037 N1039   2.026   .     S
Cu1037 O1055   1.932   .     S
Cu1037 Cu1038  2.696   .     S
Cu1037 O1053   1.930   .     S
Cu1037 O1049   1.984   .     S
Cu1037 O1051   1.992   .     S
Cu1038 O1056   1.932   .     S
Cu1038 O1052   1.992   .     S
Cu1038 O1054   1.930   .     S
Cu1038 N1041   2.026   .     S
Cu1038 O1050   1.984   .     S
C1057  O1093   1.303   .     A
C1057  C1060   1.476   .     S
C1057  O1096   1.300   .     A
C1058  C1060   1.414   .     A
C1058  C1069   1.455   .     S
C1058  C1167   1.395   1_455 S
C1059  C1080   1.414   .     A
C1059  C1068   1.476   .     S
C1059  C1079   1.416   .     A
C1060  C1078   1.416   .     A
C1061  C1070   1.445   .     S
C1061  N1085   1.372   .     A
C1062  C1071   1.445   .     S
C1062  N1083   1.372   .     A
C1062  C799    1.426   1_565 S
C1063  N1085   1.372   .     A
C1063  C1072   1.444   .     S
C1064  C1073   1.444   .     S
C1064  N1083   1.372   .     A
C1064  C797    1.426   1_565 S
C1065  N1086   1.156   .     T
C1065  C1078   1.450   .     S
C1066  C1079   1.450   .     S
C1066  N1087   1.156   .     T
C1067  N1088   1.157   .     T
C1067  C1080   1.455   .     S
C1068  O1095   1.300   .     A
C1068  O1094   1.303   .     A
C1069  N1089   1.157   .     T
C1070  N1090   1.158   .     T
C1071  N1091   1.158   .     T
C1072  N1092   1.158   .     T
C1073  N1084   1.158   .     T
C1074  O1100   1.293   .     A
C1074  C1076   1.408   .     S
C1074  O1097   1.292   .     A
C1075  O1098   1.292   .     A
C1075  C1077   1.408   .     S
C1075  O1099   1.293   .     A
C1077  C284    1.190   1_556 S
C1078  C1168   1.395   1_455 S
C1079  C1102   1.395   .     S
C1080  C1122   1.395   .     S
Cu1081 N1083   2.026   .     S
Cu1081 O1099   1.932   .     S
Cu1081 Cu1082  2.696   .     S
Cu1081 O1097   1.930   .     S
Cu1081 O1093   1.984   .     S
Cu1081 O1095   1.992   .     S
Cu1082 O1100   1.932   .     S
Cu1082 O1096   1.992   .     S
Cu1082 O1098   1.930   .     S
Cu1082 N1085   2.026   .     S
Cu1082 O1094   1.984   .     S
C1101  O1137   1.303   .     A
C1101  C1104   1.476   .     S
C1101  O1140   1.300   .     A
C1102  C1104   1.414   .     A
C1102  C1113   1.455   .     S
C1103  C1124   1.414   .     A
C1103  C1112   1.476   .     S
C1103  C1123   1.416   .     A
C1104  C1122   1.416   .     A
C1105  C1114   1.445   .     S
C1105  N1129   1.372   .     A
C1106  C1115   1.445   .     S
C1106  N1127   1.372   .     A
C1106  C843    1.426   1_565 S
C1107  N1129   1.372   .     A
C1107  C1116   1.444   .     S
C1108  C1117   1.444   .     S
C1108  N1127   1.372   .     A
C1108  C841    1.426   1_565 S
C1109  N1130   1.156   .     T
C1109  C1122   1.450   .     S
C1110  C1123   1.450   .     S
C1110  N1131   1.156   .     T
C1111  N1132   1.157   .     T
C1111  C1124   1.455   .     S
C1112  O1139   1.300   .     A
C1112  O1138   1.303   .     A
C1113  N1133   1.157   .     T
C1114  N1134   1.158   .     T
C1115  N1135   1.158   .     T
C1116  N1136   1.158   .     T
C1117  N1128   1.158   .     T
C1118  O1144   1.293   .     A
C1118  C1120   1.408   .     S
C1118  O1141   1.292   .     A
C1119  O1142   1.292   .     A
C1119  C1121   1.408   .     S
C1119  O1143   1.293   .     A
C1121  C328    1.190   1_556 S
C1123  C1146   1.395   .     S
C1124  C1166   1.395   .     S
Cu1125 N1127   2.026   .     S
Cu1125 O1143   1.932   .     S
Cu1125 Cu1126  2.696   .     S
Cu1125 O1141   1.930   .     S
Cu1125 O1137   1.984   .     S
Cu1125 O1139   1.992   .     S
Cu1126 O1144   1.932   .     S
Cu1126 O1140   1.992   .     S
Cu1126 O1142   1.930   .     S
Cu1126 N1129   2.026   .     S
Cu1126 O1138   1.984   .     S
C1145  O1181   1.303   .     A
C1145  C1148   1.476   .     S
C1145  O1184   1.300   .     A
C1146  C1148   1.414   .     A
C1146  C1157   1.455   .     S
C1147  C1168   1.414   .     A
C1147  C1156   1.476   .     S
C1147  C1167   1.416   .     A
C1148  C1166   1.416   .     A
C1149  C1158   1.445   .     S
C1149  N1173   1.372   .     A
C1150  C1159   1.445   .     S
C1150  N1171   1.372   .     A
C1150  C887    1.426   1_565 S
C1151  N1173   1.372   .     A
C1151  C1160   1.444   .     S
C1152  C1161   1.444   .     S
C1152  N1171   1.372   .     A
C1152  C885    1.426   1_565 S
C1153  N1174   1.156   .     T
C1153  C1166   1.450   .     S
C1154  C1167   1.450   .     S
C1154  N1175   1.156   .     T
C1155  N1176   1.157   .     T
C1155  C1168   1.455   .     S
C1156  O1183   1.300   .     A
C1156  O1182   1.303   .     A
C1157  N1177   1.157   .     T
C1158  N1178   1.158   .     T
C1159  N1179   1.158   .     T
C1160  N1180   1.158   .     T
C1161  N1172   1.158   .     T
C1162  O1188   1.293   .     A
C1162  C1164   1.408   .     S
C1162  O1185   1.292   .     A
C1163  O1186   1.292   .     A
C1163  C1165   1.408   .     S
C1163  O1187   1.293   .     A
C1165  C372    1.190   1_556 S
C1167  C1058   1.395   1_655 S
C1168  C1078   1.395   1_655 S
Cu1169 N1171   2.026   .     S
Cu1169 O1187   1.932   .     S
Cu1169 Cu1170  2.696   .     S
Cu1169 O1185   1.930   .     S
Cu1169 O1181   1.984   .     S
Cu1169 O1183   1.992   .     S
Cu1170 O1188   1.932   .     S
Cu1170 O1184   1.992   .     S
Cu1170 O1186   1.930   .     S
Cu1170 N1173   2.026   .     S
Cu1170 O1182   1.984   .     S
