data_str_m2_o1_o10_pcu_sym.30
_audit_creation_date              2020-01-03
_audit_creation_method            'Materials Studio'
_symmetry_space_group_name_H-M    'P1'
_symmetry_Int_Tables_number       1
_symmetry_cell_setting            triclinic
loop_
_symmetry_equiv_pos_as_xyz
  x,y,z
_cell_length_a                    26.2677
_cell_length_b                    32.4696
_cell_length_c                    28.5568
_cell_angle_alpha                 89.8326
_cell_angle_beta                  97.6458
_cell_angle_gamma                 90.5246
loop_
_atom_site_label
_atom_site_type_symbol
_atom_site_fract_x
_atom_site_fract_y
_atom_site_fract_z
_atom_site_U_iso_or_equiv
_atom_site_adp_type
_atom_site_occupancy
C1     C     0.16666   0.08736   0.16669   0.00000  Uiso   1.00
C2     C     0.16730   0.02118   0.20933   0.00000  Uiso   1.00
C3     C     0.16670   0.29059   0.16663   0.00000  Uiso   1.00
C4     C     0.16664   0.04275   0.16670   0.00000  Uiso   1.00
C5     C     0.13450   0.14109   0.02100   0.00000  Uiso   1.00
C6     C     0.19884   0.19224   0.31233   0.00000  Uiso   1.00
C7     C     0.13453   0.14103   0.30475   0.00000  Uiso   1.00
C8     C     0.19880   0.19231   0.02858   0.00000  Uiso   1.00
C9     C     0.32505   0.12919   0.11303   0.00000  Uiso   1.00
C10    C     0.31735   0.14065   0.06519   0.00000  Uiso   1.00
C11    C     0.29464   0.11294   0.03104   0.00000  Uiso   1.00
C12    C     0.16668   0.24597   0.16664   0.00000  Uiso   1.00
C13    C     0.28000   0.07358   0.04438   0.00000  Uiso   1.00
C14    C     0.28811   0.06181   0.09189   0.00000  Uiso   1.00
C15    C     0.31049   0.08949   0.12617   0.00000  Uiso   1.00
C16    C     0.00829   0.20414   0.22031   0.00000  Uiso   1.00
C17    C     0.02284   0.24384   0.20716   0.00000  Uiso   1.00
C18    C     0.04523   0.27153   0.24145   0.00000  Uiso   1.00
C19    C     0.05334   0.25976   0.28895   0.00000  Uiso   1.00
C20    C     0.03869   0.22039   0.30229   0.00000  Uiso   1.00
C21    C     0.01598   0.19268   0.26815   0.00000  Uiso   1.00
C22    C     0.06811   0.16567   0.15482   0.00000  Uiso   1.00
C23    C     0.26522   0.16767   0.17851   0.00000  Uiso   1.00
C24    C     0.01348   0.15924   0.14983   0.00000  Uiso   1.00
C25    C     0.31985   0.17409   0.18350   0.00000  Uiso   1.00
C26    C     0.16596   0.02141   0.12404   0.00000  Uiso   1.00
C27    C     0.16738   0.31193   0.20929   0.00000  Uiso   1.00
C28    C     0.16603   0.31215   0.12401   0.00000  Uiso   1.00
Cu29   Cu    0.16667   0.16667   0.21355   0.00000  Uiso   1.00
Cu30   Cu    0.16667   0.16666   0.11978   0.00000  Uiso   1.00
F31    F     0.10224   0.11519   0.27772   0.00000  Uiso   1.00
F32    F     0.23110   0.21815   0.05561   0.00000  Uiso   1.00
H33    H     0.16545   0.03752   0.09071   0.00000  Uiso   1.00
H34    H     0.27677   0.03131   0.10219   0.00000  Uiso   1.00
H35    H     0.31609   0.08021   0.16295   0.00000  Uiso   1.00
H36    H     0.01724   0.25313   0.17039   0.00000  Uiso   1.00
H37    H     0.05656   0.30202   0.23115   0.00000  Uiso   1.00
H38    H     0.07107   0.28110   0.31541   0.00000  Uiso   1.00
H39    H     0.04546   0.21127   0.00570   0.00000  Uiso   1.00
H40    H     0.00555   0.16206   0.27872   0.00000  Uiso   1.00
H41    H     0.16789   0.29581   0.24262   0.00000  Uiso   1.00
H42    H     0.16553   0.29622   0.09067   0.00000  Uiso   1.00
H43    H     0.16780   0.03711   0.24266   0.00000  Uiso   1.00
H44    H     0.10870   0.12065   0.03667   0.00000  Uiso   1.00
H45    H     0.22463   0.21268   0.29666   0.00000  Uiso   1.00
H46    H     0.32779   0.17127   0.05461   0.00000  Uiso   1.00
H47    H     0.28787   0.12206   0.32763   0.00000  Uiso   1.00
H48    H     0.26227   0.05224   0.01792   0.00000  Uiso   1.00
N49    N     0.16668   0.16668   0.28403   0.00000  Uiso   1.00
N50    N     0.16665   0.16666   0.04931   0.00000  Uiso   1.00
O51    O     0.16666   0.10655   0.20625   0.00000  Uiso   1.00
O52    O     0.16667   0.22678   0.12709   0.00000  Uiso   1.00
O53    O     0.16666   0.10654   0.12706   0.00000  Uiso   1.00
O54    O     0.16667   0.22679   0.20628   0.00000  Uiso   1.00
O55    O     0.09161   0.16667   0.19712   0.00000  Uiso   1.00
O56    O     0.24172   0.16666   0.13621   0.00000  Uiso   1.00
O57    O     0.09161   0.16666   0.11793   0.00000  Uiso   1.00
O58    O     0.24172   0.16667   0.21540   0.00000  Uiso   1.00
C59    C     0.49999   0.08736   0.16669   0.00000  Uiso   1.00
C60    C     0.50064   0.02118   0.20933   0.00000  Uiso   1.00
C61    C     0.50003   0.29059   0.16663   0.00000  Uiso   1.00
C62    C     0.49997   0.04275   0.16670   0.00000  Uiso   1.00
C63    C     0.46783   0.14109   0.02100   0.00000  Uiso   1.00
C64    C     0.53217   0.19224   0.31233   0.00000  Uiso   1.00
C65    C     0.46786   0.14103   0.30475   0.00000  Uiso   1.00
C66    C     0.53214   0.19231   0.02858   0.00000  Uiso   1.00
C67    C     0.65838   0.12919   0.11303   0.00000  Uiso   1.00
C68    C     0.65069   0.14065   0.06519   0.00000  Uiso   1.00
C69    C     0.62798   0.11294   0.03104   0.00000  Uiso   1.00
C70    C     0.50001   0.24597   0.16664   0.00000  Uiso   1.00
C71    C     0.61333   0.07358   0.04438   0.00000  Uiso   1.00
C72    C     0.62144   0.06181   0.09189   0.00000  Uiso   1.00
C73    C     0.64383   0.08949   0.12617   0.00000  Uiso   1.00
C74    C     0.34162   0.20414   0.22031   0.00000  Uiso   1.00
C75    C     0.35617   0.24384   0.20716   0.00000  Uiso   1.00
C76    C     0.37856   0.27153   0.24145   0.00000  Uiso   1.00
C77    C     0.38667   0.25976   0.28895   0.00000  Uiso   1.00
C78    C     0.37202   0.22039   0.30229   0.00000  Uiso   1.00
C79    C     0.34931   0.19268   0.26815   0.00000  Uiso   1.00
C80    C     0.40144   0.16567   0.15482   0.00000  Uiso   1.00
C81    C     0.59856   0.16767   0.17851   0.00000  Uiso   1.00
C82    C     0.34682   0.15924   0.14983   0.00000  Uiso   1.00
C83    C     0.65318   0.17409   0.18350   0.00000  Uiso   1.00
C84    C     0.49929   0.02141   0.12404   0.00000  Uiso   1.00
C85    C     0.50071   0.31193   0.20929   0.00000  Uiso   1.00
C86    C     0.49936   0.31215   0.12401   0.00000  Uiso   1.00
Cu87   Cu    0.50000   0.16667   0.21355   0.00000  Uiso   1.00
Cu88   Cu    0.50000   0.16666   0.11978   0.00000  Uiso   1.00
F89    F     0.43557   0.11519   0.27772   0.00000  Uiso   1.00
F90    F     0.56443   0.21815   0.05561   0.00000  Uiso   1.00
H91    H     0.49878   0.03752   0.09071   0.00000  Uiso   1.00
H92    H     0.61011   0.03131   0.10219   0.00000  Uiso   1.00
H93    H     0.64943   0.08021   0.16295   0.00000  Uiso   1.00
H94    H     0.35057   0.25313   0.17039   0.00000  Uiso   1.00
H95    H     0.38989   0.30202   0.23115   0.00000  Uiso   1.00
H96    H     0.40440   0.28110   0.31541   0.00000  Uiso   1.00
H97    H     0.37879   0.21127   0.00570   0.00000  Uiso   1.00
H98    H     0.33888   0.16206   0.27872   0.00000  Uiso   1.00
H99    H     0.50122   0.29581   0.24262   0.00000  Uiso   1.00
H100   H     0.49886   0.29622   0.09067   0.00000  Uiso   1.00
H101   H     0.50114   0.03711   0.24266   0.00000  Uiso   1.00
H102   H     0.44203   0.12065   0.03667   0.00000  Uiso   1.00
H103   H     0.55797   0.21268   0.29666   0.00000  Uiso   1.00
H104   H     0.66112   0.17127   0.05461   0.00000  Uiso   1.00
H105   H     0.62121   0.12206   0.32763   0.00000  Uiso   1.00
H106   H     0.59560   0.05224   0.01792   0.00000  Uiso   1.00
N107   N     0.50001   0.16668   0.28403   0.00000  Uiso   1.00
N108   N     0.49999   0.16666   0.04931   0.00000  Uiso   1.00
O109   O     0.50000   0.10655   0.20625   0.00000  Uiso   1.00
O110   O     0.50000   0.22678   0.12709   0.00000  Uiso   1.00
O111   O     0.50000   0.10654   0.12706   0.00000  Uiso   1.00
O112   O     0.50000   0.22679   0.20628   0.00000  Uiso   1.00
O113   O     0.42495   0.16667   0.19712   0.00000  Uiso   1.00
O114   O     0.57505   0.16666   0.13621   0.00000  Uiso   1.00
O115   O     0.42494   0.16666   0.11793   0.00000  Uiso   1.00
O116   O     0.57506   0.16667   0.21540   0.00000  Uiso   1.00
C117   C     0.83332   0.08736   0.16669   0.00000  Uiso   1.00
C118   C     0.83397   0.02118   0.20933   0.00000  Uiso   1.00
C119   C     0.83336   0.29059   0.16663   0.00000  Uiso   1.00
C120   C     0.83330   0.04275   0.16670   0.00000  Uiso   1.00
C121   C     0.80116   0.14109   0.02100   0.00000  Uiso   1.00
C122   C     0.86550   0.19224   0.31233   0.00000  Uiso   1.00
C123   C     0.80120   0.14103   0.30475   0.00000  Uiso   1.00
C124   C     0.86547   0.19231   0.02858   0.00000  Uiso   1.00
C125   C     0.99172   0.12919   0.11303   0.00000  Uiso   1.00
C126   C     0.98402   0.14065   0.06519   0.00000  Uiso   1.00
C127   C     0.96131   0.11294   0.03104   0.00000  Uiso   1.00
C128   C     0.83334   0.24597   0.16664   0.00000  Uiso   1.00
C129   C     0.94666   0.07358   0.04438   0.00000  Uiso   1.00
C130   C     0.95477   0.06181   0.09189   0.00000  Uiso   1.00
C131   C     0.97716   0.08949   0.12617   0.00000  Uiso   1.00
C132   C     0.67495   0.20414   0.22031   0.00000  Uiso   1.00
C133   C     0.68951   0.24384   0.20716   0.00000  Uiso   1.00
C134   C     0.71189   0.27153   0.24145   0.00000  Uiso   1.00
C135   C     0.72000   0.25976   0.28895   0.00000  Uiso   1.00
C136   C     0.70536   0.22039   0.30229   0.00000  Uiso   1.00
C137   C     0.68265   0.19268   0.26815   0.00000  Uiso   1.00
C138   C     0.73478   0.16567   0.15482   0.00000  Uiso   1.00
C139   C     0.93189   0.16767   0.17851   0.00000  Uiso   1.00
C140   C     0.68015   0.15924   0.14983   0.00000  Uiso   1.00
C141   C     0.98652   0.17409   0.18350   0.00000  Uiso   1.00
C142   C     0.83262   0.02141   0.12404   0.00000  Uiso   1.00
C143   C     0.83404   0.31193   0.20929   0.00000  Uiso   1.00
C144   C     0.83270   0.31215   0.12401   0.00000  Uiso   1.00
Cu145  Cu    0.83333   0.16667   0.21355   0.00000  Uiso   1.00
Cu146  Cu    0.83333   0.16666   0.11978   0.00000  Uiso   1.00
F147   F     0.76890   0.11519   0.27772   0.00000  Uiso   1.00
F148   F     0.89776   0.21815   0.05561   0.00000  Uiso   1.00
H149   H     0.83211   0.03752   0.09071   0.00000  Uiso   1.00
H150   H     0.94344   0.03131   0.10219   0.00000  Uiso   1.00
H151   H     0.98276   0.08021   0.16295   0.00000  Uiso   1.00
H152   H     0.68391   0.25313   0.17039   0.00000  Uiso   1.00
H153   H     0.72323   0.30202   0.23115   0.00000  Uiso   1.00
H154   H     0.73773   0.28110   0.31541   0.00000  Uiso   1.00
H155   H     0.71212   0.21127   0.00570   0.00000  Uiso   1.00
H156   H     0.67221   0.16206   0.27872   0.00000  Uiso   1.00
H157   H     0.83455   0.29581   0.24262   0.00000  Uiso   1.00
H158   H     0.83220   0.29622   0.09067   0.00000  Uiso   1.00
H159   H     0.83447   0.03711   0.24266   0.00000  Uiso   1.00
H160   H     0.77537   0.12065   0.03667   0.00000  Uiso   1.00
H161   H     0.89130   0.21268   0.29666   0.00000  Uiso   1.00
H162   H     0.99445   0.17127   0.05461   0.00000  Uiso   1.00
H163   H     0.95454   0.12206   0.32763   0.00000  Uiso   1.00
H164   H     0.92893   0.05224   0.01792   0.00000  Uiso   1.00
N165   N     0.83335   0.16668   0.28403   0.00000  Uiso   1.00
N166   N     0.83332   0.16666   0.04931   0.00000  Uiso   1.00
O167   O     0.83333   0.10655   0.20625   0.00000  Uiso   1.00
O168   O     0.83334   0.22678   0.12709   0.00000  Uiso   1.00
O169   O     0.83333   0.10654   0.12706   0.00000  Uiso   1.00
O170   O     0.83334   0.22679   0.20628   0.00000  Uiso   1.00
O171   O     0.75828   0.16667   0.19712   0.00000  Uiso   1.00
O172   O     0.90839   0.16666   0.13621   0.00000  Uiso   1.00
O173   O     0.75828   0.16666   0.11793   0.00000  Uiso   1.00
O174   O     0.90839   0.16667   0.21540   0.00000  Uiso   1.00
C175   C     0.16666   0.42069   0.16669   0.00000  Uiso   1.00
C176   C     0.16730   0.35451   0.20933   0.00000  Uiso   1.00
C177   C     0.16670   0.62392   0.16663   0.00000  Uiso   1.00
C178   C     0.16664   0.37608   0.16670   0.00000  Uiso   1.00
C179   C     0.13450   0.47442   0.02100   0.00000  Uiso   1.00
C180   C     0.19884   0.52557   0.31233   0.00000  Uiso   1.00
C181   C     0.13453   0.47436   0.30475   0.00000  Uiso   1.00
C182   C     0.19880   0.52564   0.02858   0.00000  Uiso   1.00
C183   C     0.32505   0.46252   0.11303   0.00000  Uiso   1.00
C184   C     0.31735   0.47398   0.06519   0.00000  Uiso   1.00
C185   C     0.29464   0.44627   0.03104   0.00000  Uiso   1.00
C186   C     0.16668   0.57930   0.16664   0.00000  Uiso   1.00
C187   C     0.28000   0.40691   0.04438   0.00000  Uiso   1.00
C188   C     0.28811   0.39514   0.09189   0.00000  Uiso   1.00
C189   C     0.31049   0.42282   0.12617   0.00000  Uiso   1.00
C190   C     0.00829   0.53748   0.22031   0.00000  Uiso   1.00
C191   C     0.02284   0.57718   0.20716   0.00000  Uiso   1.00
C192   C     0.04523   0.60486   0.24145   0.00000  Uiso   1.00
C193   C     0.05334   0.59309   0.28895   0.00000  Uiso   1.00
C194   C     0.03869   0.55373   0.30229   0.00000  Uiso   1.00
C195   C     0.01598   0.52602   0.26815   0.00000  Uiso   1.00
C196   C     0.06811   0.49900   0.15482   0.00000  Uiso   1.00
C197   C     0.26522   0.50100   0.17851   0.00000  Uiso   1.00
C198   C     0.01348   0.49257   0.14983   0.00000  Uiso   1.00
C199   C     0.31985   0.50743   0.18350   0.00000  Uiso   1.00
C200   C     0.16596   0.35474   0.12404   0.00000  Uiso   1.00
C201   C     0.16738   0.64526   0.20929   0.00000  Uiso   1.00
C202   C     0.16603   0.64549   0.12401   0.00000  Uiso   1.00
Cu203  Cu    0.16667   0.50001   0.21355   0.00000  Uiso   1.00
Cu204  Cu    0.16667   0.49999   0.11978   0.00000  Uiso   1.00
F205   F     0.10224   0.44852   0.27772   0.00000  Uiso   1.00
F206   F     0.23110   0.55148   0.05561   0.00000  Uiso   1.00
H207   H     0.16545   0.37085   0.09071   0.00000  Uiso   1.00
H208   H     0.27677   0.36465   0.10219   0.00000  Uiso   1.00
H209   H     0.31609   0.41354   0.16295   0.00000  Uiso   1.00
H210   H     0.01724   0.58646   0.17039   0.00000  Uiso   1.00
H211   H     0.05656   0.63535   0.23115   0.00000  Uiso   1.00
H212   H     0.07107   0.61443   0.31541   0.00000  Uiso   1.00
H213   H     0.04546   0.54460   0.00570   0.00000  Uiso   1.00
H214   H     0.00555   0.49539   0.27872   0.00000  Uiso   1.00
H215   H     0.16789   0.62915   0.24262   0.00000  Uiso   1.00
H216   H     0.16553   0.62956   0.09067   0.00000  Uiso   1.00
H217   H     0.16780   0.37044   0.24266   0.00000  Uiso   1.00
H218   H     0.10870   0.45398   0.03667   0.00000  Uiso   1.00
H219   H     0.22463   0.54602   0.29666   0.00000  Uiso   1.00
H220   H     0.32779   0.50461   0.05461   0.00000  Uiso   1.00
H221   H     0.28787   0.45540   0.32763   0.00000  Uiso   1.00
H222   H     0.26227   0.38557   0.01792   0.00000  Uiso   1.00
N223   N     0.16668   0.50001   0.28403   0.00000  Uiso   1.00
N224   N     0.16665   0.49999   0.04931   0.00000  Uiso   1.00
O225   O     0.16666   0.43989   0.20625   0.00000  Uiso   1.00
O226   O     0.16667   0.56011   0.12709   0.00000  Uiso   1.00
O227   O     0.16666   0.43988   0.12706   0.00000  Uiso   1.00
O228   O     0.16667   0.56012   0.20628   0.00000  Uiso   1.00
O229   O     0.09161   0.50000   0.19712   0.00000  Uiso   1.00
O230   O     0.24172   0.50000   0.13621   0.00000  Uiso   1.00
O231   O     0.09161   0.49999   0.11793   0.00000  Uiso   1.00
O232   O     0.24172   0.50001   0.21540   0.00000  Uiso   1.00
C233   C     0.49999   0.42069   0.16669   0.00000  Uiso   1.00
C234   C     0.50064   0.35451   0.20933   0.00000  Uiso   1.00
C235   C     0.50003   0.62392   0.16663   0.00000  Uiso   1.00
C236   C     0.49997   0.37608   0.16670   0.00000  Uiso   1.00
C237   C     0.46783   0.47442   0.02100   0.00000  Uiso   1.00
C238   C     0.53217   0.52557   0.31233   0.00000  Uiso   1.00
C239   C     0.46786   0.47436   0.30475   0.00000  Uiso   1.00
C240   C     0.53214   0.52564   0.02858   0.00000  Uiso   1.00
C241   C     0.65838   0.46252   0.11303   0.00000  Uiso   1.00
C242   C     0.65069   0.47398   0.06519   0.00000  Uiso   1.00
C243   C     0.62798   0.44627   0.03104   0.00000  Uiso   1.00
C244   C     0.50001   0.57930   0.16664   0.00000  Uiso   1.00
C245   C     0.61333   0.40691   0.04438   0.00000  Uiso   1.00
C246   C     0.62144   0.39514   0.09189   0.00000  Uiso   1.00
C247   C     0.64383   0.42282   0.12617   0.00000  Uiso   1.00
C248   C     0.34162   0.53748   0.22031   0.00000  Uiso   1.00
C249   C     0.35617   0.57718   0.20716   0.00000  Uiso   1.00
C250   C     0.37856   0.60486   0.24145   0.00000  Uiso   1.00
C251   C     0.38667   0.59309   0.28895   0.00000  Uiso   1.00
C252   C     0.37202   0.55373   0.30229   0.00000  Uiso   1.00
C253   C     0.34931   0.52602   0.26815   0.00000  Uiso   1.00
C254   C     0.40144   0.49900   0.15482   0.00000  Uiso   1.00
C255   C     0.59856   0.50100   0.17851   0.00000  Uiso   1.00
C256   C     0.34682   0.49257   0.14983   0.00000  Uiso   1.00
C257   C     0.65318   0.50743   0.18350   0.00000  Uiso   1.00
C258   C     0.49929   0.35474   0.12404   0.00000  Uiso   1.00
C259   C     0.50071   0.64526   0.20929   0.00000  Uiso   1.00
C260   C     0.49936   0.64549   0.12401   0.00000  Uiso   1.00
Cu261  Cu    0.50000   0.50001   0.21355   0.00000  Uiso   1.00
Cu262  Cu    0.50000   0.49999   0.11978   0.00000  Uiso   1.00
F263   F     0.43557   0.44852   0.27772   0.00000  Uiso   1.00
F264   F     0.56443   0.55148   0.05561   0.00000  Uiso   1.00
H265   H     0.49878   0.37085   0.09071   0.00000  Uiso   1.00
H266   H     0.61011   0.36465   0.10219   0.00000  Uiso   1.00
H267   H     0.64943   0.41354   0.16295   0.00000  Uiso   1.00
H268   H     0.35057   0.58646   0.17039   0.00000  Uiso   1.00
H269   H     0.38989   0.63535   0.23115   0.00000  Uiso   1.00
H270   H     0.40440   0.61443   0.31541   0.00000  Uiso   1.00
H271   H     0.37879   0.54460   0.00570   0.00000  Uiso   1.00
H272   H     0.33888   0.49539   0.27872   0.00000  Uiso   1.00
H273   H     0.50122   0.62915   0.24262   0.00000  Uiso   1.00
H274   H     0.49886   0.62956   0.09067   0.00000  Uiso   1.00
H275   H     0.50114   0.37044   0.24266   0.00000  Uiso   1.00
H276   H     0.44203   0.45398   0.03667   0.00000  Uiso   1.00
H277   H     0.55797   0.54602   0.29666   0.00000  Uiso   1.00
H278   H     0.66112   0.50461   0.05461   0.00000  Uiso   1.00
H279   H     0.62121   0.45540   0.32763   0.00000  Uiso   1.00
H280   H     0.59560   0.38557   0.01792   0.00000  Uiso   1.00
N281   N     0.50001   0.50001   0.28403   0.00000  Uiso   1.00
N282   N     0.49999   0.49999   0.04931   0.00000  Uiso   1.00
O283   O     0.50000   0.43989   0.20625   0.00000  Uiso   1.00
O284   O     0.50000   0.56011   0.12709   0.00000  Uiso   1.00
O285   O     0.50000   0.43988   0.12706   0.00000  Uiso   1.00
O286   O     0.50000   0.56012   0.20628   0.00000  Uiso   1.00
O287   O     0.42495   0.50000   0.19712   0.00000  Uiso   1.00
O288   O     0.57505   0.50000   0.13621   0.00000  Uiso   1.00
O289   O     0.42494   0.49999   0.11793   0.00000  Uiso   1.00
O290   O     0.57506   0.50001   0.21540   0.00000  Uiso   1.00
C291   C     0.83332   0.42069   0.16669   0.00000  Uiso   1.00
C292   C     0.83397   0.35451   0.20933   0.00000  Uiso   1.00
C293   C     0.83336   0.62392   0.16663   0.00000  Uiso   1.00
C294   C     0.83330   0.37608   0.16670   0.00000  Uiso   1.00
C295   C     0.80116   0.47442   0.02100   0.00000  Uiso   1.00
C296   C     0.86550   0.52557   0.31233   0.00000  Uiso   1.00
C297   C     0.80120   0.47436   0.30475   0.00000  Uiso   1.00
C298   C     0.86547   0.52564   0.02858   0.00000  Uiso   1.00
C299   C     0.99172   0.46252   0.11303   0.00000  Uiso   1.00
C300   C     0.98402   0.47398   0.06519   0.00000  Uiso   1.00
C301   C     0.96131   0.44627   0.03104   0.00000  Uiso   1.00
C302   C     0.83334   0.57930   0.16664   0.00000  Uiso   1.00
C303   C     0.94666   0.40691   0.04438   0.00000  Uiso   1.00
C304   C     0.95477   0.39514   0.09189   0.00000  Uiso   1.00
C305   C     0.97716   0.42282   0.12617   0.00000  Uiso   1.00
C306   C     0.67495   0.53748   0.22031   0.00000  Uiso   1.00
C307   C     0.68951   0.57718   0.20716   0.00000  Uiso   1.00
C308   C     0.71189   0.60486   0.24145   0.00000  Uiso   1.00
C309   C     0.72000   0.59309   0.28895   0.00000  Uiso   1.00
C310   C     0.70536   0.55373   0.30229   0.00000  Uiso   1.00
C311   C     0.68265   0.52602   0.26815   0.00000  Uiso   1.00
C312   C     0.73478   0.49900   0.15482   0.00000  Uiso   1.00
C313   C     0.93189   0.50100   0.17851   0.00000  Uiso   1.00
C314   C     0.68015   0.49257   0.14983   0.00000  Uiso   1.00
C315   C     0.98652   0.50743   0.18350   0.00000  Uiso   1.00
C316   C     0.83262   0.35474   0.12404   0.00000  Uiso   1.00
C317   C     0.83404   0.64526   0.20929   0.00000  Uiso   1.00
C318   C     0.83270   0.64549   0.12401   0.00000  Uiso   1.00
Cu319  Cu    0.83333   0.50001   0.21355   0.00000  Uiso   1.00
Cu320  Cu    0.83333   0.49999   0.11978   0.00000  Uiso   1.00
F321   F     0.76890   0.44852   0.27772   0.00000  Uiso   1.00
F322   F     0.89776   0.55148   0.05561   0.00000  Uiso   1.00
H323   H     0.83211   0.37085   0.09071   0.00000  Uiso   1.00
H324   H     0.94344   0.36465   0.10219   0.00000  Uiso   1.00
H325   H     0.98276   0.41354   0.16295   0.00000  Uiso   1.00
H326   H     0.68391   0.58646   0.17039   0.00000  Uiso   1.00
H327   H     0.72323   0.63535   0.23115   0.00000  Uiso   1.00
H328   H     0.73773   0.61443   0.31541   0.00000  Uiso   1.00
H329   H     0.71212   0.54460   0.00570   0.00000  Uiso   1.00
H330   H     0.67221   0.49539   0.27872   0.00000  Uiso   1.00
H331   H     0.83455   0.62915   0.24262   0.00000  Uiso   1.00
H332   H     0.83220   0.62956   0.09067   0.00000  Uiso   1.00
H333   H     0.83447   0.37044   0.24266   0.00000  Uiso   1.00
H334   H     0.77537   0.45398   0.03667   0.00000  Uiso   1.00
H335   H     0.89130   0.54602   0.29666   0.00000  Uiso   1.00
H336   H     0.99445   0.50461   0.05461   0.00000  Uiso   1.00
H337   H     0.95454   0.45540   0.32763   0.00000  Uiso   1.00
H338   H     0.92893   0.38557   0.01792   0.00000  Uiso   1.00
N339   N     0.83335   0.50001   0.28403   0.00000  Uiso   1.00
N340   N     0.83332   0.49999   0.04931   0.00000  Uiso   1.00
O341   O     0.83333   0.43989   0.20625   0.00000  Uiso   1.00
O342   O     0.83334   0.56011   0.12709   0.00000  Uiso   1.00
O343   O     0.83333   0.43988   0.12706   0.00000  Uiso   1.00
O344   O     0.83334   0.56012   0.20628   0.00000  Uiso   1.00
O345   O     0.75828   0.50000   0.19712   0.00000  Uiso   1.00
O346   O     0.90839   0.50000   0.13621   0.00000  Uiso   1.00
O347   O     0.75828   0.49999   0.11793   0.00000  Uiso   1.00
O348   O     0.90839   0.50001   0.21540   0.00000  Uiso   1.00
C349   C     0.16666   0.75403   0.16669   0.00000  Uiso   1.00
C350   C     0.16730   0.68785   0.20933   0.00000  Uiso   1.00
C351   C     0.16670   0.95725   0.16663   0.00000  Uiso   1.00
C352   C     0.16664   0.70941   0.16670   0.00000  Uiso   1.00
C353   C     0.13450   0.80776   0.02100   0.00000  Uiso   1.00
C354   C     0.19884   0.85891   0.31233   0.00000  Uiso   1.00
C355   C     0.13453   0.80769   0.30475   0.00000  Uiso   1.00
C356   C     0.19880   0.85897   0.02858   0.00000  Uiso   1.00
C357   C     0.32505   0.79586   0.11303   0.00000  Uiso   1.00
C358   C     0.31735   0.80732   0.06519   0.00000  Uiso   1.00
C359   C     0.29464   0.77961   0.03104   0.00000  Uiso   1.00
C360   C     0.16668   0.91264   0.16664   0.00000  Uiso   1.00
C361   C     0.28000   0.74024   0.04438   0.00000  Uiso   1.00
C362   C     0.28811   0.72847   0.09189   0.00000  Uiso   1.00
C363   C     0.31049   0.75616   0.12617   0.00000  Uiso   1.00
C364   C     0.00829   0.87081   0.22031   0.00000  Uiso   1.00
C365   C     0.02284   0.91051   0.20716   0.00000  Uiso   1.00
C366   C     0.04523   0.93819   0.24145   0.00000  Uiso   1.00
C367   C     0.05334   0.92642   0.28895   0.00000  Uiso   1.00
C368   C     0.03869   0.88706   0.30229   0.00000  Uiso   1.00
C369   C     0.01598   0.85935   0.26815   0.00000  Uiso   1.00
C370   C     0.06811   0.83233   0.15482   0.00000  Uiso   1.00
C371   C     0.26522   0.83433   0.17851   0.00000  Uiso   1.00
C372   C     0.01348   0.82591   0.14983   0.00000  Uiso   1.00
C373   C     0.31985   0.84076   0.18350   0.00000  Uiso   1.00
C374   C     0.16596   0.68807   0.12404   0.00000  Uiso   1.00
C375   C     0.16738   0.97859   0.20929   0.00000  Uiso   1.00
C376   C     0.16603   0.97882   0.12401   0.00000  Uiso   1.00
Cu377  Cu    0.16667   0.83334   0.21355   0.00000  Uiso   1.00
Cu378  Cu    0.16667   0.83333   0.11978   0.00000  Uiso   1.00
F379   F     0.10224   0.78185   0.27772   0.00000  Uiso   1.00
F380   F     0.23110   0.88481   0.05561   0.00000  Uiso   1.00
H381   H     0.16545   0.70419   0.09071   0.00000  Uiso   1.00
H382   H     0.27677   0.69798   0.10219   0.00000  Uiso   1.00
H383   H     0.31609   0.74687   0.16295   0.00000  Uiso   1.00
H384   H     0.01724   0.91979   0.17039   0.00000  Uiso   1.00
H385   H     0.05656   0.96869   0.23115   0.00000  Uiso   1.00
H386   H     0.07107   0.94776   0.31541   0.00000  Uiso   1.00
H387   H     0.04546   0.87794   0.00570   0.00000  Uiso   1.00
H388   H     0.00555   0.82873   0.27872   0.00000  Uiso   1.00
H389   H     0.16789   0.96248   0.24262   0.00000  Uiso   1.00
H390   H     0.16553   0.96289   0.09067   0.00000  Uiso   1.00
H391   H     0.16780   0.70378   0.24266   0.00000  Uiso   1.00
H392   H     0.10870   0.78732   0.03667   0.00000  Uiso   1.00
H393   H     0.22463   0.87935   0.29666   0.00000  Uiso   1.00
H394   H     0.32779   0.83794   0.05461   0.00000  Uiso   1.00
H395   H     0.28787   0.78873   0.32763   0.00000  Uiso   1.00
H396   H     0.26227   0.71890   0.01792   0.00000  Uiso   1.00
N397   N     0.16668   0.83334   0.28403   0.00000  Uiso   1.00
N398   N     0.16665   0.83332   0.04931   0.00000  Uiso   1.00
O399   O     0.16666   0.77322   0.20625   0.00000  Uiso   1.00
O400   O     0.16667   0.89345   0.12709   0.00000  Uiso   1.00
O401   O     0.16666   0.77321   0.12706   0.00000  Uiso   1.00
O402   O     0.16667   0.89346   0.20628   0.00000  Uiso   1.00
O403   O     0.09161   0.83334   0.19712   0.00000  Uiso   1.00
O404   O     0.24172   0.83333   0.13621   0.00000  Uiso   1.00
O405   O     0.09161   0.83333   0.11793   0.00000  Uiso   1.00
O406   O     0.24172   0.83334   0.21540   0.00000  Uiso   1.00
C407   C     0.49999   0.75403   0.16669   0.00000  Uiso   1.00
C408   C     0.50064   0.68785   0.20933   0.00000  Uiso   1.00
C409   C     0.50003   0.95725   0.16663   0.00000  Uiso   1.00
C410   C     0.49997   0.70941   0.16670   0.00000  Uiso   1.00
C411   C     0.46783   0.80776   0.02100   0.00000  Uiso   1.00
C412   C     0.53217   0.85891   0.31233   0.00000  Uiso   1.00
C413   C     0.46786   0.80769   0.30475   0.00000  Uiso   1.00
C414   C     0.53214   0.85897   0.02858   0.00000  Uiso   1.00
C415   C     0.65838   0.79586   0.11303   0.00000  Uiso   1.00
C416   C     0.65069   0.80732   0.06519   0.00000  Uiso   1.00
C417   C     0.62798   0.77961   0.03104   0.00000  Uiso   1.00
C418   C     0.50001   0.91264   0.16664   0.00000  Uiso   1.00
C419   C     0.61333   0.74024   0.04438   0.00000  Uiso   1.00
C420   C     0.62144   0.72847   0.09189   0.00000  Uiso   1.00
C421   C     0.64383   0.75616   0.12617   0.00000  Uiso   1.00
C422   C     0.34162   0.87081   0.22031   0.00000  Uiso   1.00
C423   C     0.35617   0.91051   0.20716   0.00000  Uiso   1.00
C424   C     0.37856   0.93819   0.24145   0.00000  Uiso   1.00
C425   C     0.38667   0.92642   0.28895   0.00000  Uiso   1.00
C426   C     0.37202   0.88706   0.30229   0.00000  Uiso   1.00
C427   C     0.34931   0.85935   0.26815   0.00000  Uiso   1.00
C428   C     0.40144   0.83233   0.15482   0.00000  Uiso   1.00
C429   C     0.59856   0.83433   0.17851   0.00000  Uiso   1.00
C430   C     0.34682   0.82591   0.14983   0.00000  Uiso   1.00
C431   C     0.65318   0.84076   0.18350   0.00000  Uiso   1.00
C432   C     0.49929   0.68807   0.12404   0.00000  Uiso   1.00
C433   C     0.50071   0.97859   0.20929   0.00000  Uiso   1.00
C434   C     0.49936   0.97882   0.12401   0.00000  Uiso   1.00
Cu435  Cu    0.50000   0.83334   0.21355   0.00000  Uiso   1.00
Cu436  Cu    0.50000   0.83333   0.11978   0.00000  Uiso   1.00
F437   F     0.43557   0.78185   0.27772   0.00000  Uiso   1.00
F438   F     0.56443   0.88481   0.05561   0.00000  Uiso   1.00
H439   H     0.49878   0.70419   0.09071   0.00000  Uiso   1.00
H440   H     0.61011   0.69798   0.10219   0.00000  Uiso   1.00
H441   H     0.64943   0.74687   0.16295   0.00000  Uiso   1.00
H442   H     0.35057   0.91979   0.17039   0.00000  Uiso   1.00
H443   H     0.38989   0.96869   0.23115   0.00000  Uiso   1.00
H444   H     0.40440   0.94776   0.31541   0.00000  Uiso   1.00
H445   H     0.37879   0.87794   0.00570   0.00000  Uiso   1.00
H446   H     0.33888   0.82873   0.27872   0.00000  Uiso   1.00
H447   H     0.50122   0.96248   0.24262   0.00000  Uiso   1.00
H448   H     0.49886   0.96289   0.09067   0.00000  Uiso   1.00
H449   H     0.50114   0.70378   0.24266   0.00000  Uiso   1.00
H450   H     0.44203   0.78732   0.03667   0.00000  Uiso   1.00
H451   H     0.55797   0.87935   0.29666   0.00000  Uiso   1.00
H452   H     0.66112   0.83794   0.05461   0.00000  Uiso   1.00
H453   H     0.62121   0.78873   0.32763   0.00000  Uiso   1.00
H454   H     0.59560   0.71890   0.01792   0.00000  Uiso   1.00
N455   N     0.50001   0.83334   0.28403   0.00000  Uiso   1.00
N456   N     0.49999   0.83332   0.04931   0.00000  Uiso   1.00
O457   O     0.50000   0.77322   0.20625   0.00000  Uiso   1.00
O458   O     0.50000   0.89345   0.12709   0.00000  Uiso   1.00
O459   O     0.50000   0.77321   0.12706   0.00000  Uiso   1.00
O460   O     0.50000   0.89346   0.20628   0.00000  Uiso   1.00
O461   O     0.42495   0.83334   0.19712   0.00000  Uiso   1.00
O462   O     0.57505   0.83333   0.13621   0.00000  Uiso   1.00
O463   O     0.42494   0.83333   0.11793   0.00000  Uiso   1.00
O464   O     0.57506   0.83334   0.21540   0.00000  Uiso   1.00
C465   C     0.83332   0.75403   0.16669   0.00000  Uiso   1.00
C466   C     0.83397   0.68785   0.20933   0.00000  Uiso   1.00
C467   C     0.83336   0.95725   0.16663   0.00000  Uiso   1.00
C468   C     0.83330   0.70941   0.16670   0.00000  Uiso   1.00
C469   C     0.80116   0.80776   0.02100   0.00000  Uiso   1.00
C470   C     0.86550   0.85891   0.31233   0.00000  Uiso   1.00
C471   C     0.80120   0.80769   0.30475   0.00000  Uiso   1.00
C472   C     0.86547   0.85897   0.02858   0.00000  Uiso   1.00
C473   C     0.99172   0.79586   0.11303   0.00000  Uiso   1.00
C474   C     0.98402   0.80732   0.06519   0.00000  Uiso   1.00
C475   C     0.96131   0.77961   0.03104   0.00000  Uiso   1.00
C476   C     0.83334   0.91264   0.16664   0.00000  Uiso   1.00
C477   C     0.94666   0.74024   0.04438   0.00000  Uiso   1.00
C478   C     0.95477   0.72847   0.09189   0.00000  Uiso   1.00
C479   C     0.97716   0.75616   0.12617   0.00000  Uiso   1.00
C480   C     0.67495   0.87081   0.22031   0.00000  Uiso   1.00
C481   C     0.68951   0.91051   0.20716   0.00000  Uiso   1.00
C482   C     0.71189   0.93819   0.24145   0.00000  Uiso   1.00
C483   C     0.72000   0.92642   0.28895   0.00000  Uiso   1.00
C484   C     0.70536   0.88706   0.30229   0.00000  Uiso   1.00
C485   C     0.68265   0.85935   0.26815   0.00000  Uiso   1.00
C486   C     0.73478   0.83233   0.15482   0.00000  Uiso   1.00
C487   C     0.93189   0.83433   0.17851   0.00000  Uiso   1.00
C488   C     0.68015   0.82591   0.14983   0.00000  Uiso   1.00
C489   C     0.98652   0.84076   0.18350   0.00000  Uiso   1.00
C490   C     0.83262   0.68807   0.12404   0.00000  Uiso   1.00
C491   C     0.83404   0.97859   0.20929   0.00000  Uiso   1.00
C492   C     0.83270   0.97882   0.12401   0.00000  Uiso   1.00
Cu493  Cu    0.83333   0.83334   0.21355   0.00000  Uiso   1.00
Cu494  Cu    0.83333   0.83333   0.11978   0.00000  Uiso   1.00
F495   F     0.76890   0.78185   0.27772   0.00000  Uiso   1.00
F496   F     0.89776   0.88481   0.05561   0.00000  Uiso   1.00
H497   H     0.83211   0.70419   0.09071   0.00000  Uiso   1.00
H498   H     0.94344   0.69798   0.10219   0.00000  Uiso   1.00
H499   H     0.98276   0.74687   0.16295   0.00000  Uiso   1.00
H500   H     0.68391   0.91979   0.17039   0.00000  Uiso   1.00
H501   H     0.72323   0.96869   0.23115   0.00000  Uiso   1.00
H502   H     0.73773   0.94776   0.31541   0.00000  Uiso   1.00
H503   H     0.71212   0.87794   0.00570   0.00000  Uiso   1.00
H504   H     0.67221   0.82873   0.27872   0.00000  Uiso   1.00
H505   H     0.83455   0.96248   0.24262   0.00000  Uiso   1.00
H506   H     0.83220   0.96289   0.09067   0.00000  Uiso   1.00
H507   H     0.83447   0.70378   0.24266   0.00000  Uiso   1.00
H508   H     0.77537   0.78732   0.03667   0.00000  Uiso   1.00
H509   H     0.89130   0.87935   0.29666   0.00000  Uiso   1.00
H510   H     0.99445   0.83794   0.05461   0.00000  Uiso   1.00
H511   H     0.95454   0.78873   0.32763   0.00000  Uiso   1.00
H512   H     0.92893   0.71890   0.01792   0.00000  Uiso   1.00
N513   N     0.83335   0.83334   0.28403   0.00000  Uiso   1.00
N514   N     0.83332   0.83332   0.04931   0.00000  Uiso   1.00
O515   O     0.83333   0.77322   0.20625   0.00000  Uiso   1.00
O516   O     0.83334   0.89345   0.12709   0.00000  Uiso   1.00
O517   O     0.83333   0.77321   0.12706   0.00000  Uiso   1.00
O518   O     0.83334   0.89346   0.20628   0.00000  Uiso   1.00
O519   O     0.75828   0.83334   0.19712   0.00000  Uiso   1.00
O520   O     0.90839   0.83333   0.13621   0.00000  Uiso   1.00
O521   O     0.75828   0.83333   0.11793   0.00000  Uiso   1.00
O522   O     0.90839   0.83334   0.21540   0.00000  Uiso   1.00
C523   C     0.16666   0.08736   0.50002   0.00000  Uiso   1.00
C524   C     0.16730   0.02118   0.54266   0.00000  Uiso   1.00
C525   C     0.16670   0.29059   0.49996   0.00000  Uiso   1.00
C526   C     0.16664   0.04275   0.50004   0.00000  Uiso   1.00
C527   C     0.13450   0.14109   0.35434   0.00000  Uiso   1.00
C528   C     0.19884   0.19224   0.64566   0.00000  Uiso   1.00
C529   C     0.13453   0.14103   0.63809   0.00000  Uiso   1.00
C530   C     0.19880   0.19231   0.36191   0.00000  Uiso   1.00
C531   C     0.32505   0.12919   0.44636   0.00000  Uiso   1.00
C532   C     0.31735   0.14065   0.39852   0.00000  Uiso   1.00
C533   C     0.29464   0.11294   0.36438   0.00000  Uiso   1.00
C534   C     0.16668   0.24597   0.49998   0.00000  Uiso   1.00
C535   C     0.28000   0.07358   0.37771   0.00000  Uiso   1.00
C536   C     0.28811   0.06181   0.42522   0.00000  Uiso   1.00
C537   C     0.31049   0.08949   0.45950   0.00000  Uiso   1.00
C538   C     0.00829   0.20414   0.55364   0.00000  Uiso   1.00
C539   C     0.02284   0.24384   0.54050   0.00000  Uiso   1.00
C540   C     0.04523   0.27153   0.57478   0.00000  Uiso   1.00
C541   C     0.05334   0.25976   0.62229   0.00000  Uiso   1.00
C542   C     0.03869   0.22039   0.63562   0.00000  Uiso   1.00
C543   C     0.01598   0.19268   0.60148   0.00000  Uiso   1.00
C544   C     0.06811   0.16567   0.48816   0.00000  Uiso   1.00
C545   C     0.26522   0.16767   0.51184   0.00000  Uiso   1.00
C546   C     0.01348   0.15924   0.48316   0.00000  Uiso   1.00
C547   C     0.31985   0.17409   0.51684   0.00000  Uiso   1.00
C548   C     0.16596   0.02141   0.45738   0.00000  Uiso   1.00
C549   C     0.16738   0.31193   0.54262   0.00000  Uiso   1.00
C550   C     0.16603   0.31215   0.45734   0.00000  Uiso   1.00
Cu551  Cu    0.16667   0.16667   0.54689   0.00000  Uiso   1.00
Cu552  Cu    0.16667   0.16666   0.45311   0.00000  Uiso   1.00
F553   F     0.10224   0.11519   0.61105   0.00000  Uiso   1.00
F554   F     0.23110   0.21815   0.38895   0.00000  Uiso   1.00
H555   H     0.16545   0.03752   0.42404   0.00000  Uiso   1.00
H556   H     0.27677   0.03131   0.43552   0.00000  Uiso   1.00
H557   H     0.31609   0.08021   0.49628   0.00000  Uiso   1.00
H558   H     0.01724   0.25313   0.50372   0.00000  Uiso   1.00
H559   H     0.05656   0.30202   0.56448   0.00000  Uiso   1.00
H560   H     0.07107   0.28110   0.64875   0.00000  Uiso   1.00
H561   H     0.04546   0.21127   0.33903   0.00000  Uiso   1.00
H562   H     0.00555   0.16206   0.61206   0.00000  Uiso   1.00
H563   H     0.16789   0.29581   0.57596   0.00000  Uiso   1.00
H564   H     0.16553   0.29622   0.42400   0.00000  Uiso   1.00
H565   H     0.16780   0.03711   0.57600   0.00000  Uiso   1.00
H566   H     0.10870   0.12065   0.37000   0.00000  Uiso   1.00
H567   H     0.22463   0.21268   0.62999   0.00000  Uiso   1.00
H568   H     0.32779   0.17127   0.38794   0.00000  Uiso   1.00
H569   H     0.28787   0.12206   0.66097   0.00000  Uiso   1.00
H570   H     0.26227   0.05224   0.35125   0.00000  Uiso   1.00
N571   N     0.16668   0.16668   0.61736   0.00000  Uiso   1.00
N572   N     0.16665   0.16666   0.38264   0.00000  Uiso   1.00
O573   O     0.16666   0.10655   0.53958   0.00000  Uiso   1.00
O574   O     0.16667   0.22678   0.46042   0.00000  Uiso   1.00
O575   O     0.16666   0.10654   0.46039   0.00000  Uiso   1.00
O576   O     0.16667   0.22679   0.53961   0.00000  Uiso   1.00
O577   O     0.09161   0.16667   0.53046   0.00000  Uiso   1.00
O578   O     0.24172   0.16666   0.46954   0.00000  Uiso   1.00
O579   O     0.09161   0.16666   0.45127   0.00000  Uiso   1.00
O580   O     0.24172   0.16667   0.54873   0.00000  Uiso   1.00
C581   C     0.49999   0.08736   0.50002   0.00000  Uiso   1.00
C582   C     0.50064   0.02118   0.54266   0.00000  Uiso   1.00
C583   C     0.50003   0.29059   0.49996   0.00000  Uiso   1.00
C584   C     0.49997   0.04275   0.50004   0.00000  Uiso   1.00
C585   C     0.46783   0.14109   0.35434   0.00000  Uiso   1.00
C586   C     0.53217   0.19224   0.64566   0.00000  Uiso   1.00
C587   C     0.46786   0.14103   0.63809   0.00000  Uiso   1.00
C588   C     0.53214   0.19231   0.36191   0.00000  Uiso   1.00
C589   C     0.65838   0.12919   0.44636   0.00000  Uiso   1.00
C590   C     0.65069   0.14065   0.39852   0.00000  Uiso   1.00
C591   C     0.62798   0.11294   0.36438   0.00000  Uiso   1.00
C592   C     0.50001   0.24597   0.49998   0.00000  Uiso   1.00
C593   C     0.61333   0.07358   0.37771   0.00000  Uiso   1.00
C594   C     0.62144   0.06181   0.42522   0.00000  Uiso   1.00
C595   C     0.64383   0.08949   0.45950   0.00000  Uiso   1.00
C596   C     0.34162   0.20414   0.55364   0.00000  Uiso   1.00
C597   C     0.35617   0.24384   0.54050   0.00000  Uiso   1.00
C598   C     0.37856   0.27153   0.57478   0.00000  Uiso   1.00
C599   C     0.38667   0.25976   0.62229   0.00000  Uiso   1.00
C600   C     0.37202   0.22039   0.63562   0.00000  Uiso   1.00
C601   C     0.34931   0.19268   0.60148   0.00000  Uiso   1.00
C602   C     0.40144   0.16567   0.48816   0.00000  Uiso   1.00
C603   C     0.59856   0.16767   0.51184   0.00000  Uiso   1.00
C604   C     0.34682   0.15924   0.48316   0.00000  Uiso   1.00
C605   C     0.65318   0.17409   0.51684   0.00000  Uiso   1.00
C606   C     0.49929   0.02141   0.45738   0.00000  Uiso   1.00
C607   C     0.50071   0.31193   0.54262   0.00000  Uiso   1.00
C608   C     0.49936   0.31215   0.45734   0.00000  Uiso   1.00
Cu609  Cu    0.50000   0.16667   0.54689   0.00000  Uiso   1.00
Cu610  Cu    0.50000   0.16666   0.45311   0.00000  Uiso   1.00
F611   F     0.43557   0.11519   0.61105   0.00000  Uiso   1.00
F612   F     0.56443   0.21815   0.38895   0.00000  Uiso   1.00
H613   H     0.49878   0.03752   0.42404   0.00000  Uiso   1.00
H614   H     0.61011   0.03131   0.43552   0.00000  Uiso   1.00
H615   H     0.64943   0.08021   0.49628   0.00000  Uiso   1.00
H616   H     0.35057   0.25313   0.50372   0.00000  Uiso   1.00
H617   H     0.38989   0.30202   0.56448   0.00000  Uiso   1.00
H618   H     0.40440   0.28110   0.64875   0.00000  Uiso   1.00
H619   H     0.37879   0.21127   0.33903   0.00000  Uiso   1.00
H620   H     0.33888   0.16206   0.61206   0.00000  Uiso   1.00
H621   H     0.50122   0.29581   0.57596   0.00000  Uiso   1.00
H622   H     0.49886   0.29622   0.42400   0.00000  Uiso   1.00
H623   H     0.50114   0.03711   0.57600   0.00000  Uiso   1.00
H624   H     0.44203   0.12065   0.37000   0.00000  Uiso   1.00
H625   H     0.55797   0.21268   0.62999   0.00000  Uiso   1.00
H626   H     0.66112   0.17127   0.38794   0.00000  Uiso   1.00
H627   H     0.62121   0.12206   0.66097   0.00000  Uiso   1.00
H628   H     0.59560   0.05224   0.35125   0.00000  Uiso   1.00
N629   N     0.50001   0.16668   0.61736   0.00000  Uiso   1.00
N630   N     0.49999   0.16666   0.38264   0.00000  Uiso   1.00
O631   O     0.50000   0.10655   0.53958   0.00000  Uiso   1.00
O632   O     0.50000   0.22678   0.46042   0.00000  Uiso   1.00
O633   O     0.50000   0.10654   0.46039   0.00000  Uiso   1.00
O634   O     0.50000   0.22679   0.53961   0.00000  Uiso   1.00
O635   O     0.42495   0.16667   0.53046   0.00000  Uiso   1.00
O636   O     0.57505   0.16666   0.46954   0.00000  Uiso   1.00
O637   O     0.42494   0.16666   0.45127   0.00000  Uiso   1.00
O638   O     0.57506   0.16667   0.54873   0.00000  Uiso   1.00
C639   C     0.83332   0.08736   0.50002   0.00000  Uiso   1.00
C640   C     0.83397   0.02118   0.54266   0.00000  Uiso   1.00
C641   C     0.83336   0.29059   0.49996   0.00000  Uiso   1.00
C642   C     0.83330   0.04275   0.50004   0.00000  Uiso   1.00
C643   C     0.80116   0.14109   0.35434   0.00000  Uiso   1.00
C644   C     0.86550   0.19224   0.64566   0.00000  Uiso   1.00
C645   C     0.80120   0.14103   0.63809   0.00000  Uiso   1.00
C646   C     0.86547   0.19231   0.36191   0.00000  Uiso   1.00
C647   C     0.99172   0.12919   0.44636   0.00000  Uiso   1.00
C648   C     0.98402   0.14065   0.39852   0.00000  Uiso   1.00
C649   C     0.96131   0.11294   0.36438   0.00000  Uiso   1.00
C650   C     0.83334   0.24597   0.49998   0.00000  Uiso   1.00
C651   C     0.94666   0.07358   0.37771   0.00000  Uiso   1.00
C652   C     0.95477   0.06181   0.42522   0.00000  Uiso   1.00
C653   C     0.97716   0.08949   0.45950   0.00000  Uiso   1.00
C654   C     0.67495   0.20414   0.55364   0.00000  Uiso   1.00
C655   C     0.68951   0.24384   0.54050   0.00000  Uiso   1.00
C656   C     0.71189   0.27153   0.57478   0.00000  Uiso   1.00
C657   C     0.72000   0.25976   0.62229   0.00000  Uiso   1.00
C658   C     0.70536   0.22039   0.63562   0.00000  Uiso   1.00
C659   C     0.68265   0.19268   0.60148   0.00000  Uiso   1.00
C660   C     0.73478   0.16567   0.48816   0.00000  Uiso   1.00
C661   C     0.93189   0.16767   0.51184   0.00000  Uiso   1.00
C662   C     0.68015   0.15924   0.48316   0.00000  Uiso   1.00
C663   C     0.98652   0.17409   0.51684   0.00000  Uiso   1.00
C664   C     0.83262   0.02141   0.45738   0.00000  Uiso   1.00
C665   C     0.83404   0.31193   0.54262   0.00000  Uiso   1.00
C666   C     0.83270   0.31215   0.45734   0.00000  Uiso   1.00
Cu667  Cu    0.83333   0.16667   0.54689   0.00000  Uiso   1.00
Cu668  Cu    0.83333   0.16666   0.45311   0.00000  Uiso   1.00
F669   F     0.76890   0.11519   0.61105   0.00000  Uiso   1.00
F670   F     0.89776   0.21815   0.38895   0.00000  Uiso   1.00
H671   H     0.83211   0.03752   0.42404   0.00000  Uiso   1.00
H672   H     0.94344   0.03131   0.43552   0.00000  Uiso   1.00
H673   H     0.98276   0.08021   0.49628   0.00000  Uiso   1.00
H674   H     0.68391   0.25313   0.50372   0.00000  Uiso   1.00
H675   H     0.72323   0.30202   0.56448   0.00000  Uiso   1.00
H676   H     0.73773   0.28110   0.64875   0.00000  Uiso   1.00
H677   H     0.71212   0.21127   0.33903   0.00000  Uiso   1.00
H678   H     0.67221   0.16206   0.61206   0.00000  Uiso   1.00
H679   H     0.83455   0.29581   0.57596   0.00000  Uiso   1.00
H680   H     0.83220   0.29622   0.42400   0.00000  Uiso   1.00
H681   H     0.83447   0.03711   0.57600   0.00000  Uiso   1.00
H682   H     0.77537   0.12065   0.37000   0.00000  Uiso   1.00
H683   H     0.89130   0.21268   0.62999   0.00000  Uiso   1.00
H684   H     0.99445   0.17127   0.38794   0.00000  Uiso   1.00
H685   H     0.95454   0.12206   0.66097   0.00000  Uiso   1.00
H686   H     0.92893   0.05224   0.35125   0.00000  Uiso   1.00
N687   N     0.83335   0.16668   0.61736   0.00000  Uiso   1.00
N688   N     0.83332   0.16666   0.38264   0.00000  Uiso   1.00
O689   O     0.83333   0.10655   0.53958   0.00000  Uiso   1.00
O690   O     0.83334   0.22678   0.46042   0.00000  Uiso   1.00
O691   O     0.83333   0.10654   0.46039   0.00000  Uiso   1.00
O692   O     0.83334   0.22679   0.53961   0.00000  Uiso   1.00
O693   O     0.75828   0.16667   0.53046   0.00000  Uiso   1.00
O694   O     0.90839   0.16666   0.46954   0.00000  Uiso   1.00
O695   O     0.75828   0.16666   0.45127   0.00000  Uiso   1.00
O696   O     0.90839   0.16667   0.54873   0.00000  Uiso   1.00
C697   C     0.16666   0.42069   0.50002   0.00000  Uiso   1.00
C698   C     0.16730   0.35451   0.54266   0.00000  Uiso   1.00
C699   C     0.16670   0.62392   0.49996   0.00000  Uiso   1.00
C700   C     0.16664   0.37608   0.50004   0.00000  Uiso   1.00
C701   C     0.13450   0.47442   0.35434   0.00000  Uiso   1.00
C702   C     0.19884   0.52557   0.64566   0.00000  Uiso   1.00
C703   C     0.13453   0.47436   0.63809   0.00000  Uiso   1.00
C704   C     0.19880   0.52564   0.36191   0.00000  Uiso   1.00
C705   C     0.32505   0.46252   0.44636   0.00000  Uiso   1.00
C706   C     0.31735   0.47398   0.39852   0.00000  Uiso   1.00
C707   C     0.29464   0.44627   0.36438   0.00000  Uiso   1.00
C708   C     0.16668   0.57930   0.49998   0.00000  Uiso   1.00
C709   C     0.28000   0.40691   0.37771   0.00000  Uiso   1.00
C710   C     0.28811   0.39514   0.42522   0.00000  Uiso   1.00
C711   C     0.31049   0.42282   0.45950   0.00000  Uiso   1.00
C712   C     0.00829   0.53748   0.55364   0.00000  Uiso   1.00
C713   C     0.02284   0.57718   0.54050   0.00000  Uiso   1.00
C714   C     0.04523   0.60486   0.57478   0.00000  Uiso   1.00
C715   C     0.05334   0.59309   0.62229   0.00000  Uiso   1.00
C716   C     0.03869   0.55373   0.63562   0.00000  Uiso   1.00
C717   C     0.01598   0.52602   0.60148   0.00000  Uiso   1.00
C718   C     0.06811   0.49900   0.48816   0.00000  Uiso   1.00
C719   C     0.26522   0.50100   0.51184   0.00000  Uiso   1.00
C720   C     0.01348   0.49257   0.48316   0.00000  Uiso   1.00
C721   C     0.31985   0.50743   0.51684   0.00000  Uiso   1.00
C722   C     0.16596   0.35474   0.45738   0.00000  Uiso   1.00
C723   C     0.16738   0.64526   0.54262   0.00000  Uiso   1.00
C724   C     0.16603   0.64549   0.45734   0.00000  Uiso   1.00
Cu725  Cu    0.16667   0.50001   0.54689   0.00000  Uiso   1.00
Cu726  Cu    0.16667   0.49999   0.45311   0.00000  Uiso   1.00
F727   F     0.10224   0.44852   0.61105   0.00000  Uiso   1.00
F728   F     0.23110   0.55148   0.38895   0.00000  Uiso   1.00
H729   H     0.16545   0.37085   0.42404   0.00000  Uiso   1.00
H730   H     0.27677   0.36465   0.43552   0.00000  Uiso   1.00
H731   H     0.31609   0.41354   0.49628   0.00000  Uiso   1.00
H732   H     0.01724   0.58646   0.50372   0.00000  Uiso   1.00
H733   H     0.05656   0.63535   0.56448   0.00000  Uiso   1.00
H734   H     0.07107   0.61443   0.64875   0.00000  Uiso   1.00
H735   H     0.04546   0.54460   0.33903   0.00000  Uiso   1.00
H736   H     0.00555   0.49539   0.61206   0.00000  Uiso   1.00
H737   H     0.16789   0.62915   0.57596   0.00000  Uiso   1.00
H738   H     0.16553   0.62956   0.42400   0.00000  Uiso   1.00
H739   H     0.16780   0.37044   0.57600   0.00000  Uiso   1.00
H740   H     0.10870   0.45398   0.37000   0.00000  Uiso   1.00
H741   H     0.22463   0.54602   0.62999   0.00000  Uiso   1.00
H742   H     0.32779   0.50461   0.38794   0.00000  Uiso   1.00
H743   H     0.28787   0.45540   0.66097   0.00000  Uiso   1.00
H744   H     0.26227   0.38557   0.35125   0.00000  Uiso   1.00
N745   N     0.16668   0.50001   0.61736   0.00000  Uiso   1.00
N746   N     0.16665   0.49999   0.38264   0.00000  Uiso   1.00
O747   O     0.16666   0.43989   0.53958   0.00000  Uiso   1.00
O748   O     0.16667   0.56011   0.46042   0.00000  Uiso   1.00
O749   O     0.16666   0.43988   0.46039   0.00000  Uiso   1.00
O750   O     0.16667   0.56012   0.53961   0.00000  Uiso   1.00
O751   O     0.09161   0.50000   0.53046   0.00000  Uiso   1.00
O752   O     0.24172   0.50000   0.46954   0.00000  Uiso   1.00
O753   O     0.09161   0.49999   0.45127   0.00000  Uiso   1.00
O754   O     0.24172   0.50001   0.54873   0.00000  Uiso   1.00
C755   C     0.49999   0.42069   0.50002   0.00000  Uiso   1.00
C756   C     0.50064   0.35451   0.54266   0.00000  Uiso   1.00
C757   C     0.50003   0.62392   0.49996   0.00000  Uiso   1.00
C758   C     0.49997   0.37608   0.50004   0.00000  Uiso   1.00
C759   C     0.46783   0.47442   0.35434   0.00000  Uiso   1.00
C760   C     0.53217   0.52557   0.64566   0.00000  Uiso   1.00
C761   C     0.46786   0.47436   0.63809   0.00000  Uiso   1.00
C762   C     0.53214   0.52564   0.36191   0.00000  Uiso   1.00
C763   C     0.65838   0.46252   0.44636   0.00000  Uiso   1.00
C764   C     0.65069   0.47398   0.39852   0.00000  Uiso   1.00
C765   C     0.62798   0.44627   0.36438   0.00000  Uiso   1.00
C766   C     0.50001   0.57930   0.49998   0.00000  Uiso   1.00
C767   C     0.61333   0.40691   0.37771   0.00000  Uiso   1.00
C768   C     0.62144   0.39514   0.42522   0.00000  Uiso   1.00
C769   C     0.64383   0.42282   0.45950   0.00000  Uiso   1.00
C770   C     0.34162   0.53748   0.55364   0.00000  Uiso   1.00
C771   C     0.35617   0.57718   0.54050   0.00000  Uiso   1.00
C772   C     0.37856   0.60486   0.57478   0.00000  Uiso   1.00
C773   C     0.38667   0.59309   0.62229   0.00000  Uiso   1.00
C774   C     0.37202   0.55373   0.63562   0.00000  Uiso   1.00
C775   C     0.34931   0.52602   0.60148   0.00000  Uiso   1.00
C776   C     0.40144   0.49900   0.48816   0.00000  Uiso   1.00
C777   C     0.59856   0.50100   0.51184   0.00000  Uiso   1.00
C778   C     0.34682   0.49257   0.48316   0.00000  Uiso   1.00
C779   C     0.65318   0.50743   0.51684   0.00000  Uiso   1.00
C780   C     0.49929   0.35474   0.45738   0.00000  Uiso   1.00
C781   C     0.50071   0.64526   0.54262   0.00000  Uiso   1.00
C782   C     0.49936   0.64549   0.45734   0.00000  Uiso   1.00
Cu783  Cu    0.50000   0.50001   0.54689   0.00000  Uiso   1.00
Cu784  Cu    0.50000   0.49999   0.45311   0.00000  Uiso   1.00
F785   F     0.43557   0.44852   0.61105   0.00000  Uiso   1.00
F786   F     0.56443   0.55148   0.38895   0.00000  Uiso   1.00
H787   H     0.49878   0.37085   0.42404   0.00000  Uiso   1.00
H788   H     0.61011   0.36465   0.43552   0.00000  Uiso   1.00
H789   H     0.64943   0.41354   0.49628   0.00000  Uiso   1.00
H790   H     0.35057   0.58646   0.50372   0.00000  Uiso   1.00
H791   H     0.38989   0.63535   0.56448   0.00000  Uiso   1.00
H792   H     0.40440   0.61443   0.64875   0.00000  Uiso   1.00
H793   H     0.37879   0.54460   0.33903   0.00000  Uiso   1.00
H794   H     0.33888   0.49539   0.61206   0.00000  Uiso   1.00
H795   H     0.50122   0.62915   0.57596   0.00000  Uiso   1.00
H796   H     0.49886   0.62956   0.42400   0.00000  Uiso   1.00
H797   H     0.50114   0.37044   0.57600   0.00000  Uiso   1.00
H798   H     0.44203   0.45398   0.37000   0.00000  Uiso   1.00
H799   H     0.55797   0.54602   0.62999   0.00000  Uiso   1.00
H800   H     0.66112   0.50461   0.38794   0.00000  Uiso   1.00
H801   H     0.62121   0.45540   0.66097   0.00000  Uiso   1.00
H802   H     0.59560   0.38557   0.35125   0.00000  Uiso   1.00
N803   N     0.50001   0.50001   0.61736   0.00000  Uiso   1.00
N804   N     0.49999   0.49999   0.38264   0.00000  Uiso   1.00
O805   O     0.50000   0.43989   0.53958   0.00000  Uiso   1.00
O806   O     0.50000   0.56011   0.46042   0.00000  Uiso   1.00
O807   O     0.50000   0.43988   0.46039   0.00000  Uiso   1.00
O808   O     0.50000   0.56012   0.53961   0.00000  Uiso   1.00
O809   O     0.42495   0.50000   0.53046   0.00000  Uiso   1.00
O810   O     0.57505   0.50000   0.46954   0.00000  Uiso   1.00
O811   O     0.42494   0.49999   0.45127   0.00000  Uiso   1.00
O812   O     0.57506   0.50001   0.54873   0.00000  Uiso   1.00
C813   C     0.83332   0.42069   0.50002   0.00000  Uiso   1.00
C814   C     0.83397   0.35451   0.54266   0.00000  Uiso   1.00
C815   C     0.83336   0.62392   0.49996   0.00000  Uiso   1.00
C816   C     0.83330   0.37608   0.50004   0.00000  Uiso   1.00
C817   C     0.80116   0.47442   0.35434   0.00000  Uiso   1.00
C818   C     0.86550   0.52557   0.64566   0.00000  Uiso   1.00
C819   C     0.80120   0.47436   0.63809   0.00000  Uiso   1.00
C820   C     0.86547   0.52564   0.36191   0.00000  Uiso   1.00
C821   C     0.99172   0.46252   0.44636   0.00000  Uiso   1.00
C822   C     0.98402   0.47398   0.39852   0.00000  Uiso   1.00
C823   C     0.96131   0.44627   0.36438   0.00000  Uiso   1.00
C824   C     0.83334   0.57930   0.49998   0.00000  Uiso   1.00
C825   C     0.94666   0.40691   0.37771   0.00000  Uiso   1.00
C826   C     0.95477   0.39514   0.42522   0.00000  Uiso   1.00
C827   C     0.97716   0.42282   0.45950   0.00000  Uiso   1.00
C828   C     0.67495   0.53748   0.55364   0.00000  Uiso   1.00
C829   C     0.68951   0.57718   0.54050   0.00000  Uiso   1.00
C830   C     0.71189   0.60486   0.57478   0.00000  Uiso   1.00
C831   C     0.72000   0.59309   0.62229   0.00000  Uiso   1.00
C832   C     0.70536   0.55373   0.63562   0.00000  Uiso   1.00
C833   C     0.68265   0.52602   0.60148   0.00000  Uiso   1.00
C834   C     0.73478   0.49900   0.48816   0.00000  Uiso   1.00
C835   C     0.93189   0.50100   0.51184   0.00000  Uiso   1.00
C836   C     0.68015   0.49257   0.48316   0.00000  Uiso   1.00
C837   C     0.98652   0.50743   0.51684   0.00000  Uiso   1.00
C838   C     0.83262   0.35474   0.45738   0.00000  Uiso   1.00
C839   C     0.83404   0.64526   0.54262   0.00000  Uiso   1.00
C840   C     0.83270   0.64549   0.45734   0.00000  Uiso   1.00
Cu841  Cu    0.83333   0.50001   0.54689   0.00000  Uiso   1.00
Cu842  Cu    0.83333   0.49999   0.45311   0.00000  Uiso   1.00
F843   F     0.76890   0.44852   0.61105   0.00000  Uiso   1.00
F844   F     0.89776   0.55148   0.38895   0.00000  Uiso   1.00
H845   H     0.83211   0.37085   0.42404   0.00000  Uiso   1.00
H846   H     0.94344   0.36465   0.43552   0.00000  Uiso   1.00
H847   H     0.98276   0.41354   0.49628   0.00000  Uiso   1.00
H848   H     0.68391   0.58646   0.50372   0.00000  Uiso   1.00
H849   H     0.72323   0.63535   0.56448   0.00000  Uiso   1.00
H850   H     0.73773   0.61443   0.64875   0.00000  Uiso   1.00
H851   H     0.71212   0.54460   0.33903   0.00000  Uiso   1.00
H852   H     0.67221   0.49539   0.61206   0.00000  Uiso   1.00
H853   H     0.83455   0.62915   0.57596   0.00000  Uiso   1.00
H854   H     0.83220   0.62956   0.42400   0.00000  Uiso   1.00
H855   H     0.83447   0.37044   0.57600   0.00000  Uiso   1.00
H856   H     0.77537   0.45398   0.37000   0.00000  Uiso   1.00
H857   H     0.89130   0.54602   0.62999   0.00000  Uiso   1.00
H858   H     0.99445   0.50461   0.38794   0.00000  Uiso   1.00
H859   H     0.95454   0.45540   0.66097   0.00000  Uiso   1.00
H860   H     0.92893   0.38557   0.35125   0.00000  Uiso   1.00
N861   N     0.83335   0.50001   0.61736   0.00000  Uiso   1.00
N862   N     0.83332   0.49999   0.38264   0.00000  Uiso   1.00
O863   O     0.83333   0.43989   0.53958   0.00000  Uiso   1.00
O864   O     0.83334   0.56011   0.46042   0.00000  Uiso   1.00
O865   O     0.83333   0.43988   0.46039   0.00000  Uiso   1.00
O866   O     0.83334   0.56012   0.53961   0.00000  Uiso   1.00
O867   O     0.75828   0.50000   0.53046   0.00000  Uiso   1.00
O868   O     0.90839   0.50000   0.46954   0.00000  Uiso   1.00
O869   O     0.75828   0.49999   0.45127   0.00000  Uiso   1.00
O870   O     0.90839   0.50001   0.54873   0.00000  Uiso   1.00
C871   C     0.16666   0.75403   0.50002   0.00000  Uiso   1.00
C872   C     0.16730   0.68785   0.54266   0.00000  Uiso   1.00
C873   C     0.16670   0.95725   0.49996   0.00000  Uiso   1.00
C874   C     0.16664   0.70941   0.50004   0.00000  Uiso   1.00
C875   C     0.13450   0.80776   0.35434   0.00000  Uiso   1.00
C876   C     0.19884   0.85891   0.64566   0.00000  Uiso   1.00
C877   C     0.13453   0.80769   0.63809   0.00000  Uiso   1.00
C878   C     0.19880   0.85897   0.36191   0.00000  Uiso   1.00
C879   C     0.32505   0.79586   0.44636   0.00000  Uiso   1.00
C880   C     0.31735   0.80732   0.39852   0.00000  Uiso   1.00
C881   C     0.29464   0.77961   0.36438   0.00000  Uiso   1.00
C882   C     0.16668   0.91264   0.49998   0.00000  Uiso   1.00
C883   C     0.28000   0.74024   0.37771   0.00000  Uiso   1.00
C884   C     0.28811   0.72847   0.42522   0.00000  Uiso   1.00
C885   C     0.31049   0.75616   0.45950   0.00000  Uiso   1.00
C886   C     0.00829   0.87081   0.55364   0.00000  Uiso   1.00
C887   C     0.02284   0.91051   0.54050   0.00000  Uiso   1.00
C888   C     0.04523   0.93819   0.57478   0.00000  Uiso   1.00
C889   C     0.05334   0.92642   0.62229   0.00000  Uiso   1.00
C890   C     0.03869   0.88706   0.63562   0.00000  Uiso   1.00
C891   C     0.01598   0.85935   0.60148   0.00000  Uiso   1.00
C892   C     0.06811   0.83233   0.48816   0.00000  Uiso   1.00
C893   C     0.26522   0.83433   0.51184   0.00000  Uiso   1.00
C894   C     0.01348   0.82591   0.48316   0.00000  Uiso   1.00
C895   C     0.31985   0.84076   0.51684   0.00000  Uiso   1.00
C896   C     0.16596   0.68807   0.45738   0.00000  Uiso   1.00
C897   C     0.16738   0.97859   0.54262   0.00000  Uiso   1.00
C898   C     0.16603   0.97882   0.45734   0.00000  Uiso   1.00
Cu899  Cu    0.16667   0.83334   0.54689   0.00000  Uiso   1.00
Cu900  Cu    0.16667   0.83333   0.45311   0.00000  Uiso   1.00
F901   F     0.10224   0.78185   0.61105   0.00000  Uiso   1.00
F902   F     0.23110   0.88481   0.38895   0.00000  Uiso   1.00
H903   H     0.16545   0.70419   0.42404   0.00000  Uiso   1.00
H904   H     0.27677   0.69798   0.43552   0.00000  Uiso   1.00
H905   H     0.31609   0.74687   0.49628   0.00000  Uiso   1.00
H906   H     0.01724   0.91979   0.50372   0.00000  Uiso   1.00
H907   H     0.05656   0.96869   0.56448   0.00000  Uiso   1.00
H908   H     0.07107   0.94776   0.64875   0.00000  Uiso   1.00
H909   H     0.04546   0.87794   0.33903   0.00000  Uiso   1.00
H910   H     0.00555   0.82873   0.61206   0.00000  Uiso   1.00
H911   H     0.16789   0.96248   0.57596   0.00000  Uiso   1.00
H912   H     0.16553   0.96289   0.42400   0.00000  Uiso   1.00
H913   H     0.16780   0.70378   0.57600   0.00000  Uiso   1.00
H914   H     0.10870   0.78732   0.37000   0.00000  Uiso   1.00
H915   H     0.22463   0.87935   0.62999   0.00000  Uiso   1.00
H916   H     0.32779   0.83794   0.38794   0.00000  Uiso   1.00
H917   H     0.28787   0.78873   0.66097   0.00000  Uiso   1.00
H918   H     0.26227   0.71890   0.35125   0.00000  Uiso   1.00
N919   N     0.16668   0.83334   0.61736   0.00000  Uiso   1.00
N920   N     0.16665   0.83332   0.38264   0.00000  Uiso   1.00
O921   O     0.16666   0.77322   0.53958   0.00000  Uiso   1.00
O922   O     0.16667   0.89345   0.46042   0.00000  Uiso   1.00
O923   O     0.16666   0.77321   0.46039   0.00000  Uiso   1.00
O924   O     0.16667   0.89346   0.53961   0.00000  Uiso   1.00
O925   O     0.09161   0.83334   0.53046   0.00000  Uiso   1.00
O926   O     0.24172   0.83333   0.46954   0.00000  Uiso   1.00
O927   O     0.09161   0.83333   0.45127   0.00000  Uiso   1.00
O928   O     0.24172   0.83334   0.54873   0.00000  Uiso   1.00
C929   C     0.49999   0.75403   0.50002   0.00000  Uiso   1.00
C930   C     0.50064   0.68785   0.54266   0.00000  Uiso   1.00
C931   C     0.50003   0.95725   0.49996   0.00000  Uiso   1.00
C932   C     0.49997   0.70941   0.50004   0.00000  Uiso   1.00
C933   C     0.46783   0.80776   0.35434   0.00000  Uiso   1.00
C934   C     0.53217   0.85891   0.64566   0.00000  Uiso   1.00
C935   C     0.46786   0.80769   0.63809   0.00000  Uiso   1.00
C936   C     0.53214   0.85897   0.36191   0.00000  Uiso   1.00
C937   C     0.65838   0.79586   0.44636   0.00000  Uiso   1.00
C938   C     0.65069   0.80732   0.39852   0.00000  Uiso   1.00
C939   C     0.62798   0.77961   0.36438   0.00000  Uiso   1.00
C940   C     0.50001   0.91264   0.49998   0.00000  Uiso   1.00
C941   C     0.61333   0.74024   0.37771   0.00000  Uiso   1.00
C942   C     0.62144   0.72847   0.42522   0.00000  Uiso   1.00
C943   C     0.64383   0.75616   0.45950   0.00000  Uiso   1.00
C944   C     0.34162   0.87081   0.55364   0.00000  Uiso   1.00
C945   C     0.35617   0.91051   0.54050   0.00000  Uiso   1.00
C946   C     0.37856   0.93819   0.57478   0.00000  Uiso   1.00
C947   C     0.38667   0.92642   0.62229   0.00000  Uiso   1.00
C948   C     0.37202   0.88706   0.63562   0.00000  Uiso   1.00
C949   C     0.34931   0.85935   0.60148   0.00000  Uiso   1.00
C950   C     0.40144   0.83233   0.48816   0.00000  Uiso   1.00
C951   C     0.59856   0.83433   0.51184   0.00000  Uiso   1.00
C952   C     0.34682   0.82591   0.48316   0.00000  Uiso   1.00
C953   C     0.65318   0.84076   0.51684   0.00000  Uiso   1.00
C954   C     0.49929   0.68807   0.45738   0.00000  Uiso   1.00
C955   C     0.50071   0.97859   0.54262   0.00000  Uiso   1.00
C956   C     0.49936   0.97882   0.45734   0.00000  Uiso   1.00
Cu957  Cu    0.50000   0.83334   0.54689   0.00000  Uiso   1.00
Cu958  Cu    0.50000   0.83333   0.45311   0.00000  Uiso   1.00
F959   F     0.43557   0.78185   0.61105   0.00000  Uiso   1.00
F960   F     0.56443   0.88481   0.38895   0.00000  Uiso   1.00
H961   H     0.49878   0.70419   0.42404   0.00000  Uiso   1.00
H962   H     0.61011   0.69798   0.43552   0.00000  Uiso   1.00
H963   H     0.64943   0.74687   0.49628   0.00000  Uiso   1.00
H964   H     0.35057   0.91979   0.50372   0.00000  Uiso   1.00
H965   H     0.38989   0.96869   0.56448   0.00000  Uiso   1.00
H966   H     0.40440   0.94776   0.64875   0.00000  Uiso   1.00
H967   H     0.37879   0.87794   0.33903   0.00000  Uiso   1.00
H968   H     0.33888   0.82873   0.61206   0.00000  Uiso   1.00
H969   H     0.50122   0.96248   0.57596   0.00000  Uiso   1.00
H970   H     0.49886   0.96289   0.42400   0.00000  Uiso   1.00
H971   H     0.50114   0.70378   0.57600   0.00000  Uiso   1.00
H972   H     0.44203   0.78732   0.37000   0.00000  Uiso   1.00
H973   H     0.55797   0.87935   0.62999   0.00000  Uiso   1.00
H974   H     0.66112   0.83794   0.38794   0.00000  Uiso   1.00
H975   H     0.62121   0.78873   0.66097   0.00000  Uiso   1.00
H976   H     0.59560   0.71890   0.35125   0.00000  Uiso   1.00
N977   N     0.50001   0.83334   0.61736   0.00000  Uiso   1.00
N978   N     0.49999   0.83332   0.38264   0.00000  Uiso   1.00
O979   O     0.50000   0.77322   0.53958   0.00000  Uiso   1.00
O980   O     0.50000   0.89345   0.46042   0.00000  Uiso   1.00
O981   O     0.50000   0.77321   0.46039   0.00000  Uiso   1.00
O982   O     0.50000   0.89346   0.53961   0.00000  Uiso   1.00
O983   O     0.42495   0.83334   0.53046   0.00000  Uiso   1.00
O984   O     0.57505   0.83333   0.46954   0.00000  Uiso   1.00
O985   O     0.42494   0.83333   0.45127   0.00000  Uiso   1.00
O986   O     0.57506   0.83334   0.54873   0.00000  Uiso   1.00
C987   C     0.83332   0.75403   0.50002   0.00000  Uiso   1.00
C988   C     0.83397   0.68785   0.54266   0.00000  Uiso   1.00
C989   C     0.83336   0.95725   0.49996   0.00000  Uiso   1.00
C990   C     0.83330   0.70941   0.50004   0.00000  Uiso   1.00
C991   C     0.80116   0.80776   0.35434   0.00000  Uiso   1.00
C992   C     0.86550   0.85891   0.64566   0.00000  Uiso   1.00
C993   C     0.80120   0.80769   0.63809   0.00000  Uiso   1.00
C994   C     0.86547   0.85897   0.36191   0.00000  Uiso   1.00
C995   C     0.99172   0.79586   0.44636   0.00000  Uiso   1.00
C996   C     0.98402   0.80732   0.39852   0.00000  Uiso   1.00
C997   C     0.96131   0.77961   0.36438   0.00000  Uiso   1.00
C998   C     0.83334   0.91264   0.49998   0.00000  Uiso   1.00
C999   C     0.94666   0.74024   0.37771   0.00000  Uiso   1.00
C1000  C     0.95477   0.72847   0.42522   0.00000  Uiso   1.00
C1001  C     0.97716   0.75616   0.45950   0.00000  Uiso   1.00
C1002  C     0.67495   0.87081   0.55364   0.00000  Uiso   1.00
C1003  C     0.68951   0.91051   0.54050   0.00000  Uiso   1.00
C1004  C     0.71189   0.93819   0.57478   0.00000  Uiso   1.00
C1005  C     0.72000   0.92642   0.62229   0.00000  Uiso   1.00
C1006  C     0.70536   0.88706   0.63562   0.00000  Uiso   1.00
C1007  C     0.68265   0.85935   0.60148   0.00000  Uiso   1.00
C1008  C     0.73478   0.83233   0.48816   0.00000  Uiso   1.00
C1009  C     0.93189   0.83433   0.51184   0.00000  Uiso   1.00
C1010  C     0.68015   0.82591   0.48316   0.00000  Uiso   1.00
C1011  C     0.98652   0.84076   0.51684   0.00000  Uiso   1.00
C1012  C     0.83262   0.68807   0.45738   0.00000  Uiso   1.00
C1013  C     0.83404   0.97859   0.54262   0.00000  Uiso   1.00
C1014  C     0.83270   0.97882   0.45734   0.00000  Uiso   1.00
Cu1015 Cu    0.83333   0.83334   0.54689   0.00000  Uiso   1.00
Cu1016 Cu    0.83333   0.83333   0.45311   0.00000  Uiso   1.00
F1017  F     0.76890   0.78185   0.61105   0.00000  Uiso   1.00
F1018  F     0.89776   0.88481   0.38895   0.00000  Uiso   1.00
H1019  H     0.83211   0.70419   0.42404   0.00000  Uiso   1.00
H1020  H     0.94344   0.69798   0.43552   0.00000  Uiso   1.00
H1021  H     0.98276   0.74687   0.49628   0.00000  Uiso   1.00
H1022  H     0.68391   0.91979   0.50372   0.00000  Uiso   1.00
H1023  H     0.72323   0.96869   0.56448   0.00000  Uiso   1.00
H1024  H     0.73773   0.94776   0.64875   0.00000  Uiso   1.00
H1025  H     0.71212   0.87794   0.33903   0.00000  Uiso   1.00
H1026  H     0.67221   0.82873   0.61206   0.00000  Uiso   1.00
H1027  H     0.83455   0.96248   0.57596   0.00000  Uiso   1.00
H1028  H     0.83220   0.96289   0.42400   0.00000  Uiso   1.00
H1029  H     0.83447   0.70378   0.57600   0.00000  Uiso   1.00
H1030  H     0.77537   0.78732   0.37000   0.00000  Uiso   1.00
H1031  H     0.89130   0.87935   0.62999   0.00000  Uiso   1.00
H1032  H     0.99445   0.83794   0.38794   0.00000  Uiso   1.00
H1033  H     0.95454   0.78873   0.66097   0.00000  Uiso   1.00
H1034  H     0.92893   0.71890   0.35125   0.00000  Uiso   1.00
N1035  N     0.83335   0.83334   0.61736   0.00000  Uiso   1.00
N1036  N     0.83332   0.83332   0.38264   0.00000  Uiso   1.00
O1037  O     0.83333   0.77322   0.53958   0.00000  Uiso   1.00
O1038  O     0.83334   0.89345   0.46042   0.00000  Uiso   1.00
O1039  O     0.83333   0.77321   0.46039   0.00000  Uiso   1.00
O1040  O     0.83334   0.89346   0.53961   0.00000  Uiso   1.00
O1041  O     0.75828   0.83334   0.53046   0.00000  Uiso   1.00
O1042  O     0.90839   0.83333   0.46954   0.00000  Uiso   1.00
O1043  O     0.75828   0.83333   0.45127   0.00000  Uiso   1.00
O1044  O     0.90839   0.83334   0.54873   0.00000  Uiso   1.00
C1045  C     0.16666   0.08736   0.83336   0.00000  Uiso   1.00
C1046  C     0.16730   0.02118   0.87599   0.00000  Uiso   1.00
C1047  C     0.16670   0.29059   0.83330   0.00000  Uiso   1.00
C1048  C     0.16664   0.04275   0.83337   0.00000  Uiso   1.00
C1049  C     0.13450   0.14109   0.68767   0.00000  Uiso   1.00
C1050  C     0.19884   0.19224   0.97900   0.00000  Uiso   1.00
C1051  C     0.13453   0.14103   0.97142   0.00000  Uiso   1.00
C1052  C     0.19880   0.19231   0.69525   0.00000  Uiso   1.00
C1053  C     0.32505   0.12919   0.77969   0.00000  Uiso   1.00
C1054  C     0.31735   0.14065   0.73185   0.00000  Uiso   1.00
C1055  C     0.29464   0.11294   0.69771   0.00000  Uiso   1.00
C1056  C     0.16668   0.24597   0.83331   0.00000  Uiso   1.00
C1057  C     0.28000   0.07358   0.71105   0.00000  Uiso   1.00
C1058  C     0.28811   0.06181   0.75855   0.00000  Uiso   1.00
C1059  C     0.31049   0.08949   0.79283   0.00000  Uiso   1.00
C1060  C     0.00829   0.20414   0.88697   0.00000  Uiso   1.00
C1061  C     0.02284   0.24384   0.87383   0.00000  Uiso   1.00
C1062  C     0.04523   0.27153   0.90811   0.00000  Uiso   1.00
C1063  C     0.05334   0.25976   0.95562   0.00000  Uiso   1.00
C1064  C     0.03869   0.22039   0.96896   0.00000  Uiso   1.00
C1065  C     0.01598   0.19268   0.93481   0.00000  Uiso   1.00
C1066  C     0.06811   0.16567   0.82149   0.00000  Uiso   1.00
C1067  C     0.26522   0.16767   0.84518   0.00000  Uiso   1.00
C1068  C     0.01348   0.15924   0.81650   0.00000  Uiso   1.00
C1069  C     0.31985   0.17409   0.85017   0.00000  Uiso   1.00
C1070  C     0.16596   0.02141   0.79071   0.00000  Uiso   1.00
C1071  C     0.16738   0.31193   0.87596   0.00000  Uiso   1.00
C1072  C     0.16603   0.31215   0.79067   0.00000  Uiso   1.00
Cu1073 Cu    0.16667   0.16667   0.88022   0.00000  Uiso   1.00
Cu1074 Cu    0.16667   0.16666   0.78645   0.00000  Uiso   1.00
F1075  F     0.10224   0.11519   0.94439   0.00000  Uiso   1.00
F1076  F     0.23110   0.21815   0.72228   0.00000  Uiso   1.00
H1077  H     0.16545   0.03752   0.75738   0.00000  Uiso   1.00
H1078  H     0.27677   0.03131   0.76885   0.00000  Uiso   1.00
H1079  H     0.31609   0.08021   0.82961   0.00000  Uiso   1.00
H1080  H     0.01724   0.25313   0.83705   0.00000  Uiso   1.00
H1081  H     0.05656   0.30202   0.89781   0.00000  Uiso   1.00
H1082  H     0.07107   0.28110   0.98208   0.00000  Uiso   1.00
H1083  H     0.04546   0.21127   0.67236   0.00000  Uiso   1.00
H1084  H     0.00555   0.16206   0.94539   0.00000  Uiso   1.00
H1085  H     0.16789   0.29581   0.90929   0.00000  Uiso   1.00
H1086  H     0.16553   0.29622   0.75734   0.00000  Uiso   1.00
H1087  H     0.16780   0.03711   0.90933   0.00000  Uiso   1.00
H1088  H     0.10870   0.12065   0.70334   0.00000  Uiso   1.00
H1089  H     0.22463   0.21268   0.96333   0.00000  Uiso   1.00
H1090  H     0.32779   0.17127   0.72128   0.00000  Uiso   1.00
H1091  H     0.28787   0.12206   0.99430   0.00000  Uiso   1.00
H1092  H     0.26227   0.05224   0.68459   0.00000  Uiso   1.00
N1093  N     0.16668   0.16668   0.95069   0.00000  Uiso   1.00
N1094  N     0.16665   0.16666   0.71597   0.00000  Uiso   1.00
O1095  O     0.16666   0.10655   0.87291   0.00000  Uiso   1.00
O1096  O     0.16667   0.22678   0.79375   0.00000  Uiso   1.00
O1097  O     0.16666   0.10654   0.79372   0.00000  Uiso   1.00
O1098  O     0.16667   0.22679   0.87294   0.00000  Uiso   1.00
O1099  O     0.09161   0.16667   0.86379   0.00000  Uiso   1.00
O1100  O     0.24172   0.16666   0.80288   0.00000  Uiso   1.00
O1101  O     0.09161   0.16666   0.78460   0.00000  Uiso   1.00
O1102  O     0.24172   0.16667   0.88207   0.00000  Uiso   1.00
C1103  C     0.49999   0.08736   0.83336   0.00000  Uiso   1.00
C1104  C     0.50064   0.02118   0.87599   0.00000  Uiso   1.00
C1105  C     0.50003   0.29059   0.83330   0.00000  Uiso   1.00
C1106  C     0.49997   0.04275   0.83337   0.00000  Uiso   1.00
C1107  C     0.46783   0.14109   0.68767   0.00000  Uiso   1.00
C1108  C     0.53217   0.19224   0.97900   0.00000  Uiso   1.00
C1109  C     0.46786   0.14103   0.97142   0.00000  Uiso   1.00
C1110  C     0.53214   0.19231   0.69525   0.00000  Uiso   1.00
C1111  C     0.65838   0.12919   0.77969   0.00000  Uiso   1.00
C1112  C     0.65069   0.14065   0.73185   0.00000  Uiso   1.00
C1113  C     0.62798   0.11294   0.69771   0.00000  Uiso   1.00
C1114  C     0.50001   0.24597   0.83331   0.00000  Uiso   1.00
C1115  C     0.61333   0.07358   0.71105   0.00000  Uiso   1.00
C1116  C     0.62144   0.06181   0.75855   0.00000  Uiso   1.00
C1117  C     0.64383   0.08949   0.79283   0.00000  Uiso   1.00
C1118  C     0.34162   0.20414   0.88697   0.00000  Uiso   1.00
C1119  C     0.35617   0.24384   0.87383   0.00000  Uiso   1.00
C1120  C     0.37856   0.27153   0.90811   0.00000  Uiso   1.00
C1121  C     0.38667   0.25976   0.95562   0.00000  Uiso   1.00
C1122  C     0.37202   0.22039   0.96896   0.00000  Uiso   1.00
C1123  C     0.34931   0.19268   0.93481   0.00000  Uiso   1.00
C1124  C     0.40144   0.16567   0.82149   0.00000  Uiso   1.00
C1125  C     0.59856   0.16767   0.84518   0.00000  Uiso   1.00
C1126  C     0.34682   0.15924   0.81650   0.00000  Uiso   1.00
C1127  C     0.65318   0.17409   0.85017   0.00000  Uiso   1.00
C1128  C     0.49929   0.02141   0.79071   0.00000  Uiso   1.00
C1129  C     0.50071   0.31193   0.87596   0.00000  Uiso   1.00
C1130  C     0.49936   0.31215   0.79067   0.00000  Uiso   1.00
Cu1131 Cu    0.50000   0.16667   0.88022   0.00000  Uiso   1.00
Cu1132 Cu    0.50000   0.16666   0.78645   0.00000  Uiso   1.00
F1133  F     0.43557   0.11519   0.94439   0.00000  Uiso   1.00
F1134  F     0.56443   0.21815   0.72228   0.00000  Uiso   1.00
H1135  H     0.49878   0.03752   0.75738   0.00000  Uiso   1.00
H1136  H     0.61011   0.03131   0.76885   0.00000  Uiso   1.00
H1137  H     0.64943   0.08021   0.82961   0.00000  Uiso   1.00
H1138  H     0.35057   0.25313   0.83705   0.00000  Uiso   1.00
H1139  H     0.38989   0.30202   0.89781   0.00000  Uiso   1.00
H1140  H     0.40440   0.28110   0.98208   0.00000  Uiso   1.00
H1141  H     0.37879   0.21127   0.67236   0.00000  Uiso   1.00
H1142  H     0.33888   0.16206   0.94539   0.00000  Uiso   1.00
H1143  H     0.50122   0.29581   0.90929   0.00000  Uiso   1.00
H1144  H     0.49886   0.29622   0.75734   0.00000  Uiso   1.00
H1145  H     0.50114   0.03711   0.90933   0.00000  Uiso   1.00
H1146  H     0.44203   0.12065   0.70334   0.00000  Uiso   1.00
H1147  H     0.55797   0.21268   0.96333   0.00000  Uiso   1.00
H1148  H     0.66112   0.17127   0.72128   0.00000  Uiso   1.00
H1149  H     0.62121   0.12206   0.99430   0.00000  Uiso   1.00
H1150  H     0.59560   0.05224   0.68459   0.00000  Uiso   1.00
N1151  N     0.50001   0.16668   0.95069   0.00000  Uiso   1.00
N1152  N     0.49999   0.16666   0.71597   0.00000  Uiso   1.00
O1153  O     0.50000   0.10655   0.87291   0.00000  Uiso   1.00
O1154  O     0.50000   0.22678   0.79375   0.00000  Uiso   1.00
O1155  O     0.50000   0.10654   0.79372   0.00000  Uiso   1.00
O1156  O     0.50000   0.22679   0.87294   0.00000  Uiso   1.00
O1157  O     0.42495   0.16667   0.86379   0.00000  Uiso   1.00
O1158  O     0.57505   0.16666   0.80288   0.00000  Uiso   1.00
O1159  O     0.42494   0.16666   0.78460   0.00000  Uiso   1.00
O1160  O     0.57506   0.16667   0.88207   0.00000  Uiso   1.00
C1161  C     0.83332   0.08736   0.83336   0.00000  Uiso   1.00
C1162  C     0.83397   0.02118   0.87599   0.00000  Uiso   1.00
C1163  C     0.83336   0.29059   0.83330   0.00000  Uiso   1.00
C1164  C     0.83330   0.04275   0.83337   0.00000  Uiso   1.00
C1165  C     0.80116   0.14109   0.68767   0.00000  Uiso   1.00
C1166  C     0.86550   0.19224   0.97900   0.00000  Uiso   1.00
C1167  C     0.80120   0.14103   0.97142   0.00000  Uiso   1.00
C1168  C     0.86547   0.19231   0.69525   0.00000  Uiso   1.00
C1169  C     0.99172   0.12919   0.77969   0.00000  Uiso   1.00
C1170  C     0.98402   0.14065   0.73185   0.00000  Uiso   1.00
C1171  C     0.96131   0.11294   0.69771   0.00000  Uiso   1.00
C1172  C     0.83334   0.24597   0.83331   0.00000  Uiso   1.00
C1173  C     0.94666   0.07358   0.71105   0.00000  Uiso   1.00
C1174  C     0.95477   0.06181   0.75855   0.00000  Uiso   1.00
C1175  C     0.97716   0.08949   0.79283   0.00000  Uiso   1.00
C1176  C     0.67495   0.20414   0.88697   0.00000  Uiso   1.00
C1177  C     0.68951   0.24384   0.87383   0.00000  Uiso   1.00
C1178  C     0.71189   0.27153   0.90811   0.00000  Uiso   1.00
C1179  C     0.72000   0.25976   0.95562   0.00000  Uiso   1.00
C1180  C     0.70536   0.22039   0.96896   0.00000  Uiso   1.00
C1181  C     0.68265   0.19268   0.93481   0.00000  Uiso   1.00
C1182  C     0.73478   0.16567   0.82149   0.00000  Uiso   1.00
C1183  C     0.93189   0.16767   0.84518   0.00000  Uiso   1.00
C1184  C     0.68015   0.15924   0.81650   0.00000  Uiso   1.00
C1185  C     0.98652   0.17409   0.85017   0.00000  Uiso   1.00
C1186  C     0.83262   0.02141   0.79071   0.00000  Uiso   1.00
C1187  C     0.83404   0.31193   0.87596   0.00000  Uiso   1.00
C1188  C     0.83270   0.31215   0.79067   0.00000  Uiso   1.00
Cu1189 Cu    0.83333   0.16667   0.88022   0.00000  Uiso   1.00
Cu1190 Cu    0.83333   0.16666   0.78645   0.00000  Uiso   1.00
F1191  F     0.76890   0.11519   0.94439   0.00000  Uiso   1.00
F1192  F     0.89776   0.21815   0.72228   0.00000  Uiso   1.00
H1193  H     0.83211   0.03752   0.75738   0.00000  Uiso   1.00
H1194  H     0.94344   0.03131   0.76885   0.00000  Uiso   1.00
H1195  H     0.98276   0.08021   0.82961   0.00000  Uiso   1.00
H1196  H     0.68391   0.25313   0.83705   0.00000  Uiso   1.00
H1197  H     0.72323   0.30202   0.89781   0.00000  Uiso   1.00
H1198  H     0.73773   0.28110   0.98208   0.00000  Uiso   1.00
H1199  H     0.71212   0.21127   0.67236   0.00000  Uiso   1.00
H1200  H     0.67221   0.16206   0.94539   0.00000  Uiso   1.00
H1201  H     0.83455   0.29581   0.90929   0.00000  Uiso   1.00
H1202  H     0.83220   0.29622   0.75734   0.00000  Uiso   1.00
H1203  H     0.83447   0.03711   0.90933   0.00000  Uiso   1.00
H1204  H     0.77537   0.12065   0.70334   0.00000  Uiso   1.00
H1205  H     0.89130   0.21268   0.96333   0.00000  Uiso   1.00
H1206  H     0.99445   0.17127   0.72128   0.00000  Uiso   1.00
H1207  H     0.95454   0.12206   0.99430   0.00000  Uiso   1.00
H1208  H     0.92893   0.05224   0.68459   0.00000  Uiso   1.00
N1209  N     0.83335   0.16668   0.95069   0.00000  Uiso   1.00
N1210  N     0.83332   0.16666   0.71597   0.00000  Uiso   1.00
O1211  O     0.83333   0.10655   0.87291   0.00000  Uiso   1.00
O1212  O     0.83334   0.22678   0.79375   0.00000  Uiso   1.00
O1213  O     0.83333   0.10654   0.79372   0.00000  Uiso   1.00
O1214  O     0.83334   0.22679   0.87294   0.00000  Uiso   1.00
O1215  O     0.75828   0.16667   0.86379   0.00000  Uiso   1.00
O1216  O     0.90839   0.16666   0.80288   0.00000  Uiso   1.00
O1217  O     0.75828   0.16666   0.78460   0.00000  Uiso   1.00
O1218  O     0.90839   0.16667   0.88207   0.00000  Uiso   1.00
C1219  C     0.16666   0.42069   0.83336   0.00000  Uiso   1.00
C1220  C     0.16730   0.35451   0.87599   0.00000  Uiso   1.00
C1221  C     0.16670   0.62392   0.83330   0.00000  Uiso   1.00
C1222  C     0.16664   0.37608   0.83337   0.00000  Uiso   1.00
C1223  C     0.13450   0.47442   0.68767   0.00000  Uiso   1.00
C1224  C     0.19884   0.52557   0.97900   0.00000  Uiso   1.00
C1225  C     0.13453   0.47436   0.97142   0.00000  Uiso   1.00
C1226  C     0.19880   0.52564   0.69525   0.00000  Uiso   1.00
C1227  C     0.32505   0.46252   0.77969   0.00000  Uiso   1.00
C1228  C     0.31735   0.47398   0.73185   0.00000  Uiso   1.00
C1229  C     0.29464   0.44627   0.69771   0.00000  Uiso   1.00
C1230  C     0.16668   0.57930   0.83331   0.00000  Uiso   1.00
C1231  C     0.28000   0.40691   0.71105   0.00000  Uiso   1.00
C1232  C     0.28811   0.39514   0.75855   0.00000  Uiso   1.00
C1233  C     0.31049   0.42282   0.79283   0.00000  Uiso   1.00
C1234  C     0.00829   0.53748   0.88697   0.00000  Uiso   1.00
C1235  C     0.02284   0.57718   0.87383   0.00000  Uiso   1.00
C1236  C     0.04523   0.60486   0.90811   0.00000  Uiso   1.00
C1237  C     0.05334   0.59309   0.95562   0.00000  Uiso   1.00
C1238  C     0.03869   0.55373   0.96896   0.00000  Uiso   1.00
C1239  C     0.01598   0.52602   0.93481   0.00000  Uiso   1.00
C1240  C     0.06811   0.49900   0.82149   0.00000  Uiso   1.00
C1241  C     0.26522   0.50100   0.84518   0.00000  Uiso   1.00
C1242  C     0.01348   0.49257   0.81650   0.00000  Uiso   1.00
C1243  C     0.31985   0.50743   0.85017   0.00000  Uiso   1.00
C1244  C     0.16596   0.35474   0.79071   0.00000  Uiso   1.00
C1245  C     0.16738   0.64526   0.87596   0.00000  Uiso   1.00
C1246  C     0.16603   0.64549   0.79067   0.00000  Uiso   1.00
Cu1247 Cu    0.16667   0.50001   0.88022   0.00000  Uiso   1.00
Cu1248 Cu    0.16667   0.49999   0.78645   0.00000  Uiso   1.00
F1249  F     0.10224   0.44852   0.94439   0.00000  Uiso   1.00
F1250  F     0.23110   0.55148   0.72228   0.00000  Uiso   1.00
H1251  H     0.16545   0.37085   0.75738   0.00000  Uiso   1.00
H1252  H     0.27677   0.36465   0.76885   0.00000  Uiso   1.00
H1253  H     0.31609   0.41354   0.82961   0.00000  Uiso   1.00
H1254  H     0.01724   0.58646   0.83705   0.00000  Uiso   1.00
H1255  H     0.05656   0.63535   0.89781   0.00000  Uiso   1.00
H1256  H     0.07107   0.61443   0.98208   0.00000  Uiso   1.00
H1257  H     0.04546   0.54460   0.67236   0.00000  Uiso   1.00
H1258  H     0.00555   0.49539   0.94539   0.00000  Uiso   1.00
H1259  H     0.16789   0.62915   0.90929   0.00000  Uiso   1.00
H1260  H     0.16553   0.62956   0.75734   0.00000  Uiso   1.00
H1261  H     0.16780   0.37044   0.90933   0.00000  Uiso   1.00
H1262  H     0.10870   0.45398   0.70334   0.00000  Uiso   1.00
H1263  H     0.22463   0.54602   0.96333   0.00000  Uiso   1.00
H1264  H     0.32779   0.50461   0.72128   0.00000  Uiso   1.00
H1265  H     0.28787   0.45540   0.99430   0.00000  Uiso   1.00
H1266  H     0.26227   0.38557   0.68459   0.00000  Uiso   1.00
N1267  N     0.16668   0.50001   0.95069   0.00000  Uiso   1.00
N1268  N     0.16665   0.49999   0.71597   0.00000  Uiso   1.00
O1269  O     0.16666   0.43989   0.87291   0.00000  Uiso   1.00
O1270  O     0.16667   0.56011   0.79375   0.00000  Uiso   1.00
O1271  O     0.16666   0.43988   0.79372   0.00000  Uiso   1.00
O1272  O     0.16667   0.56012   0.87294   0.00000  Uiso   1.00
O1273  O     0.09161   0.50000   0.86379   0.00000  Uiso   1.00
O1274  O     0.24172   0.50000   0.80288   0.00000  Uiso   1.00
O1275  O     0.09161   0.49999   0.78460   0.00000  Uiso   1.00
O1276  O     0.24172   0.50001   0.88207   0.00000  Uiso   1.00
C1277  C     0.49999   0.42069   0.83336   0.00000  Uiso   1.00
C1278  C     0.50064   0.35451   0.87599   0.00000  Uiso   1.00
C1279  C     0.50003   0.62392   0.83330   0.00000  Uiso   1.00
C1280  C     0.49997   0.37608   0.83337   0.00000  Uiso   1.00
C1281  C     0.46783   0.47442   0.68767   0.00000  Uiso   1.00
C1282  C     0.53217   0.52557   0.97900   0.00000  Uiso   1.00
C1283  C     0.46786   0.47436   0.97142   0.00000  Uiso   1.00
C1284  C     0.53214   0.52564   0.69525   0.00000  Uiso   1.00
C1285  C     0.65838   0.46252   0.77969   0.00000  Uiso   1.00
C1286  C     0.65069   0.47398   0.73185   0.00000  Uiso   1.00
C1287  C     0.62798   0.44627   0.69771   0.00000  Uiso   1.00
C1288  C     0.50001   0.57930   0.83331   0.00000  Uiso   1.00
C1289  C     0.61333   0.40691   0.71105   0.00000  Uiso   1.00
C1290  C     0.62144   0.39514   0.75855   0.00000  Uiso   1.00
C1291  C     0.64383   0.42282   0.79283   0.00000  Uiso   1.00
C1292  C     0.34162   0.53748   0.88697   0.00000  Uiso   1.00
C1293  C     0.35617   0.57718   0.87383   0.00000  Uiso   1.00
C1294  C     0.37856   0.60486   0.90811   0.00000  Uiso   1.00
C1295  C     0.38667   0.59309   0.95562   0.00000  Uiso   1.00
C1296  C     0.37202   0.55373   0.96896   0.00000  Uiso   1.00
C1297  C     0.34931   0.52602   0.93481   0.00000  Uiso   1.00
C1298  C     0.40144   0.49900   0.82149   0.00000  Uiso   1.00
C1299  C     0.59856   0.50100   0.84518   0.00000  Uiso   1.00
C1300  C     0.34682   0.49257   0.81650   0.00000  Uiso   1.00
C1301  C     0.65318   0.50743   0.85017   0.00000  Uiso   1.00
C1302  C     0.49929   0.35474   0.79071   0.00000  Uiso   1.00
C1303  C     0.50071   0.64526   0.87596   0.00000  Uiso   1.00
C1304  C     0.49936   0.64549   0.79067   0.00000  Uiso   1.00
Cu1305 Cu    0.50000   0.50001   0.88022   0.00000  Uiso   1.00
Cu1306 Cu    0.50000   0.49999   0.78645   0.00000  Uiso   1.00
F1307  F     0.43557   0.44852   0.94439   0.00000  Uiso   1.00
F1308  F     0.56443   0.55148   0.72228   0.00000  Uiso   1.00
H1309  H     0.49878   0.37085   0.75738   0.00000  Uiso   1.00
H1310  H     0.61011   0.36465   0.76885   0.00000  Uiso   1.00
H1311  H     0.64943   0.41354   0.82961   0.00000  Uiso   1.00
H1312  H     0.35057   0.58646   0.83705   0.00000  Uiso   1.00
H1313  H     0.38989   0.63535   0.89781   0.00000  Uiso   1.00
H1314  H     0.40440   0.61443   0.98208   0.00000  Uiso   1.00
H1315  H     0.37879   0.54460   0.67236   0.00000  Uiso   1.00
H1316  H     0.33888   0.49539   0.94539   0.00000  Uiso   1.00
H1317  H     0.50122   0.62915   0.90929   0.00000  Uiso   1.00
H1318  H     0.49886   0.62956   0.75734   0.00000  Uiso   1.00
H1319  H     0.50114   0.37044   0.90933   0.00000  Uiso   1.00
H1320  H     0.44203   0.45398   0.70334   0.00000  Uiso   1.00
H1321  H     0.55797   0.54602   0.96333   0.00000  Uiso   1.00
H1322  H     0.66112   0.50461   0.72128   0.00000  Uiso   1.00
H1323  H     0.62121   0.45540   0.99430   0.00000  Uiso   1.00
H1324  H     0.59560   0.38557   0.68459   0.00000  Uiso   1.00
N1325  N     0.50001   0.50001   0.95069   0.00000  Uiso   1.00
N1326  N     0.49999   0.49999   0.71597   0.00000  Uiso   1.00
O1327  O     0.50000   0.43989   0.87291   0.00000  Uiso   1.00
O1328  O     0.50000   0.56011   0.79375   0.00000  Uiso   1.00
O1329  O     0.50000   0.43988   0.79372   0.00000  Uiso   1.00
O1330  O     0.50000   0.56012   0.87294   0.00000  Uiso   1.00
O1331  O     0.42495   0.50000   0.86379   0.00000  Uiso   1.00
O1332  O     0.57505   0.50000   0.80288   0.00000  Uiso   1.00
O1333  O     0.42494   0.49999   0.78460   0.00000  Uiso   1.00
O1334  O     0.57506   0.50001   0.88207   0.00000  Uiso   1.00
C1335  C     0.83332   0.42069   0.83336   0.00000  Uiso   1.00
C1336  C     0.83397   0.35451   0.87599   0.00000  Uiso   1.00
C1337  C     0.83336   0.62392   0.83330   0.00000  Uiso   1.00
C1338  C     0.83330   0.37608   0.83337   0.00000  Uiso   1.00
C1339  C     0.80116   0.47442   0.68767   0.00000  Uiso   1.00
C1340  C     0.86550   0.52557   0.97900   0.00000  Uiso   1.00
C1341  C     0.80120   0.47436   0.97142   0.00000  Uiso   1.00
C1342  C     0.86547   0.52564   0.69525   0.00000  Uiso   1.00
C1343  C     0.99172   0.46252   0.77969   0.00000  Uiso   1.00
C1344  C     0.98402   0.47398   0.73185   0.00000  Uiso   1.00
C1345  C     0.96131   0.44627   0.69771   0.00000  Uiso   1.00
C1346  C     0.83334   0.57930   0.83331   0.00000  Uiso   1.00
C1347  C     0.94666   0.40691   0.71105   0.00000  Uiso   1.00
C1348  C     0.95477   0.39514   0.75855   0.00000  Uiso   1.00
C1349  C     0.97716   0.42282   0.79283   0.00000  Uiso   1.00
C1350  C     0.67495   0.53748   0.88697   0.00000  Uiso   1.00
C1351  C     0.68951   0.57718   0.87383   0.00000  Uiso   1.00
C1352  C     0.71189   0.60486   0.90811   0.00000  Uiso   1.00
C1353  C     0.72000   0.59309   0.95562   0.00000  Uiso   1.00
C1354  C     0.70536   0.55373   0.96896   0.00000  Uiso   1.00
C1355  C     0.68265   0.52602   0.93481   0.00000  Uiso   1.00
C1356  C     0.73478   0.49900   0.82149   0.00000  Uiso   1.00
C1357  C     0.93189   0.50100   0.84518   0.00000  Uiso   1.00
C1358  C     0.68015   0.49257   0.81650   0.00000  Uiso   1.00
C1359  C     0.98652   0.50743   0.85017   0.00000  Uiso   1.00
C1360  C     0.83262   0.35474   0.79071   0.00000  Uiso   1.00
C1361  C     0.83404   0.64526   0.87596   0.00000  Uiso   1.00
C1362  C     0.83270   0.64549   0.79067   0.00000  Uiso   1.00
Cu1363 Cu    0.83333   0.50001   0.88022   0.00000  Uiso   1.00
Cu1364 Cu    0.83333   0.49999   0.78645   0.00000  Uiso   1.00
F1365  F     0.76890   0.44852   0.94439   0.00000  Uiso   1.00
F1366  F     0.89776   0.55148   0.72228   0.00000  Uiso   1.00
H1367  H     0.83211   0.37085   0.75738   0.00000  Uiso   1.00
H1368  H     0.94344   0.36465   0.76885   0.00000  Uiso   1.00
H1369  H     0.98276   0.41354   0.82961   0.00000  Uiso   1.00
H1370  H     0.68391   0.58646   0.83705   0.00000  Uiso   1.00
H1371  H     0.72323   0.63535   0.89781   0.00000  Uiso   1.00
H1372  H     0.73773   0.61443   0.98208   0.00000  Uiso   1.00
H1373  H     0.71212   0.54460   0.67236   0.00000  Uiso   1.00
H1374  H     0.67221   0.49539   0.94539   0.00000  Uiso   1.00
H1375  H     0.83455   0.62915   0.90929   0.00000  Uiso   1.00
H1376  H     0.83220   0.62956   0.75734   0.00000  Uiso   1.00
H1377  H     0.83447   0.37044   0.90933   0.00000  Uiso   1.00
H1378  H     0.77537   0.45398   0.70334   0.00000  Uiso   1.00
H1379  H     0.89130   0.54602   0.96333   0.00000  Uiso   1.00
H1380  H     0.99445   0.50461   0.72128   0.00000  Uiso   1.00
H1381  H     0.95454   0.45540   0.99430   0.00000  Uiso   1.00
H1382  H     0.92893   0.38557   0.68459   0.00000  Uiso   1.00
N1383  N     0.83335   0.50001   0.95069   0.00000  Uiso   1.00
N1384  N     0.83332   0.49999   0.71597   0.00000  Uiso   1.00
O1385  O     0.83333   0.43989   0.87291   0.00000  Uiso   1.00
O1386  O     0.83334   0.56011   0.79375   0.00000  Uiso   1.00
O1387  O     0.83333   0.43988   0.79372   0.00000  Uiso   1.00
O1388  O     0.83334   0.56012   0.87294   0.00000  Uiso   1.00
O1389  O     0.75828   0.50000   0.86379   0.00000  Uiso   1.00
O1390  O     0.90839   0.50000   0.80288   0.00000  Uiso   1.00
O1391  O     0.75828   0.49999   0.78460   0.00000  Uiso   1.00
O1392  O     0.90839   0.50001   0.88207   0.00000  Uiso   1.00
C1393  C     0.16666   0.75403   0.83336   0.00000  Uiso   1.00
C1394  C     0.16730   0.68785   0.87599   0.00000  Uiso   1.00
C1395  C     0.16670   0.95725   0.83330   0.00000  Uiso   1.00
C1396  C     0.16664   0.70941   0.83337   0.00000  Uiso   1.00
C1397  C     0.13450   0.80776   0.68767   0.00000  Uiso   1.00
C1398  C     0.19884   0.85891   0.97900   0.00000  Uiso   1.00
C1399  C     0.13453   0.80769   0.97142   0.00000  Uiso   1.00
C1400  C     0.19880   0.85897   0.69525   0.00000  Uiso   1.00
C1401  C     0.32505   0.79586   0.77969   0.00000  Uiso   1.00
C1402  C     0.31735   0.80732   0.73185   0.00000  Uiso   1.00
C1403  C     0.29464   0.77961   0.69771   0.00000  Uiso   1.00
C1404  C     0.16668   0.91264   0.83331   0.00000  Uiso   1.00
C1405  C     0.28000   0.74024   0.71105   0.00000  Uiso   1.00
C1406  C     0.28811   0.72847   0.75855   0.00000  Uiso   1.00
C1407  C     0.31049   0.75616   0.79283   0.00000  Uiso   1.00
C1408  C     0.00829   0.87081   0.88697   0.00000  Uiso   1.00
C1409  C     0.02284   0.91051   0.87383   0.00000  Uiso   1.00
C1410  C     0.04523   0.93819   0.90811   0.00000  Uiso   1.00
C1411  C     0.05334   0.92642   0.95562   0.00000  Uiso   1.00
C1412  C     0.03869   0.88706   0.96896   0.00000  Uiso   1.00
C1413  C     0.01598   0.85935   0.93481   0.00000  Uiso   1.00
C1414  C     0.06811   0.83233   0.82149   0.00000  Uiso   1.00
C1415  C     0.26522   0.83433   0.84518   0.00000  Uiso   1.00
C1416  C     0.01348   0.82591   0.81650   0.00000  Uiso   1.00
C1417  C     0.31985   0.84076   0.85017   0.00000  Uiso   1.00
C1418  C     0.16596   0.68807   0.79071   0.00000  Uiso   1.00
C1419  C     0.16738   0.97859   0.87596   0.00000  Uiso   1.00
C1420  C     0.16603   0.97882   0.79067   0.00000  Uiso   1.00
Cu1421 Cu    0.16667   0.83334   0.88022   0.00000  Uiso   1.00
Cu1422 Cu    0.16667   0.83333   0.78645   0.00000  Uiso   1.00
F1423  F     0.10224   0.78185   0.94439   0.00000  Uiso   1.00
F1424  F     0.23110   0.88481   0.72228   0.00000  Uiso   1.00
H1425  H     0.16545   0.70419   0.75738   0.00000  Uiso   1.00
H1426  H     0.27677   0.69798   0.76885   0.00000  Uiso   1.00
H1427  H     0.31609   0.74687   0.82961   0.00000  Uiso   1.00
H1428  H     0.01724   0.91979   0.83705   0.00000  Uiso   1.00
H1429  H     0.05656   0.96869   0.89781   0.00000  Uiso   1.00
H1430  H     0.07107   0.94776   0.98208   0.00000  Uiso   1.00
H1431  H     0.04546   0.87794   0.67236   0.00000  Uiso   1.00
H1432  H     0.00555   0.82873   0.94539   0.00000  Uiso   1.00
H1433  H     0.16789   0.96248   0.90929   0.00000  Uiso   1.00
H1434  H     0.16553   0.96289   0.75734   0.00000  Uiso   1.00
H1435  H     0.16780   0.70378   0.90933   0.00000  Uiso   1.00
H1436  H     0.10870   0.78732   0.70334   0.00000  Uiso   1.00
H1437  H     0.22463   0.87935   0.96333   0.00000  Uiso   1.00
H1438  H     0.32779   0.83794   0.72128   0.00000  Uiso   1.00
H1439  H     0.28787   0.78873   0.99430   0.00000  Uiso   1.00
H1440  H     0.26227   0.71890   0.68459   0.00000  Uiso   1.00
N1441  N     0.16668   0.83334   0.95069   0.00000  Uiso   1.00
N1442  N     0.16665   0.83332   0.71597   0.00000  Uiso   1.00
O1443  O     0.16666   0.77322   0.87291   0.00000  Uiso   1.00
O1444  O     0.16667   0.89345   0.79375   0.00000  Uiso   1.00
O1445  O     0.16666   0.77321   0.79372   0.00000  Uiso   1.00
O1446  O     0.16667   0.89346   0.87294   0.00000  Uiso   1.00
O1447  O     0.09161   0.83334   0.86379   0.00000  Uiso   1.00
O1448  O     0.24172   0.83333   0.80288   0.00000  Uiso   1.00
O1449  O     0.09161   0.83333   0.78460   0.00000  Uiso   1.00
O1450  O     0.24172   0.83334   0.88207   0.00000  Uiso   1.00
C1451  C     0.49999   0.75403   0.83336   0.00000  Uiso   1.00
C1452  C     0.50064   0.68785   0.87599   0.00000  Uiso   1.00
C1453  C     0.50003   0.95725   0.83330   0.00000  Uiso   1.00
C1454  C     0.49997   0.70941   0.83337   0.00000  Uiso   1.00
C1455  C     0.46783   0.80776   0.68767   0.00000  Uiso   1.00
C1456  C     0.53217   0.85891   0.97900   0.00000  Uiso   1.00
C1457  C     0.46786   0.80769   0.97142   0.00000  Uiso   1.00
C1458  C     0.53214   0.85897   0.69525   0.00000  Uiso   1.00
C1459  C     0.65838   0.79586   0.77969   0.00000  Uiso   1.00
C1460  C     0.65069   0.80732   0.73185   0.00000  Uiso   1.00
C1461  C     0.62798   0.77961   0.69771   0.00000  Uiso   1.00
C1462  C     0.50001   0.91264   0.83331   0.00000  Uiso   1.00
C1463  C     0.61333   0.74024   0.71105   0.00000  Uiso   1.00
C1464  C     0.62144   0.72847   0.75855   0.00000  Uiso   1.00
C1465  C     0.64383   0.75616   0.79283   0.00000  Uiso   1.00
C1466  C     0.34162   0.87081   0.88697   0.00000  Uiso   1.00
C1467  C     0.35617   0.91051   0.87383   0.00000  Uiso   1.00
C1468  C     0.37856   0.93819   0.90811   0.00000  Uiso   1.00
C1469  C     0.38667   0.92642   0.95562   0.00000  Uiso   1.00
C1470  C     0.37202   0.88706   0.96896   0.00000  Uiso   1.00
C1471  C     0.34931   0.85935   0.93481   0.00000  Uiso   1.00
C1472  C     0.40144   0.83233   0.82149   0.00000  Uiso   1.00
C1473  C     0.59856   0.83433   0.84518   0.00000  Uiso   1.00
C1474  C     0.34682   0.82591   0.81650   0.00000  Uiso   1.00
C1475  C     0.65318   0.84076   0.85017   0.00000  Uiso   1.00
C1476  C     0.49929   0.68807   0.79071   0.00000  Uiso   1.00
C1477  C     0.50071   0.97859   0.87596   0.00000  Uiso   1.00
C1478  C     0.49936   0.97882   0.79067   0.00000  Uiso   1.00
Cu1479 Cu    0.50000   0.83334   0.88022   0.00000  Uiso   1.00
Cu1480 Cu    0.50000   0.83333   0.78645   0.00000  Uiso   1.00
F1481  F     0.43557   0.78185   0.94439   0.00000  Uiso   1.00
F1482  F     0.56443   0.88481   0.72228   0.00000  Uiso   1.00
H1483  H     0.49878   0.70419   0.75738   0.00000  Uiso   1.00
H1484  H     0.61011   0.69798   0.76885   0.00000  Uiso   1.00
H1485  H     0.64943   0.74687   0.82961   0.00000  Uiso   1.00
H1486  H     0.35057   0.91979   0.83705   0.00000  Uiso   1.00
H1487  H     0.38989   0.96869   0.89781   0.00000  Uiso   1.00
H1488  H     0.40440   0.94776   0.98208   0.00000  Uiso   1.00
H1489  H     0.37879   0.87794   0.67236   0.00000  Uiso   1.00
H1490  H     0.33888   0.82873   0.94539   0.00000  Uiso   1.00
H1491  H     0.50122   0.96248   0.90929   0.00000  Uiso   1.00
H1492  H     0.49886   0.96289   0.75734   0.00000  Uiso   1.00
H1493  H     0.50114   0.70378   0.90933   0.00000  Uiso   1.00
H1494  H     0.44203   0.78732   0.70334   0.00000  Uiso   1.00
H1495  H     0.55797   0.87935   0.96333   0.00000  Uiso   1.00
H1496  H     0.66112   0.83794   0.72128   0.00000  Uiso   1.00
H1497  H     0.62121   0.78873   0.99430   0.00000  Uiso   1.00
H1498  H     0.59560   0.71890   0.68459   0.00000  Uiso   1.00
N1499  N     0.50001   0.83334   0.95069   0.00000  Uiso   1.00
N1500  N     0.49999   0.83332   0.71597   0.00000  Uiso   1.00
O1501  O     0.50000   0.77322   0.87291   0.00000  Uiso   1.00
O1502  O     0.50000   0.89345   0.79375   0.00000  Uiso   1.00
O1503  O     0.50000   0.77321   0.79372   0.00000  Uiso   1.00
O1504  O     0.50000   0.89346   0.87294   0.00000  Uiso   1.00
O1505  O     0.42495   0.83334   0.86379   0.00000  Uiso   1.00
O1506  O     0.57505   0.83333   0.80288   0.00000  Uiso   1.00
O1507  O     0.42494   0.83333   0.78460   0.00000  Uiso   1.00
O1508  O     0.57506   0.83334   0.88207   0.00000  Uiso   1.00
C1509  C     0.83332   0.75403   0.83336   0.00000  Uiso   1.00
C1510  C     0.83397   0.68785   0.87599   0.00000  Uiso   1.00
C1511  C     0.83336   0.95725   0.83330   0.00000  Uiso   1.00
C1512  C     0.83330   0.70941   0.83337   0.00000  Uiso   1.00
C1513  C     0.80116   0.80776   0.68767   0.00000  Uiso   1.00
C1514  C     0.86550   0.85891   0.97900   0.00000  Uiso   1.00
C1515  C     0.80120   0.80769   0.97142   0.00000  Uiso   1.00
C1516  C     0.86547   0.85897   0.69525   0.00000  Uiso   1.00
C1517  C     0.99172   0.79586   0.77969   0.00000  Uiso   1.00
C1518  C     0.98402   0.80732   0.73185   0.00000  Uiso   1.00
C1519  C     0.96131   0.77961   0.69771   0.00000  Uiso   1.00
C1520  C     0.83334   0.91264   0.83331   0.00000  Uiso   1.00
C1521  C     0.94666   0.74024   0.71105   0.00000  Uiso   1.00
C1522  C     0.95477   0.72847   0.75855   0.00000  Uiso   1.00
C1523  C     0.97716   0.75616   0.79283   0.00000  Uiso   1.00
C1524  C     0.67495   0.87081   0.88697   0.00000  Uiso   1.00
C1525  C     0.68951   0.91051   0.87383   0.00000  Uiso   1.00
C1526  C     0.71189   0.93819   0.90811   0.00000  Uiso   1.00
C1527  C     0.72000   0.92642   0.95562   0.00000  Uiso   1.00
C1528  C     0.70536   0.88706   0.96896   0.00000  Uiso   1.00
C1529  C     0.68265   0.85935   0.93481   0.00000  Uiso   1.00
C1530  C     0.73478   0.83233   0.82149   0.00000  Uiso   1.00
C1531  C     0.93189   0.83433   0.84518   0.00000  Uiso   1.00
C1532  C     0.68015   0.82591   0.81650   0.00000  Uiso   1.00
C1533  C     0.98652   0.84076   0.85017   0.00000  Uiso   1.00
C1534  C     0.83262   0.68807   0.79071   0.00000  Uiso   1.00
C1535  C     0.83404   0.97859   0.87596   0.00000  Uiso   1.00
C1536  C     0.83270   0.97882   0.79067   0.00000  Uiso   1.00
Cu1537 Cu    0.83333   0.83334   0.88022   0.00000  Uiso   1.00
Cu1538 Cu    0.83333   0.83333   0.78645   0.00000  Uiso   1.00
F1539  F     0.76890   0.78185   0.94439   0.00000  Uiso   1.00
F1540  F     0.89776   0.88481   0.72228   0.00000  Uiso   1.00
H1541  H     0.83211   0.70419   0.75738   0.00000  Uiso   1.00
H1542  H     0.94344   0.69798   0.76885   0.00000  Uiso   1.00
H1543  H     0.98276   0.74687   0.82961   0.00000  Uiso   1.00
H1544  H     0.68391   0.91979   0.83705   0.00000  Uiso   1.00
H1545  H     0.72323   0.96869   0.89781   0.00000  Uiso   1.00
H1546  H     0.73773   0.94776   0.98208   0.00000  Uiso   1.00
H1547  H     0.71212   0.87794   0.67236   0.00000  Uiso   1.00
H1548  H     0.67221   0.82873   0.94539   0.00000  Uiso   1.00
H1549  H     0.83455   0.96248   0.90929   0.00000  Uiso   1.00
H1550  H     0.83220   0.96289   0.75734   0.00000  Uiso   1.00
H1551  H     0.83447   0.70378   0.90933   0.00000  Uiso   1.00
H1552  H     0.77537   0.78732   0.70334   0.00000  Uiso   1.00
H1553  H     0.89130   0.87935   0.96333   0.00000  Uiso   1.00
H1554  H     0.99445   0.83794   0.72128   0.00000  Uiso   1.00
H1555  H     0.95454   0.78873   0.99430   0.00000  Uiso   1.00
H1556  H     0.92893   0.71890   0.68459   0.00000  Uiso   1.00
N1557  N     0.83335   0.83334   0.95069   0.00000  Uiso   1.00
N1558  N     0.83332   0.83332   0.71597   0.00000  Uiso   1.00
O1559  O     0.83333   0.77322   0.87291   0.00000  Uiso   1.00
O1560  O     0.83334   0.89345   0.79375   0.00000  Uiso   1.00
O1561  O     0.83333   0.77321   0.79372   0.00000  Uiso   1.00
O1562  O     0.83334   0.89346   0.87294   0.00000  Uiso   1.00
O1563  O     0.75828   0.83334   0.86379   0.00000  Uiso   1.00
O1564  O     0.90839   0.83333   0.80288   0.00000  Uiso   1.00
O1565  O     0.75828   0.83333   0.78460   0.00000  Uiso   1.00
O1566  O     0.90839   0.83334   0.88207   0.00000  Uiso   1.00
loop_
_geom_bond_atom_site_label_1
_geom_bond_atom_site_label_2
_geom_bond_distance
_geom_bond_site_symmetry_2
_ccdc_geom_bond_type
C1     C4      1.449   .     S
C1     O51     1.292   .     A
C1     O53     1.290   .     A
C2     C4      1.401   .     A
C2     H43     1.083   .     S
C2     C375    1.383   1_545 S
C3     C27     1.401   .     A
C3     C28     1.401   .     A
C3     C12     1.449   .     S
C4     C26     1.401   .     A
C5     N50     1.366   .     A
C5     H44     1.082   .     S
C5     C1051   1.416   1_554 S
C6     N49     1.366   .     A
C6     H45     1.082   .     S
C6     C530    1.416   .     S
C7     F31     1.355   .     S
C7     N49     1.369   .     A
C7     C527    1.416   .     S
C8     F32     1.355   .     S
C8     N50     1.369   .     A
C8     C1050   1.416   1_554 S
C9     C10     1.404   .     A
C9     C15     1.405   .     A
C9     C82     1.490   .     S
C10    H46     1.082   .     S
C10    C11     1.399   .     A
C11    C13     1.398   .     A
C11    H1091   1.082   1_554 S
C12    O52     1.292   .     A
C12    O54     1.290   .     A
C13    H48     1.082   .     S
C13    C14     1.398   .     A
C14    H34     1.082   .     S
C14    C15     1.398   .     A
C15    H35     1.083   .     S
C16    C21     1.404   .     A
C16    C17     1.405   .     A
C16    C141    1.490   1_455 S
C17    C18     1.398   .     A
C17    H36     1.083   .     S
C18    H37     1.082   .     S
C18    C19     1.398   .     A
C19    H38     1.082   .     S
C19    C20     1.398   .     A
C20    C21     1.399   .     A
C20    H561    1.082   .     S
C21    H40     1.082   .     S
C22    O55     1.282   .     A
C22    O57     1.290   .     A
C22    C24     1.436   .     S
C23    O58     1.290   .     A
C23    O56     1.282   .     A
C23    C25     1.436   .     S
C24    C125    1.490   1_455 S
C24    C141    1.360   1_455 S
C25    C74     1.490   .     S
C25    C82     1.360   .     S
C26    H33     1.083   .     S
C26    C376    1.383   1_545 S
C27    H41     1.083   .     S
C27    C176    1.383   .     S
C28    H42     1.083   .     S
C28    C200    1.383   .     S
Cu29   N49     2.012   .     S
Cu29   O58     1.965   .     S
Cu29   Cu30    2.678   .     S
Cu29   O51     1.964   .     S
Cu29   O54     1.962   .     S
Cu29   O55     1.965   .     S
Cu30   O56     1.965   .     S
Cu30   N50     2.012   .     S
Cu30   O53     1.962   .     S
Cu30   O57     1.965   .     S
Cu30   O52     1.964   .     S
H39    C1064   1.082   1_554 S
H47    C533    1.082   .     S
C59    C62     1.449   .     S
C59    O109    1.292   .     A
C59    O111    1.290   .     A
C60    C62     1.401   .     A
C60    H101    1.083   .     S
C60    C433    1.383   1_545 S
C61    C85     1.401   .     A
C61    C86     1.401   .     A
C61    C70     1.449   .     S
C62    C84     1.401   .     A
C63    N108    1.366   .     A
C63    H102    1.082   .     S
C63    C1109   1.416   1_554 S
C64    N107    1.366   .     A
C64    H103    1.082   .     S
C64    C588    1.416   .     S
C65    F89     1.355   .     S
C65    N107    1.369   .     A
C65    C585    1.416   .     S
C66    F90     1.355   .     S
C66    N108    1.369   .     A
C66    C1108   1.416   1_554 S
C67    C68     1.404   .     A
C67    C73     1.405   .     A
C67    C140    1.490   .     S
C68    H104    1.082   .     S
C68    C69     1.399   .     A
C69    C71     1.398   .     A
C69    H1149   1.082   1_554 S
C70    O110    1.292   .     A
C70    O112    1.290   .     A
C71    H106    1.082   .     S
C71    C72     1.398   .     A
C72    H92     1.082   .     S
C72    C73     1.398   .     A
C73    H93     1.083   .     S
C74    C79     1.404   .     A
C74    C75     1.405   .     A
C75    C76     1.398   .     A
C75    H94     1.083   .     S
C76    H95     1.082   .     S
C76    C77     1.398   .     A
C77    H96     1.082   .     S
C77    C78     1.398   .     A
C78    C79     1.399   .     A
C78    H619    1.082   .     S
C79    H98     1.082   .     S
C80    O113    1.282   .     A
C80    O115    1.290   .     A
C80    C82     1.436   .     S
C81    O116    1.290   .     A
C81    O114    1.282   .     A
C81    C83     1.436   .     S
C83    C132    1.490   .     S
C83    C140    1.360   .     S
C84    H91     1.083   .     S
C84    C434    1.383   1_545 S
C85    H99     1.083   .     S
C85    C234    1.383   .     S
C86    H100    1.083   .     S
C86    C258    1.383   .     S
Cu87   N107    2.012   .     S
Cu87   O116    1.965   .     S
Cu87   Cu88    2.678   .     S
Cu87   O109    1.964   .     S
Cu87   O112    1.962   .     S
Cu87   O113    1.965   .     S
Cu88   O114    1.965   .     S
Cu88   N108    2.012   .     S
Cu88   O111    1.962   .     S
Cu88   O115    1.965   .     S
Cu88   O110    1.964   .     S
H97    C1122   1.082   1_554 S
H105   C591    1.082   .     S
C117   C120    1.449   .     S
C117   O167    1.292   .     A
C117   O169    1.290   .     A
C118   C120    1.401   .     A
C118   H159    1.083   .     S
C118   C491    1.383   1_545 S
C119   C143    1.401   .     A
C119   C144    1.401   .     A
C119   C128    1.449   .     S
C120   C142    1.401   .     A
C121   N166    1.366   .     A
C121   H160    1.082   .     S
C121   C1167   1.416   1_554 S
C122   N165    1.366   .     A
C122   H161    1.082   .     S
C122   C646    1.416   .     S
C123   F147    1.355   .     S
C123   N165    1.369   .     A
C123   C643    1.416   .     S
C124   F148    1.355   .     S
C124   N166    1.369   .     A
C124   C1166   1.416   1_554 S
C125   C126    1.404   .     A
C125   C131    1.405   .     A
C125   C24     1.490   1_655 S
C126   H162    1.082   .     S
C126   C127    1.399   .     A
C127   C129    1.398   .     A
C127   H1207   1.082   1_554 S
C128   O168    1.292   .     A
C128   O170    1.290   .     A
C129   H164    1.082   .     S
C129   C130    1.398   .     A
C130   H150    1.082   .     S
C130   C131    1.398   .     A
C131   H151    1.083   .     S
C132   C137    1.404   .     A
C132   C133    1.405   .     A
C133   C134    1.398   .     A
C133   H152    1.083   .     S
C134   H153    1.082   .     S
C134   C135    1.398   .     A
C135   H154    1.082   .     S
C135   C136    1.398   .     A
C136   C137    1.399   .     A
C136   H677    1.082   .     S
C137   H156    1.082   .     S
C138   O171    1.282   .     A
C138   O173    1.290   .     A
C138   C140    1.436   .     S
C139   O174    1.290   .     A
C139   O172    1.282   .     A
C139   C141    1.436   .     S
C141   C16     1.490   1_655 S
C141   C24     1.360   1_655 S
C142   H149    1.083   .     S
C142   C492    1.383   1_545 S
C143   H157    1.083   .     S
C143   C292    1.383   .     S
C144   H158    1.083   .     S
C144   C316    1.383   .     S
Cu145  N165    2.012   .     S
Cu145  O174    1.965   .     S
Cu145  Cu146   2.678   .     S
Cu145  O167    1.964   .     S
Cu145  O170    1.962   .     S
Cu145  O171    1.965   .     S
Cu146  O172    1.965   .     S
Cu146  N166    2.012   .     S
Cu146  O169    1.962   .     S
Cu146  O173    1.965   .     S
Cu146  O168    1.964   .     S
H155   C1180   1.082   1_554 S
H163   C649    1.082   .     S
C175   C178    1.449   .     S
C175   O225    1.292   .     A
C175   O227    1.290   .     A
C176   C178    1.401   .     A
C176   H217    1.083   .     S
C177   C201    1.401   .     A
C177   C202    1.401   .     A
C177   C186    1.449   .     S
C178   C200    1.401   .     A
C179   N224    1.366   .     A
C179   H218    1.082   .     S
C179   C1225   1.416   1_554 S
C180   N223    1.366   .     A
C180   H219    1.082   .     S
C180   C704    1.416   .     S
C181   F205    1.355   .     S
C181   N223    1.369   .     A
C181   C701    1.416   .     S
C182   F206    1.355   .     S
C182   N224    1.369   .     A
C182   C1224   1.416   1_554 S
C183   C184    1.404   .     A
C183   C189    1.405   .     A
C183   C256    1.490   .     S
C184   H220    1.082   .     S
C184   C185    1.399   .     A
C185   C187    1.398   .     A
C185   H1265   1.082   1_554 S
C186   O226    1.292   .     A
C186   O228    1.290   .     A
C187   H222    1.082   .     S
C187   C188    1.398   .     A
C188   H208    1.082   .     S
C188   C189    1.398   .     A
C189   H209    1.083   .     S
C190   C195    1.404   .     A
C190   C191    1.405   .     A
C190   C315    1.490   1_455 S
C191   C192    1.398   .     A
C191   H210    1.083   .     S
C192   H211    1.082   .     S
C192   C193    1.398   .     A
C193   H212    1.082   .     S
C193   C194    1.398   .     A
C194   C195    1.399   .     A
C194   H735    1.082   .     S
C195   H214    1.082   .     S
C196   O229    1.282   .     A
C196   O231    1.290   .     A
C196   C198    1.436   .     S
C197   O232    1.290   .     A
C197   O230    1.282   .     A
C197   C199    1.436   .     S
C198   C299    1.490   1_455 S
C198   C315    1.360   1_455 S
C199   C248    1.490   .     S
C199   C256    1.360   .     S
C200   H207    1.083   .     S
C201   H215    1.083   .     S
C201   C350    1.383   .     S
C202   H216    1.083   .     S
C202   C374    1.383   .     S
Cu203  N223    2.012   .     S
Cu203  O232    1.965   .     S
Cu203  Cu204   2.678   .     S
Cu203  O225    1.964   .     S
Cu203  O228    1.962   .     S
Cu203  O229    1.965   .     S
Cu204  O230    1.965   .     S
Cu204  N224    2.012   .     S
Cu204  O227    1.962   .     S
Cu204  O231    1.965   .     S
Cu204  O226    1.964   .     S
H213   C1238   1.082   1_554 S
H221   C707    1.082   .     S
C233   C236    1.449   .     S
C233   O283    1.292   .     A
C233   O285    1.290   .     A
C234   C236    1.401   .     A
C234   H275    1.083   .     S
C235   C259    1.401   .     A
C235   C260    1.401   .     A
C235   C244    1.449   .     S
C236   C258    1.401   .     A
C237   N282    1.366   .     A
C237   H276    1.082   .     S
C237   C1283   1.416   1_554 S
C238   N281    1.366   .     A
C238   H277    1.082   .     S
C238   C762    1.416   .     S
C239   F263    1.355   .     S
C239   N281    1.369   .     A
C239   C759    1.416   .     S
C240   F264    1.355   .     S
C240   N282    1.369   .     A
C240   C1282   1.416   1_554 S
C241   C242    1.404   .     A
C241   C247    1.405   .     A
C241   C314    1.490   .     S
C242   H278    1.082   .     S
C242   C243    1.399   .     A
C243   C245    1.398   .     A
C243   H1323   1.082   1_554 S
C244   O284    1.292   .     A
C244   O286    1.290   .     A
C245   H280    1.082   .     S
C245   C246    1.398   .     A
C246   H266    1.082   .     S
C246   C247    1.398   .     A
C247   H267    1.083   .     S
C248   C253    1.404   .     A
C248   C249    1.405   .     A
C249   C250    1.398   .     A
C249   H268    1.083   .     S
C250   H269    1.082   .     S
C250   C251    1.398   .     A
C251   H270    1.082   .     S
C251   C252    1.398   .     A
C252   C253    1.399   .     A
C252   H793    1.082   .     S
C253   H272    1.082   .     S
C254   O287    1.282   .     A
C254   O289    1.290   .     A
C254   C256    1.436   .     S
C255   O290    1.290   .     A
C255   O288    1.282   .     A
C255   C257    1.436   .     S
C257   C306    1.490   .     S
C257   C314    1.360   .     S
C258   H265    1.083   .     S
C259   H273    1.083   .     S
C259   C408    1.383   .     S
C260   H274    1.083   .     S
C260   C432    1.383   .     S
Cu261  N281    2.012   .     S
Cu261  O290    1.965   .     S
Cu261  Cu262   2.678   .     S
Cu261  O283    1.964   .     S
Cu261  O286    1.962   .     S
Cu261  O287    1.965   .     S
Cu262  O288    1.965   .     S
Cu262  N282    2.012   .     S
Cu262  O285    1.962   .     S
Cu262  O289    1.965   .     S
Cu262  O284    1.964   .     S
H271   C1296   1.082   1_554 S
H279   C765    1.082   .     S
C291   C294    1.449   .     S
C291   O341    1.292   .     A
C291   O343    1.290   .     A
C292   C294    1.401   .     A
C292   H333    1.083   .     S
C293   C317    1.401   .     A
C293   C318    1.401   .     A
C293   C302    1.449   .     S
C294   C316    1.401   .     A
C295   N340    1.366   .     A
C295   H334    1.082   .     S
C295   C1341   1.416   1_554 S
C296   N339    1.366   .     A
C296   H335    1.082   .     S
C296   C820    1.416   .     S
C297   F321    1.355   .     S
C297   N339    1.369   .     A
C297   C817    1.416   .     S
C298   F322    1.355   .     S
C298   N340    1.369   .     A
C298   C1340   1.416   1_554 S
C299   C300    1.404   .     A
C299   C305    1.405   .     A
C299   C198    1.490   1_655 S
C300   H336    1.082   .     S
C300   C301    1.399   .     A
C301   C303    1.398   .     A
C301   H1381   1.082   1_554 S
C302   O342    1.292   .     A
C302   O344    1.290   .     A
C303   H338    1.082   .     S
C303   C304    1.398   .     A
C304   H324    1.082   .     S
C304   C305    1.398   .     A
C305   H325    1.083   .     S
C306   C311    1.404   .     A
C306   C307    1.405   .     A
C307   C308    1.398   .     A
C307   H326    1.083   .     S
C308   H327    1.082   .     S
C308   C309    1.398   .     A
C309   H328    1.082   .     S
C309   C310    1.398   .     A
C310   C311    1.399   .     A
C310   H851    1.082   .     S
C311   H330    1.082   .     S
C312   O345    1.282   .     A
C312   O347    1.290   .     A
C312   C314    1.436   .     S
C313   O348    1.290   .     A
C313   O346    1.282   .     A
C313   C315    1.436   .     S
C315   C190    1.490   1_655 S
C315   C198    1.360   1_655 S
C316   H323    1.083   .     S
C317   H331    1.083   .     S
C317   C466    1.383   .     S
C318   H332    1.083   .     S
C318   C490    1.383   .     S
Cu319  N339    2.012   .     S
Cu319  O348    1.965   .     S
Cu319  Cu320   2.678   .     S
Cu319  O341    1.964   .     S
Cu319  O344    1.962   .     S
Cu319  O345    1.965   .     S
Cu320  O346    1.965   .     S
Cu320  N340    2.012   .     S
Cu320  O343    1.962   .     S
Cu320  O347    1.965   .     S
Cu320  O342    1.964   .     S
H329   C1354   1.082   1_554 S
H337   C823    1.082   .     S
C349   C352    1.449   .     S
C349   O399    1.292   .     A
C349   O401    1.290   .     A
C350   C352    1.401   .     A
C350   H391    1.083   .     S
C351   C375    1.401   .     A
C351   C376    1.401   .     A
C351   C360    1.449   .     S
C352   C374    1.401   .     A
C353   N398    1.366   .     A
C353   H392    1.082   .     S
C353   C1399   1.416   1_554 S
C354   N397    1.366   .     A
C354   H393    1.082   .     S
C354   C878    1.416   .     S
C355   F379    1.355   .     S
C355   N397    1.369   .     A
C355   C875    1.416   .     S
C356   F380    1.355   .     S
C356   N398    1.369   .     A
C356   C1398   1.416   1_554 S
C357   C358    1.404   .     A
C357   C363    1.405   .     A
C357   C430    1.490   .     S
C358   H394    1.082   .     S
C358   C359    1.399   .     A
C359   C361    1.398   .     A
C359   H1439   1.082   1_554 S
C360   O400    1.292   .     A
C360   O402    1.290   .     A
C361   H396    1.082   .     S
C361   C362    1.398   .     A
C362   H382    1.082   .     S
C362   C363    1.398   .     A
C363   H383    1.083   .     S
C364   C369    1.404   .     A
C364   C365    1.405   .     A
C364   C489    1.490   1_455 S
C365   C366    1.398   .     A
C365   H384    1.083   .     S
C366   H385    1.082   .     S
C366   C367    1.398   .     A
C367   H386    1.082   .     S
C367   C368    1.398   .     A
C368   C369    1.399   .     A
C368   H909    1.082   .     S
C369   H388    1.082   .     S
C370   O403    1.282   .     A
C370   O405    1.290   .     A
C370   C372    1.436   .     S
C371   O406    1.290   .     A
C371   O404    1.282   .     A
C371   C373    1.436   .     S
C372   C473    1.490   1_455 S
C372   C489    1.360   1_455 S
C373   C422    1.490   .     S
C373   C430    1.360   .     S
C374   H381    1.083   .     S
C375   H389    1.083   .     S
C375   C2      1.383   1_565 S
C376   H390    1.083   .     S
C376   C26     1.383   1_565 S
Cu377  N397    2.012   .     S
Cu377  O406    1.965   .     S
Cu377  Cu378   2.678   .     S
Cu377  O399    1.964   .     S
Cu377  O402    1.962   .     S
Cu377  O403    1.965   .     S
Cu378  O404    1.965   .     S
Cu378  N398    2.012   .     S
Cu378  O401    1.962   .     S
Cu378  O405    1.965   .     S
Cu378  O400    1.964   .     S
H387   C1412   1.082   1_554 S
H395   C881    1.082   .     S
C407   C410    1.449   .     S
C407   O457    1.292   .     A
C407   O459    1.290   .     A
C408   C410    1.401   .     A
C408   H449    1.083   .     S
C409   C433    1.401   .     A
C409   C434    1.401   .     A
C409   C418    1.449   .     S
C410   C432    1.401   .     A
C411   N456    1.366   .     A
C411   H450    1.082   .     S
C411   C1457   1.416   1_554 S
C412   N455    1.366   .     A
C412   H451    1.082   .     S
C412   C936    1.416   .     S
C413   F437    1.355   .     S
C413   N455    1.369   .     A
C413   C933    1.416   .     S
C414   F438    1.355   .     S
C414   N456    1.369   .     A
C414   C1456   1.416   1_554 S
C415   C416    1.404   .     A
C415   C421    1.405   .     A
C415   C488    1.490   .     S
C416   H452    1.082   .     S
C416   C417    1.399   .     A
C417   C419    1.398   .     A
C417   H1497   1.082   1_554 S
C418   O458    1.292   .     A
C418   O460    1.290   .     A
C419   H454    1.082   .     S
C419   C420    1.398   .     A
C420   H440    1.082   .     S
C420   C421    1.398   .     A
C421   H441    1.083   .     S
C422   C427    1.404   .     A
C422   C423    1.405   .     A
C423   C424    1.398   .     A
C423   H442    1.083   .     S
C424   H443    1.082   .     S
C424   C425    1.398   .     A
C425   H444    1.082   .     S
C425   C426    1.398   .     A
C426   C427    1.399   .     A
C426   H967    1.082   .     S
C427   H446    1.082   .     S
C428   O461    1.282   .     A
C428   O463    1.290   .     A
C428   C430    1.436   .     S
C429   O464    1.290   .     A
C429   O462    1.282   .     A
C429   C431    1.436   .     S
C431   C480    1.490   .     S
C431   C488    1.360   .     S
C432   H439    1.083   .     S
C433   H447    1.083   .     S
C433   C60     1.383   1_565 S
C434   H448    1.083   .     S
C434   C84     1.383   1_565 S
Cu435  N455    2.012   .     S
Cu435  O464    1.965   .     S
Cu435  Cu436   2.678   .     S
Cu435  O457    1.964   .     S
Cu435  O460    1.962   .     S
Cu435  O461    1.965   .     S
Cu436  O462    1.965   .     S
Cu436  N456    2.012   .     S
Cu436  O459    1.962   .     S
Cu436  O463    1.965   .     S
Cu436  O458    1.964   .     S
H445   C1470   1.082   1_554 S
H453   C939    1.082   .     S
C465   C468    1.449   .     S
C465   O515    1.292   .     A
C465   O517    1.290   .     A
C466   C468    1.401   .     A
C466   H507    1.083   .     S
C467   C491    1.401   .     A
C467   C492    1.401   .     A
C467   C476    1.449   .     S
C468   C490    1.401   .     A
C469   N514    1.366   .     A
C469   H508    1.082   .     S
C469   C1515   1.416   1_554 S
C470   N513    1.366   .     A
C470   H509    1.082   .     S
C470   C994    1.416   .     S
C471   F495    1.355   .     S
C471   N513    1.369   .     A
C471   C991    1.416   .     S
C472   F496    1.355   .     S
C472   N514    1.369   .     A
C472   C1514   1.416   1_554 S
C473   C474    1.404   .     A
C473   C479    1.405   .     A
C473   C372    1.490   1_655 S
C474   H510    1.082   .     S
C474   C475    1.399   .     A
C475   C477    1.398   .     A
C475   H1555   1.082   1_554 S
C476   O516    1.292   .     A
C476   O518    1.290   .     A
C477   H512    1.082   .     S
C477   C478    1.398   .     A
C478   H498    1.082   .     S
C478   C479    1.398   .     A
C479   H499    1.083   .     S
C480   C485    1.404   .     A
C480   C481    1.405   .     A
C481   C482    1.398   .     A
C481   H500    1.083   .     S
C482   H501    1.082   .     S
C482   C483    1.398   .     A
C483   H502    1.082   .     S
C483   C484    1.398   .     A
C484   C485    1.399   .     A
C484   H1025   1.082   .     S
C485   H504    1.082   .     S
C486   O519    1.282   .     A
C486   O521    1.290   .     A
C486   C488    1.436   .     S
C487   O522    1.290   .     A
C487   O520    1.282   .     A
C487   C489    1.436   .     S
C489   C364    1.490   1_655 S
C489   C372    1.360   1_655 S
C490   H497    1.083   .     S
C491   H505    1.083   .     S
C491   C118    1.383   1_565 S
C492   H506    1.083   .     S
C492   C142    1.383   1_565 S
Cu493  N513    2.012   .     S
Cu493  O522    1.965   .     S
Cu493  Cu494   2.678   .     S
Cu493  O515    1.964   .     S
Cu493  O518    1.962   .     S
Cu493  O519    1.965   .     S
Cu494  O520    1.965   .     S
Cu494  N514    2.012   .     S
Cu494  O517    1.962   .     S
Cu494  O521    1.965   .     S
Cu494  O516    1.964   .     S
H503   C1528   1.082   1_554 S
H511   C997    1.082   .     S
C523   C526    1.449   .     S
C523   O573    1.292   .     A
C523   O575    1.290   .     A
C524   C526    1.401   .     A
C524   H565    1.083   .     S
C524   C897    1.383   1_545 S
C525   C549    1.401   .     A
C525   C550    1.401   .     A
C525   C534    1.449   .     S
C526   C548    1.401   .     A
C527   N572    1.366   .     A
C527   H566    1.082   .     S
C528   N571    1.366   .     A
C528   H567    1.082   .     S
C528   C1052   1.416   .     S
C529   F553    1.355   .     S
C529   N571    1.369   .     A
C529   C1049   1.416   .     S
C530   F554    1.355   .     S
C530   N572    1.369   .     A
C531   C532    1.404   .     A
C531   C537    1.405   .     A
C531   C604    1.490   .     S
C532   H568    1.082   .     S
C532   C533    1.399   .     A
C533   C535    1.398   .     A
C534   O574    1.292   .     A
C534   O576    1.290   .     A
C535   H570    1.082   .     S
C535   C536    1.398   .     A
C536   H556    1.082   .     S
C536   C537    1.398   .     A
C537   H557    1.083   .     S
C538   C543    1.404   .     A
C538   C539    1.405   .     A
C538   C663    1.490   1_455 S
C539   C540    1.398   .     A
C539   H558    1.083   .     S
C540   H559    1.082   .     S
C540   C541    1.398   .     A
C541   H560    1.082   .     S
C541   C542    1.398   .     A
C542   C543    1.399   .     A
C542   H1083   1.082   .     S
C543   H562    1.082   .     S
C544   O577    1.282   .     A
C544   O579    1.290   .     A
C544   C546    1.436   .     S
C545   O580    1.290   .     A
C545   O578    1.282   .     A
C545   C547    1.436   .     S
C546   C647    1.490   1_455 S
C546   C663    1.360   1_455 S
C547   C596    1.490   .     S
C547   C604    1.360   .     S
C548   H555    1.083   .     S
C548   C898    1.383   1_545 S
C549   H563    1.083   .     S
C549   C698    1.383   .     S
C550   H564    1.083   .     S
C550   C722    1.383   .     S
Cu551  N571    2.012   .     S
Cu551  O580    1.965   .     S
Cu551  Cu552   2.678   .     S
Cu551  O573    1.964   .     S
Cu551  O576    1.962   .     S
Cu551  O577    1.965   .     S
Cu552  O578    1.965   .     S
Cu552  N572    2.012   .     S
Cu552  O575    1.962   .     S
Cu552  O579    1.965   .     S
Cu552  O574    1.964   .     S
H569   C1055   1.082   .     S
C581   C584    1.449   .     S
C581   O631    1.292   .     A
C581   O633    1.290   .     A
C582   C584    1.401   .     A
C582   H623    1.083   .     S
C582   C955    1.383   1_545 S
C583   C607    1.401   .     A
C583   C608    1.401   .     A
C583   C592    1.449   .     S
C584   C606    1.401   .     A
C585   N630    1.366   .     A
C585   H624    1.082   .     S
C586   N629    1.366   .     A
C586   H625    1.082   .     S
C586   C1110   1.416   .     S
C587   F611    1.355   .     S
C587   N629    1.369   .     A
C587   C1107   1.416   .     S
C588   F612    1.355   .     S
C588   N630    1.369   .     A
C589   C590    1.404   .     A
C589   C595    1.405   .     A
C589   C662    1.490   .     S
C590   H626    1.082   .     S
C590   C591    1.399   .     A
C591   C593    1.398   .     A
C592   O632    1.292   .     A
C592   O634    1.290   .     A
C593   H628    1.082   .     S
C593   C594    1.398   .     A
C594   H614    1.082   .     S
C594   C595    1.398   .     A
C595   H615    1.083   .     S
C596   C601    1.404   .     A
C596   C597    1.405   .     A
C597   C598    1.398   .     A
C597   H616    1.083   .     S
C598   H617    1.082   .     S
C598   C599    1.398   .     A
C599   H618    1.082   .     S
C599   C600    1.398   .     A
C600   C601    1.399   .     A
C600   H1141   1.082   .     S
C601   H620    1.082   .     S
C602   O635    1.282   .     A
C602   O637    1.290   .     A
C602   C604    1.436   .     S
C603   O638    1.290   .     A
C603   O636    1.282   .     A
C603   C605    1.436   .     S
C605   C654    1.490   .     S
C605   C662    1.360   .     S
C606   H613    1.083   .     S
C606   C956    1.383   1_545 S
C607   H621    1.083   .     S
C607   C756    1.383   .     S
C608   H622    1.083   .     S
C608   C780    1.383   .     S
Cu609  N629    2.012   .     S
Cu609  O638    1.965   .     S
Cu609  Cu610   2.678   .     S
Cu609  O631    1.964   .     S
Cu609  O634    1.962   .     S
Cu609  O635    1.965   .     S
Cu610  O636    1.965   .     S
Cu610  N630    2.012   .     S
Cu610  O633    1.962   .     S
Cu610  O637    1.965   .     S
Cu610  O632    1.964   .     S
H627   C1113   1.082   .     S
C639   C642    1.449   .     S
C639   O689    1.292   .     A
C639   O691    1.290   .     A
C640   C642    1.401   .     A
C640   H681    1.083   .     S
C640   C1013   1.383   1_545 S
C641   C665    1.401   .     A
C641   C666    1.401   .     A
C641   C650    1.449   .     S
C642   C664    1.401   .     A
C643   N688    1.366   .     A
C643   H682    1.082   .     S
C644   N687    1.366   .     A
C644   H683    1.082   .     S
C644   C1168   1.416   .     S
C645   F669    1.355   .     S
C645   N687    1.369   .     A
C645   C1165   1.416   .     S
C646   F670    1.355   .     S
C646   N688    1.369   .     A
C647   C648    1.404   .     A
C647   C653    1.405   .     A
C647   C546    1.490   1_655 S
C648   H684    1.082   .     S
C648   C649    1.399   .     A
C649   C651    1.398   .     A
C650   O690    1.292   .     A
C650   O692    1.290   .     A
C651   H686    1.082   .     S
C651   C652    1.398   .     A
C652   H672    1.082   .     S
C652   C653    1.398   .     A
C653   H673    1.083   .     S
C654   C659    1.404   .     A
C654   C655    1.405   .     A
C655   C656    1.398   .     A
C655   H674    1.083   .     S
C656   H675    1.082   .     S
C656   C657    1.398   .     A
C657   H676    1.082   .     S
C657   C658    1.398   .     A
C658   C659    1.399   .     A
C658   H1199   1.082   .     S
C659   H678    1.082   .     S
C660   O693    1.282   .     A
C660   O695    1.290   .     A
C660   C662    1.436   .     S
C661   O696    1.290   .     A
C661   O694    1.282   .     A
C661   C663    1.436   .     S
C663   C538    1.490   1_655 S
C663   C546    1.360   1_655 S
C664   H671    1.083   .     S
C664   C1014   1.383   1_545 S
C665   H679    1.083   .     S
C665   C814    1.383   .     S
C666   H680    1.083   .     S
C666   C838    1.383   .     S
Cu667  N687    2.012   .     S
Cu667  O696    1.965   .     S
Cu667  Cu668   2.678   .     S
Cu667  O689    1.964   .     S
Cu667  O692    1.962   .     S
Cu667  O693    1.965   .     S
Cu668  O694    1.965   .     S
Cu668  N688    2.012   .     S
Cu668  O691    1.962   .     S
Cu668  O695    1.965   .     S
Cu668  O690    1.964   .     S
H685   C1171   1.082   .     S
C697   C700    1.449   .     S
C697   O747    1.292   .     A
C697   O749    1.290   .     A
C698   C700    1.401   .     A
C698   H739    1.083   .     S
C699   C723    1.401   .     A
C699   C724    1.401   .     A
C699   C708    1.449   .     S
C700   C722    1.401   .     A
C701   N746    1.366   .     A
C701   H740    1.082   .     S
C702   N745    1.366   .     A
C702   H741    1.082   .     S
C702   C1226   1.416   .     S
C703   F727    1.355   .     S
C703   N745    1.369   .     A
C703   C1223   1.416   .     S
C704   F728    1.355   .     S
C704   N746    1.369   .     A
C705   C706    1.404   .     A
C705   C711    1.405   .     A
C705   C778    1.490   .     S
C706   H742    1.082   .     S
C706   C707    1.399   .     A
C707   C709    1.398   .     A
C708   O748    1.292   .     A
C708   O750    1.290   .     A
C709   H744    1.082   .     S
C709   C710    1.398   .     A
C710   H730    1.082   .     S
C710   C711    1.398   .     A
C711   H731    1.083   .     S
C712   C717    1.404   .     A
C712   C713    1.405   .     A
C712   C837    1.490   1_455 S
C713   C714    1.398   .     A
C713   H732    1.083   .     S
C714   H733    1.082   .     S
C714   C715    1.398   .     A
C715   H734    1.082   .     S
C715   C716    1.398   .     A
C716   C717    1.399   .     A
C716   H1257   1.082   .     S
C717   H736    1.082   .     S
C718   O751    1.282   .     A
C718   O753    1.290   .     A
C718   C720    1.436   .     S
C719   O754    1.290   .     A
C719   O752    1.282   .     A
C719   C721    1.436   .     S
C720   C821    1.490   1_455 S
C720   C837    1.360   1_455 S
C721   C770    1.490   .     S
C721   C778    1.360   .     S
C722   H729    1.083   .     S
C723   H737    1.083   .     S
C723   C872    1.383   .     S
C724   H738    1.083   .     S
C724   C896    1.383   .     S
Cu725  N745    2.012   .     S
Cu725  O754    1.965   .     S
Cu725  Cu726   2.678   .     S
Cu725  O747    1.964   .     S
Cu725  O750    1.962   .     S
Cu725  O751    1.965   .     S
Cu726  O752    1.965   .     S
Cu726  N746    2.012   .     S
Cu726  O749    1.962   .     S
Cu726  O753    1.965   .     S
Cu726  O748    1.964   .     S
H743   C1229   1.082   .     S
C755   C758    1.449   .     S
C755   O805    1.292   .     A
C755   O807    1.290   .     A
C756   C758    1.401   .     A
C756   H797    1.083   .     S
C757   C781    1.401   .     A
C757   C782    1.401   .     A
C757   C766    1.449   .     S
C758   C780    1.401   .     A
C759   N804    1.366   .     A
C759   H798    1.082   .     S
C760   N803    1.366   .     A
C760   H799    1.082   .     S
C760   C1284   1.416   .     S
C761   F785    1.355   .     S
C761   N803    1.369   .     A
C761   C1281   1.416   .     S
C762   F786    1.355   .     S
C762   N804    1.369   .     A
C763   C764    1.404   .     A
C763   C769    1.405   .     A
C763   C836    1.490   .     S
C764   H800    1.082   .     S
C764   C765    1.399   .     A
C765   C767    1.398   .     A
C766   O806    1.292   .     A
C766   O808    1.290   .     A
C767   H802    1.082   .     S
C767   C768    1.398   .     A
C768   H788    1.082   .     S
C768   C769    1.398   .     A
C769   H789    1.083   .     S
C770   C775    1.404   .     A
C770   C771    1.405   .     A
C771   C772    1.398   .     A
C771   H790    1.083   .     S
C772   H791    1.082   .     S
C772   C773    1.398   .     A
C773   H792    1.082   .     S
C773   C774    1.398   .     A
C774   C775    1.399   .     A
C774   H1315   1.082   .     S
C775   H794    1.082   .     S
C776   O809    1.282   .     A
C776   O811    1.290   .     A
C776   C778    1.436   .     S
C777   O812    1.290   .     A
C777   O810    1.282   .     A
C777   C779    1.436   .     S
C779   C828    1.490   .     S
C779   C836    1.360   .     S
C780   H787    1.083   .     S
C781   H795    1.083   .     S
C781   C930    1.383   .     S
C782   H796    1.083   .     S
C782   C954    1.383   .     S
Cu783  N803    2.012   .     S
Cu783  O812    1.965   .     S
Cu783  Cu784   2.678   .     S
Cu783  O805    1.964   .     S
Cu783  O808    1.962   .     S
Cu783  O809    1.965   .     S
Cu784  O810    1.965   .     S
Cu784  N804    2.012   .     S
Cu784  O807    1.962   .     S
Cu784  O811    1.965   .     S
Cu784  O806    1.964   .     S
H801   C1287   1.082   .     S
C813   C816    1.449   .     S
C813   O863    1.292   .     A
C813   O865    1.290   .     A
C814   C816    1.401   .     A
C814   H855    1.083   .     S
C815   C839    1.401   .     A
C815   C840    1.401   .     A
C815   C824    1.449   .     S
C816   C838    1.401   .     A
C817   N862    1.366   .     A
C817   H856    1.082   .     S
C818   N861    1.366   .     A
C818   H857    1.082   .     S
C818   C1342   1.416   .     S
C819   F843    1.355   .     S
C819   N861    1.369   .     A
C819   C1339   1.416   .     S
C820   F844    1.355   .     S
C820   N862    1.369   .     A
C821   C822    1.404   .     A
C821   C827    1.405   .     A
C821   C720    1.490   1_655 S
C822   H858    1.082   .     S
C822   C823    1.399   .     A
C823   C825    1.398   .     A
C824   O864    1.292   .     A
C824   O866    1.290   .     A
C825   H860    1.082   .     S
C825   C826    1.398   .     A
C826   H846    1.082   .     S
C826   C827    1.398   .     A
C827   H847    1.083   .     S
C828   C833    1.404   .     A
C828   C829    1.405   .     A
C829   C830    1.398   .     A
C829   H848    1.083   .     S
C830   H849    1.082   .     S
C830   C831    1.398   .     A
C831   H850    1.082   .     S
C831   C832    1.398   .     A
C832   C833    1.399   .     A
C832   H1373   1.082   .     S
C833   H852    1.082   .     S
C834   O867    1.282   .     A
C834   O869    1.290   .     A
C834   C836    1.436   .     S
C835   O870    1.290   .     A
C835   O868    1.282   .     A
C835   C837    1.436   .     S
C837   C712    1.490   1_655 S
C837   C720    1.360   1_655 S
C838   H845    1.083   .     S
C839   H853    1.083   .     S
C839   C988    1.383   .     S
C840   H854    1.083   .     S
C840   C1012   1.383   .     S
Cu841  N861    2.012   .     S
Cu841  O870    1.965   .     S
Cu841  Cu842   2.678   .     S
Cu841  O863    1.964   .     S
Cu841  O866    1.962   .     S
Cu841  O867    1.965   .     S
Cu842  O868    1.965   .     S
Cu842  N862    2.012   .     S
Cu842  O865    1.962   .     S
Cu842  O869    1.965   .     S
Cu842  O864    1.964   .     S
H859   C1345   1.082   .     S
C871   C874    1.449   .     S
C871   O921    1.292   .     A
C871   O923    1.290   .     A
C872   C874    1.401   .     A
C872   H913    1.083   .     S
C873   C897    1.401   .     A
C873   C898    1.401   .     A
C873   C882    1.449   .     S
C874   C896    1.401   .     A
C875   N920    1.366   .     A
C875   H914    1.082   .     S
C876   N919    1.366   .     A
C876   H915    1.082   .     S
C876   C1400   1.416   .     S
C877   F901    1.355   .     S
C877   N919    1.369   .     A
C877   C1397   1.416   .     S
C878   F902    1.355   .     S
C878   N920    1.369   .     A
C879   C880    1.404   .     A
C879   C885    1.405   .     A
C879   C952    1.490   .     S
C880   H916    1.082   .     S
C880   C881    1.399   .     A
C881   C883    1.398   .     A
C882   O922    1.292   .     A
C882   O924    1.290   .     A
C883   H918    1.082   .     S
C883   C884    1.398   .     A
C884   H904    1.082   .     S
C884   C885    1.398   .     A
C885   H905    1.083   .     S
C886   C891    1.404   .     A
C886   C887    1.405   .     A
C886   C1011   1.490   1_455 S
C887   C888    1.398   .     A
C887   H906    1.083   .     S
C888   H907    1.082   .     S
C888   C889    1.398   .     A
C889   H908    1.082   .     S
C889   C890    1.398   .     A
C890   C891    1.399   .     A
C890   H1431   1.082   .     S
C891   H910    1.082   .     S
C892   O925    1.282   .     A
C892   O927    1.290   .     A
C892   C894    1.436   .     S
C893   O928    1.290   .     A
C893   O926    1.282   .     A
C893   C895    1.436   .     S
C894   C995    1.490   1_455 S
C894   C1011   1.360   1_455 S
C895   C944    1.490   .     S
C895   C952    1.360   .     S
C896   H903    1.083   .     S
C897   H911    1.083   .     S
C897   C524    1.383   1_565 S
C898   H912    1.083   .     S
C898   C548    1.383   1_565 S
Cu899  N919    2.012   .     S
Cu899  O928    1.965   .     S
Cu899  Cu900   2.678   .     S
Cu899  O921    1.964   .     S
Cu899  O924    1.962   .     S
Cu899  O925    1.965   .     S
Cu900  O926    1.965   .     S
Cu900  N920    2.012   .     S
Cu900  O923    1.962   .     S
Cu900  O927    1.965   .     S
Cu900  O922    1.964   .     S
H917   C1403   1.082   .     S
C929   C932    1.449   .     S
C929   O979    1.292   .     A
C929   O981    1.290   .     A
C930   C932    1.401   .     A
C930   H971    1.083   .     S
C931   C955    1.401   .     A
C931   C956    1.401   .     A
C931   C940    1.449   .     S
C932   C954    1.401   .     A
C933   N978    1.366   .     A
C933   H972    1.082   .     S
C934   N977    1.366   .     A
C934   H973    1.082   .     S
C934   C1458   1.416   .     S
C935   F959    1.355   .     S
C935   N977    1.369   .     A
C935   C1455   1.416   .     S
C936   F960    1.355   .     S
C936   N978    1.369   .     A
C937   C938    1.404   .     A
C937   C943    1.405   .     A
C937   C1010   1.490   .     S
C938   H974    1.082   .     S
C938   C939    1.399   .     A
C939   C941    1.398   .     A
C940   O980    1.292   .     A
C940   O982    1.290   .     A
C941   H976    1.082   .     S
C941   C942    1.398   .     A
C942   H962    1.082   .     S
C942   C943    1.398   .     A
C943   H963    1.083   .     S
C944   C949    1.404   .     A
C944   C945    1.405   .     A
C945   C946    1.398   .     A
C945   H964    1.083   .     S
C946   H965    1.082   .     S
C946   C947    1.398   .     A
C947   H966    1.082   .     S
C947   C948    1.398   .     A
C948   C949    1.399   .     A
C948   H1489   1.082   .     S
C949   H968    1.082   .     S
C950   O983    1.282   .     A
C950   O985    1.290   .     A
C950   C952    1.436   .     S
C951   O986    1.290   .     A
C951   O984    1.282   .     A
C951   C953    1.436   .     S
C953   C1002   1.490   .     S
C953   C1010   1.360   .     S
C954   H961    1.083   .     S
C955   H969    1.083   .     S
C955   C582    1.383   1_565 S
C956   H970    1.083   .     S
C956   C606    1.383   1_565 S
Cu957  N977    2.012   .     S
Cu957  O986    1.965   .     S
Cu957  Cu958   2.678   .     S
Cu957  O979    1.964   .     S
Cu957  O982    1.962   .     S
Cu957  O983    1.965   .     S
Cu958  O984    1.965   .     S
Cu958  N978    2.012   .     S
Cu958  O981    1.962   .     S
Cu958  O985    1.965   .     S
Cu958  O980    1.964   .     S
H975   C1461   1.082   .     S
C987   C990    1.449   .     S
C987   O1037   1.292   .     A
C987   O1039   1.290   .     A
C988   C990    1.401   .     A
C988   H1029   1.083   .     S
C989   C1013   1.401   .     A
C989   C1014   1.401   .     A
C989   C998    1.449   .     S
C990   C1012   1.401   .     A
C991   N1036   1.366   .     A
C991   H1030   1.082   .     S
C992   N1035   1.366   .     A
C992   H1031   1.082   .     S
C992   C1516   1.416   .     S
C993   F1017   1.355   .     S
C993   N1035   1.369   .     A
C993   C1513   1.416   .     S
C994   F1018   1.355   .     S
C994   N1036   1.369   .     A
C995   C996    1.404   .     A
C995   C1001   1.405   .     A
C995   C894    1.490   1_655 S
C996   H1032   1.082   .     S
C996   C997    1.399   .     A
C997   C999    1.398   .     A
C998   O1038   1.292   .     A
C998   O1040   1.290   .     A
C999   H1034   1.082   .     S
C999   C1000   1.398   .     A
C1000  H1020   1.082   .     S
C1000  C1001   1.398   .     A
C1001  H1021   1.083   .     S
C1002  C1007   1.404   .     A
C1002  C1003   1.405   .     A
C1003  C1004   1.398   .     A
C1003  H1022   1.083   .     S
C1004  H1023   1.082   .     S
C1004  C1005   1.398   .     A
C1005  H1024   1.082   .     S
C1005  C1006   1.398   .     A
C1006  C1007   1.399   .     A
C1006  H1547   1.082   .     S
C1007  H1026   1.082   .     S
C1008  O1041   1.282   .     A
C1008  O1043   1.290   .     A
C1008  C1010   1.436   .     S
C1009  O1044   1.290   .     A
C1009  O1042   1.282   .     A
C1009  C1011   1.436   .     S
C1011  C886    1.490   1_655 S
C1011  C894    1.360   1_655 S
C1012  H1019   1.083   .     S
C1013  H1027   1.083   .     S
C1013  C640    1.383   1_565 S
C1014  H1028   1.083   .     S
C1014  C664    1.383   1_565 S
Cu1015 N1035   2.012   .     S
Cu1015 O1044   1.965   .     S
Cu1015 Cu1016  2.678   .     S
Cu1015 O1037   1.964   .     S
Cu1015 O1040   1.962   .     S
Cu1015 O1041   1.965   .     S
Cu1016 O1042   1.965   .     S
Cu1016 N1036   2.012   .     S
Cu1016 O1039   1.962   .     S
Cu1016 O1043   1.965   .     S
Cu1016 O1038   1.964   .     S
H1033  C1519   1.082   .     S
C1045  C1048   1.449   .     S
C1045  O1095   1.292   .     A
C1045  O1097   1.290   .     A
C1046  C1048   1.401   .     A
C1046  H1087   1.083   .     S
C1046  C1419   1.383   1_545 S
C1047  C1071   1.401   .     A
C1047  C1072   1.401   .     A
C1047  C1056   1.449   .     S
C1048  C1070   1.401   .     A
C1049  N1094   1.366   .     A
C1049  H1088   1.082   .     S
C1050  N1093   1.366   .     A
C1050  H1089   1.082   .     S
C1050  C8      1.416   1_556 S
C1051  F1075   1.355   .     S
C1051  N1093   1.369   .     A
C1051  C5      1.416   1_556 S
C1052  F1076   1.355   .     S
C1052  N1094   1.369   .     A
C1053  C1054   1.404   .     A
C1053  C1059   1.405   .     A
C1053  C1126   1.490   .     S
C1054  H1090   1.082   .     S
C1054  C1055   1.399   .     A
C1055  C1057   1.398   .     A
C1056  O1096   1.292   .     A
C1056  O1098   1.290   .     A
C1057  H1092   1.082   .     S
C1057  C1058   1.398   .     A
C1058  H1078   1.082   .     S
C1058  C1059   1.398   .     A
C1059  H1079   1.083   .     S
C1060  C1065   1.404   .     A
C1060  C1061   1.405   .     A
C1060  C1185   1.490   1_455 S
C1061  C1062   1.398   .     A
C1061  H1080   1.083   .     S
C1062  H1081   1.082   .     S
C1062  C1063   1.398   .     A
C1063  H1082   1.082   .     S
C1063  C1064   1.398   .     A
C1064  C1065   1.399   .     A
C1064  H39     1.082   1_556 S
C1065  H1084   1.082   .     S
C1066  O1099   1.282   .     A
C1066  O1101   1.290   .     A
C1066  C1068   1.436   .     S
C1067  O1102   1.290   .     A
C1067  O1100   1.282   .     A
C1067  C1069   1.436   .     S
C1068  C1169   1.490   1_455 S
C1068  C1185   1.360   1_455 S
C1069  C1118   1.490   .     S
C1069  C1126   1.360   .     S
C1070  H1077   1.083   .     S
C1070  C1420   1.383   1_545 S
C1071  H1085   1.083   .     S
C1071  C1220   1.383   .     S
C1072  H1086   1.083   .     S
C1072  C1244   1.383   .     S
Cu1073 N1093   2.012   .     S
Cu1073 O1102   1.965   .     S
Cu1073 Cu1074  2.678   .     S
Cu1073 O1095   1.964   .     S
Cu1073 O1098   1.962   .     S
Cu1073 O1099   1.965   .     S
Cu1074 O1100   1.965   .     S
Cu1074 N1094   2.012   .     S
Cu1074 O1097   1.962   .     S
Cu1074 O1101   1.965   .     S
Cu1074 O1096   1.964   .     S
H1091  C11     1.082   1_556 S
C1103  C1106   1.449   .     S
C1103  O1153   1.292   .     A
C1103  O1155   1.290   .     A
C1104  C1106   1.401   .     A
C1104  H1145   1.083   .     S
C1104  C1477   1.383   1_545 S
C1105  C1129   1.401   .     A
C1105  C1130   1.401   .     A
C1105  C1114   1.449   .     S
C1106  C1128   1.401   .     A
C1107  N1152   1.366   .     A
C1107  H1146   1.082   .     S
C1108  N1151   1.366   .     A
C1108  H1147   1.082   .     S
C1108  C66     1.416   1_556 S
C1109  F1133   1.355   .     S
C1109  N1151   1.369   .     A
C1109  C63     1.416   1_556 S
C1110  F1134   1.355   .     S
C1110  N1152   1.369   .     A
C1111  C1112   1.404   .     A
C1111  C1117   1.405   .     A
C1111  C1184   1.490   .     S
C1112  H1148   1.082   .     S
C1112  C1113   1.399   .     A
C1113  C1115   1.398   .     A
C1114  O1154   1.292   .     A
C1114  O1156   1.290   .     A
C1115  H1150   1.082   .     S
C1115  C1116   1.398   .     A
C1116  H1136   1.082   .     S
C1116  C1117   1.398   .     A
C1117  H1137   1.083   .     S
C1118  C1123   1.404   .     A
C1118  C1119   1.405   .     A
C1119  C1120   1.398   .     A
C1119  H1138   1.083   .     S
C1120  H1139   1.082   .     S
C1120  C1121   1.398   .     A
C1121  H1140   1.082   .     S
C1121  C1122   1.398   .     A
C1122  C1123   1.399   .     A
C1122  H97     1.082   1_556 S
C1123  H1142   1.082   .     S
C1124  O1157   1.282   .     A
C1124  O1159   1.290   .     A
C1124  C1126   1.436   .     S
C1125  O1160   1.290   .     A
C1125  O1158   1.282   .     A
C1125  C1127   1.436   .     S
C1127  C1176   1.490   .     S
C1127  C1184   1.360   .     S
C1128  H1135   1.083   .     S
C1128  C1478   1.383   1_545 S
C1129  H1143   1.083   .     S
C1129  C1278   1.383   .     S
C1130  H1144   1.083   .     S
C1130  C1302   1.383   .     S
Cu1131 N1151   2.012   .     S
Cu1131 O1160   1.965   .     S
Cu1131 Cu1132  2.678   .     S
Cu1131 O1153   1.964   .     S
Cu1131 O1156   1.962   .     S
Cu1131 O1157   1.965   .     S
Cu1132 O1158   1.965   .     S
Cu1132 N1152   2.012   .     S
Cu1132 O1155   1.962   .     S
Cu1132 O1159   1.965   .     S
Cu1132 O1154   1.964   .     S
H1149  C69     1.082   1_556 S
C1161  C1164   1.449   .     S
C1161  O1211   1.292   .     A
C1161  O1213   1.290   .     A
C1162  C1164   1.401   .     A
C1162  H1203   1.083   .     S
C1162  C1535   1.383   1_545 S
C1163  C1187   1.401   .     A
C1163  C1188   1.401   .     A
C1163  C1172   1.449   .     S
C1164  C1186   1.401   .     A
C1165  N1210   1.366   .     A
C1165  H1204   1.082   .     S
C1166  N1209   1.366   .     A
C1166  H1205   1.082   .     S
C1166  C124    1.416   1_556 S
C1167  F1191   1.355   .     S
C1167  N1209   1.369   .     A
C1167  C121    1.416   1_556 S
C1168  F1192   1.355   .     S
C1168  N1210   1.369   .     A
C1169  C1170   1.404   .     A
C1169  C1175   1.405   .     A
C1169  C1068   1.490   1_655 S
C1170  H1206   1.082   .     S
C1170  C1171   1.399   .     A
C1171  C1173   1.398   .     A
C1172  O1212   1.292   .     A
C1172  O1214   1.290   .     A
C1173  H1208   1.082   .     S
C1173  C1174   1.398   .     A
C1174  H1194   1.082   .     S
C1174  C1175   1.398   .     A
C1175  H1195   1.083   .     S
C1176  C1181   1.404   .     A
C1176  C1177   1.405   .     A
C1177  C1178   1.398   .     A
C1177  H1196   1.083   .     S
C1178  H1197   1.082   .     S
C1178  C1179   1.398   .     A
C1179  H1198   1.082   .     S
C1179  C1180   1.398   .     A
C1180  C1181   1.399   .     A
C1180  H155    1.082   1_556 S
C1181  H1200   1.082   .     S
C1182  O1215   1.282   .     A
C1182  O1217   1.290   .     A
C1182  C1184   1.436   .     S
C1183  O1218   1.290   .     A
C1183  O1216   1.282   .     A
C1183  C1185   1.436   .     S
C1185  C1060   1.490   1_655 S
C1185  C1068   1.360   1_655 S
C1186  H1193   1.083   .     S
C1186  C1536   1.383   1_545 S
C1187  H1201   1.083   .     S
C1187  C1336   1.383   .     S
C1188  H1202   1.083   .     S
C1188  C1360   1.383   .     S
Cu1189 N1209   2.012   .     S
Cu1189 O1218   1.965   .     S
Cu1189 Cu1190  2.678   .     S
Cu1189 O1211   1.964   .     S
Cu1189 O1214   1.962   .     S
Cu1189 O1215   1.965   .     S
Cu1190 O1216   1.965   .     S
Cu1190 N1210   2.012   .     S
Cu1190 O1213   1.962   .     S
Cu1190 O1217   1.965   .     S
Cu1190 O1212   1.964   .     S
H1207  C127    1.082   1_556 S
C1219  C1222   1.449   .     S
C1219  O1269   1.292   .     A
C1219  O1271   1.290   .     A
C1220  C1222   1.401   .     A
C1220  H1261   1.083   .     S
C1221  C1245   1.401   .     A
C1221  C1246   1.401   .     A
C1221  C1230   1.449   .     S
C1222  C1244   1.401   .     A
C1223  N1268   1.366   .     A
C1223  H1262   1.082   .     S
C1224  N1267   1.366   .     A
C1224  H1263   1.082   .     S
C1224  C182    1.416   1_556 S
C1225  F1249   1.355   .     S
C1225  N1267   1.369   .     A
C1225  C179    1.416   1_556 S
C1226  F1250   1.355   .     S
C1226  N1268   1.369   .     A
C1227  C1228   1.404   .     A
C1227  C1233   1.405   .     A
C1227  C1300   1.490   .     S
C1228  H1264   1.082   .     S
C1228  C1229   1.399   .     A
C1229  C1231   1.398   .     A
C1230  O1270   1.292   .     A
C1230  O1272   1.290   .     A
C1231  H1266   1.082   .     S
C1231  C1232   1.398   .     A
C1232  H1252   1.082   .     S
C1232  C1233   1.398   .     A
C1233  H1253   1.083   .     S
C1234  C1239   1.404   .     A
C1234  C1235   1.405   .     A
C1234  C1359   1.490   1_455 S
C1235  C1236   1.398   .     A
C1235  H1254   1.083   .     S
C1236  H1255   1.082   .     S
C1236  C1237   1.398   .     A
C1237  H1256   1.082   .     S
C1237  C1238   1.398   .     A
C1238  C1239   1.399   .     A
C1238  H213    1.082   1_556 S
C1239  H1258   1.082   .     S
C1240  O1273   1.282   .     A
C1240  O1275   1.290   .     A
C1240  C1242   1.436   .     S
C1241  O1276   1.290   .     A
C1241  O1274   1.282   .     A
C1241  C1243   1.436   .     S
C1242  C1343   1.490   1_455 S
C1242  C1359   1.360   1_455 S
C1243  C1292   1.490   .     S
C1243  C1300   1.360   .     S
C1244  H1251   1.083   .     S
C1245  H1259   1.083   .     S
C1245  C1394   1.383   .     S
C1246  H1260   1.083   .     S
C1246  C1418   1.383   .     S
Cu1247 N1267   2.012   .     S
Cu1247 O1276   1.965   .     S
Cu1247 Cu1248  2.678   .     S
Cu1247 O1269   1.964   .     S
Cu1247 O1272   1.962   .     S
Cu1247 O1273   1.965   .     S
Cu1248 O1274   1.965   .     S
Cu1248 N1268   2.012   .     S
Cu1248 O1271   1.962   .     S
Cu1248 O1275   1.965   .     S
Cu1248 O1270   1.964   .     S
H1265  C185    1.082   1_556 S
C1277  C1280   1.449   .     S
C1277  O1327   1.292   .     A
C1277  O1329   1.290   .     A
C1278  C1280   1.401   .     A
C1278  H1319   1.083   .     S
C1279  C1303   1.401   .     A
C1279  C1304   1.401   .     A
C1279  C1288   1.449   .     S
C1280  C1302   1.401   .     A
C1281  N1326   1.366   .     A
C1281  H1320   1.082   .     S
C1282  N1325   1.366   .     A
C1282  H1321   1.082   .     S
C1282  C240    1.416   1_556 S
C1283  F1307   1.355   .     S
C1283  N1325   1.369   .     A
C1283  C237    1.416   1_556 S
C1284  F1308   1.355   .     S
C1284  N1326   1.369   .     A
C1285  C1286   1.404   .     A
C1285  C1291   1.405   .     A
C1285  C1358   1.490   .     S
C1286  H1322   1.082   .     S
C1286  C1287   1.399   .     A
C1287  C1289   1.398   .     A
C1288  O1328   1.292   .     A
C1288  O1330   1.290   .     A
C1289  H1324   1.082   .     S
C1289  C1290   1.398   .     A
C1290  H1310   1.082   .     S
C1290  C1291   1.398   .     A
C1291  H1311   1.083   .     S
C1292  C1297   1.404   .     A
C1292  C1293   1.405   .     A
C1293  C1294   1.398   .     A
C1293  H1312   1.083   .     S
C1294  H1313   1.082   .     S
C1294  C1295   1.398   .     A
C1295  H1314   1.082   .     S
C1295  C1296   1.398   .     A
C1296  C1297   1.399   .     A
C1296  H271    1.082   1_556 S
C1297  H1316   1.082   .     S
C1298  O1331   1.282   .     A
C1298  O1333   1.290   .     A
C1298  C1300   1.436   .     S
C1299  O1334   1.290   .     A
C1299  O1332   1.282   .     A
C1299  C1301   1.436   .     S
C1301  C1350   1.490   .     S
C1301  C1358   1.360   .     S
C1302  H1309   1.083   .     S
C1303  H1317   1.083   .     S
C1303  C1452   1.383   .     S
C1304  H1318   1.083   .     S
C1304  C1476   1.383   .     S
Cu1305 N1325   2.012   .     S
Cu1305 O1334   1.965   .     S
Cu1305 Cu1306  2.678   .     S
Cu1305 O1327   1.964   .     S
Cu1305 O1330   1.962   .     S
Cu1305 O1331   1.965   .     S
Cu1306 O1332   1.965   .     S
Cu1306 N1326   2.012   .     S
Cu1306 O1329   1.962   .     S
Cu1306 O1333   1.965   .     S
Cu1306 O1328   1.964   .     S
H1323  C243    1.082   1_556 S
C1335  C1338   1.449   .     S
C1335  O1385   1.292   .     A
C1335  O1387   1.290   .     A
C1336  C1338   1.401   .     A
C1336  H1377   1.083   .     S
C1337  C1361   1.401   .     A
C1337  C1362   1.401   .     A
C1337  C1346   1.449   .     S
C1338  C1360   1.401   .     A
C1339  N1384   1.366   .     A
C1339  H1378   1.082   .     S
C1340  N1383   1.366   .     A
C1340  H1379   1.082   .     S
C1340  C298    1.416   1_556 S
C1341  F1365   1.355   .     S
C1341  N1383   1.369   .     A
C1341  C295    1.416   1_556 S
C1342  F1366   1.355   .     S
C1342  N1384   1.369   .     A
C1343  C1344   1.404   .     A
C1343  C1349   1.405   .     A
C1343  C1242   1.490   1_655 S
C1344  H1380   1.082   .     S
C1344  C1345   1.399   .     A
C1345  C1347   1.398   .     A
C1346  O1386   1.292   .     A
C1346  O1388   1.290   .     A
C1347  H1382   1.082   .     S
C1347  C1348   1.398   .     A
C1348  H1368   1.082   .     S
C1348  C1349   1.398   .     A
C1349  H1369   1.083   .     S
C1350  C1355   1.404   .     A
C1350  C1351   1.405   .     A
C1351  C1352   1.398   .     A
C1351  H1370   1.083   .     S
C1352  H1371   1.082   .     S
C1352  C1353   1.398   .     A
C1353  H1372   1.082   .     S
C1353  C1354   1.398   .     A
C1354  C1355   1.399   .     A
C1354  H329    1.082   1_556 S
C1355  H1374   1.082   .     S
C1356  O1389   1.282   .     A
C1356  O1391   1.290   .     A
C1356  C1358   1.436   .     S
C1357  O1392   1.290   .     A
C1357  O1390   1.282   .     A
C1357  C1359   1.436   .     S
C1359  C1234   1.490   1_655 S
C1359  C1242   1.360   1_655 S
C1360  H1367   1.083   .     S
C1361  H1375   1.083   .     S
C1361  C1510   1.383   .     S
C1362  H1376   1.083   .     S
C1362  C1534   1.383   .     S
Cu1363 N1383   2.012   .     S
Cu1363 O1392   1.965   .     S
Cu1363 Cu1364  2.678   .     S
Cu1363 O1385   1.964   .     S
Cu1363 O1388   1.962   .     S
Cu1363 O1389   1.965   .     S
Cu1364 O1390   1.965   .     S
Cu1364 N1384   2.012   .     S
Cu1364 O1387   1.962   .     S
Cu1364 O1391   1.965   .     S
Cu1364 O1386   1.964   .     S
H1381  C301    1.082   1_556 S
C1393  C1396   1.449   .     S
C1393  O1443   1.292   .     A
C1393  O1445   1.290   .     A
C1394  C1396   1.401   .     A
C1394  H1435   1.083   .     S
C1395  C1419   1.401   .     A
C1395  C1420   1.401   .     A
C1395  C1404   1.449   .     S
C1396  C1418   1.401   .     A
C1397  N1442   1.366   .     A
C1397  H1436   1.082   .     S
C1398  N1441   1.366   .     A
C1398  H1437   1.082   .     S
C1398  C356    1.416   1_556 S
C1399  F1423   1.355   .     S
C1399  N1441   1.369   .     A
C1399  C353    1.416   1_556 S
C1400  F1424   1.355   .     S
C1400  N1442   1.369   .     A
C1401  C1402   1.404   .     A
C1401  C1407   1.405   .     A
C1401  C1474   1.490   .     S
C1402  H1438   1.082   .     S
C1402  C1403   1.399   .     A
C1403  C1405   1.398   .     A
C1404  O1444   1.292   .     A
C1404  O1446   1.290   .     A
C1405  H1440   1.082   .     S
C1405  C1406   1.398   .     A
C1406  H1426   1.082   .     S
C1406  C1407   1.398   .     A
C1407  H1427   1.083   .     S
C1408  C1413   1.404   .     A
C1408  C1409   1.405   .     A
C1408  C1533   1.490   1_455 S
C1409  C1410   1.398   .     A
C1409  H1428   1.083   .     S
C1410  H1429   1.082   .     S
C1410  C1411   1.398   .     A
C1411  H1430   1.082   .     S
C1411  C1412   1.398   .     A
C1412  C1413   1.399   .     A
C1412  H387    1.082   1_556 S
C1413  H1432   1.082   .     S
C1414  O1447   1.282   .     A
C1414  O1449   1.290   .     A
C1414  C1416   1.436   .     S
C1415  O1450   1.290   .     A
C1415  O1448   1.282   .     A
C1415  C1417   1.436   .     S
C1416  C1517   1.490   1_455 S
C1416  C1533   1.360   1_455 S
C1417  C1466   1.490   .     S
C1417  C1474   1.360   .     S
C1418  H1425   1.083   .     S
C1419  H1433   1.083   .     S
C1419  C1046   1.383   1_565 S
C1420  H1434   1.083   .     S
C1420  C1070   1.383   1_565 S
Cu1421 N1441   2.012   .     S
Cu1421 O1450   1.965   .     S
Cu1421 Cu1422  2.678   .     S
Cu1421 O1443   1.964   .     S
Cu1421 O1446   1.962   .     S
Cu1421 O1447   1.965   .     S
Cu1422 O1448   1.965   .     S
Cu1422 N1442   2.012   .     S
Cu1422 O1445   1.962   .     S
Cu1422 O1449   1.965   .     S
Cu1422 O1444   1.964   .     S
H1439  C359    1.082   1_556 S
C1451  C1454   1.449   .     S
C1451  O1501   1.292   .     A
C1451  O1503   1.290   .     A
C1452  C1454   1.401   .     A
C1452  H1493   1.083   .     S
C1453  C1477   1.401   .     A
C1453  C1478   1.401   .     A
C1453  C1462   1.449   .     S
C1454  C1476   1.401   .     A
C1455  N1500   1.366   .     A
C1455  H1494   1.082   .     S
C1456  N1499   1.366   .     A
C1456  H1495   1.082   .     S
C1456  C414    1.416   1_556 S
C1457  F1481   1.355   .     S
C1457  N1499   1.369   .     A
C1457  C411    1.416   1_556 S
C1458  F1482   1.355   .     S
C1458  N1500   1.369   .     A
C1459  C1460   1.404   .     A
C1459  C1465   1.405   .     A
C1459  C1532   1.490   .     S
C1460  H1496   1.082   .     S
C1460  C1461   1.399   .     A
C1461  C1463   1.398   .     A
C1462  O1502   1.292   .     A
C1462  O1504   1.290   .     A
C1463  H1498   1.082   .     S
C1463  C1464   1.398   .     A
C1464  H1484   1.082   .     S
C1464  C1465   1.398   .     A
C1465  H1485   1.083   .     S
C1466  C1471   1.404   .     A
C1466  C1467   1.405   .     A
C1467  C1468   1.398   .     A
C1467  H1486   1.083   .     S
C1468  H1487   1.082   .     S
C1468  C1469   1.398   .     A
C1469  H1488   1.082   .     S
C1469  C1470   1.398   .     A
C1470  C1471   1.399   .     A
C1470  H445    1.082   1_556 S
C1471  H1490   1.082   .     S
C1472  O1505   1.282   .     A
C1472  O1507   1.290   .     A
C1472  C1474   1.436   .     S
C1473  O1508   1.290   .     A
C1473  O1506   1.282   .     A
C1473  C1475   1.436   .     S
C1475  C1524   1.490   .     S
C1475  C1532   1.360   .     S
C1476  H1483   1.083   .     S
C1477  H1491   1.083   .     S
C1477  C1104   1.383   1_565 S
C1478  H1492   1.083   .     S
C1478  C1128   1.383   1_565 S
Cu1479 N1499   2.012   .     S
Cu1479 O1508   1.965   .     S
Cu1479 Cu1480  2.678   .     S
Cu1479 O1501   1.964   .     S
Cu1479 O1504   1.962   .     S
Cu1479 O1505   1.965   .     S
Cu1480 O1506   1.965   .     S
Cu1480 N1500   2.012   .     S
Cu1480 O1503   1.962   .     S
Cu1480 O1507   1.965   .     S
Cu1480 O1502   1.964   .     S
H1497  C417    1.082   1_556 S
C1509  C1512   1.449   .     S
C1509  O1559   1.292   .     A
C1509  O1561   1.290   .     A
C1510  C1512   1.401   .     A
C1510  H1551   1.083   .     S
C1511  C1535   1.401   .     A
C1511  C1536   1.401   .     A
C1511  C1520   1.449   .     S
C1512  C1534   1.401   .     A
C1513  N1558   1.366   .     A
C1513  H1552   1.082   .     S
C1514  N1557   1.366   .     A
C1514  H1553   1.082   .     S
C1514  C472    1.416   1_556 S
C1515  F1539   1.355   .     S
C1515  N1557   1.369   .     A
C1515  C469    1.416   1_556 S
C1516  F1540   1.355   .     S
C1516  N1558   1.369   .     A
C1517  C1518   1.404   .     A
C1517  C1523   1.405   .     A
C1517  C1416   1.490   1_655 S
C1518  H1554   1.082   .     S
C1518  C1519   1.399   .     A
C1519  C1521   1.398   .     A
C1520  O1560   1.292   .     A
C1520  O1562   1.290   .     A
C1521  H1556   1.082   .     S
C1521  C1522   1.398   .     A
C1522  H1542   1.082   .     S
C1522  C1523   1.398   .     A
C1523  H1543   1.083   .     S
C1524  C1529   1.404   .     A
C1524  C1525   1.405   .     A
C1525  C1526   1.398   .     A
C1525  H1544   1.083   .     S
C1526  H1545   1.082   .     S
C1526  C1527   1.398   .     A
C1527  H1546   1.082   .     S
C1527  C1528   1.398   .     A
C1528  C1529   1.399   .     A
C1528  H503    1.082   1_556 S
C1529  H1548   1.082   .     S
C1530  O1563   1.282   .     A
C1530  O1565   1.290   .     A
C1530  C1532   1.436   .     S
C1531  O1566   1.290   .     A
C1531  O1564   1.282   .     A
C1531  C1533   1.436   .     S
C1533  C1408   1.490   1_655 S
C1533  C1416   1.360   1_655 S
C1534  H1541   1.083   .     S
C1535  H1549   1.083   .     S
C1535  C1162   1.383   1_565 S
C1536  H1550   1.083   .     S
C1536  C1186   1.383   1_565 S
Cu1537 N1557   2.012   .     S
Cu1537 O1566   1.965   .     S
Cu1537 Cu1538  2.678   .     S
Cu1537 O1559   1.964   .     S
Cu1537 O1562   1.962   .     S
Cu1537 O1563   1.965   .     S
Cu1538 O1564   1.965   .     S
Cu1538 N1558   2.012   .     S
Cu1538 O1561   1.962   .     S
Cu1538 O1565   1.965   .     S
Cu1538 O1560   1.964   .     S
H1555  C475    1.082   1_556 S
