data_str_m1_o10_o16_pcu_sym.59
_audit_creation_date              2020-01-03
_audit_creation_method            'Materials Studio'
_symmetry_space_group_name_H-M    'P1'
_symmetry_Int_Tables_number       1
_symmetry_cell_setting            triclinic
loop_
_symmetry_equiv_pos_as_xyz
  x,y,z
_cell_length_a                    32.7469
_cell_length_b                    32.4871
_cell_length_c                    30.8155
_cell_angle_alpha                 96.2942
_cell_angle_beta                  75.4790
_cell_angle_gamma                 99.1339
loop_
_atom_site_label
_atom_site_type_symbol
_atom_site_fract_x
_atom_site_fract_y
_atom_site_fract_z
_atom_site_U_iso_or_equiv
_atom_site_adp_type
_atom_site_occupancy
C1     C     0.05302   0.15900   0.25979   0.00000  Uiso   1.00
C2     C     0.17812   0.16387   0.05592   0.00000  Uiso   1.00
C3     C     0.19768   0.09711   0.06395   0.00000  Uiso   1.00
C4     C     0.28075   0.17401   0.24053   0.00000  Uiso   1.00
C5     C     0.14001   0.19058   0.42056   0.00000  Uiso   1.00
C6     C     0.32595   0.17995   0.24061   0.00000  Uiso   1.00
C7     C     0.00832   0.15378   0.26211   0.00000  Uiso   1.00
C8     C     0.18038   0.32238   0.23360   0.00000  Uiso   1.00
C9     C     0.15339   0.01165   0.26292   0.00000  Uiso   1.00
C10    C     0.15565   0.05582   0.26069   0.00000  Uiso   1.00
C11    C     0.17668   0.27787   0.23962   0.00000  Uiso   1.00
C12    C     0.11798   0.23619   0.48725   0.00000  Uiso   1.00
C13    C     0.18513   0.14776   0.12925   0.00000  Uiso   1.00
C14    C     0.14812   0.18381   0.37108   0.00000  Uiso   1.00
C15    C     0.19093   0.08257   0.02186   0.00000  Uiso   1.00
C16    C     0.19111   0.13772   0.08112   0.00000  Uiso   1.00
C17    C     0.12670   0.22851   0.44088   0.00000  Uiso   1.00
C18    C     0.12546   0.20778   0.01434   0.00000  Uiso   1.00
C19    C     0.14626   0.17268   0.49358   0.00000  Uiso   1.00
C20    C     0.14718   0.16112   0.44769   0.00000  Uiso   1.00
C21    C     0.16549   0.14814   0.01622   0.00000  Uiso   1.00
C22    C     0.17445   0.10747   0.49747   0.00000  Uiso   1.00
C23    C     0.16625   0.09282   0.45523   0.00000  Uiso   1.00
C24    C     0.15348   0.11994   0.43077   0.00000  Uiso   1.00
H25    H     0.20687   0.07621   0.08382   0.00000  Uiso   1.00
H26    H     0.10358   0.26376   0.00227   0.00000  Uiso   1.00
H27    H     0.14677   0.10775   0.39898   0.00000  Uiso   1.00
H28    H     0.02230   0.27000   0.17035   0.00000  Uiso   1.00
H29    H     0.33140   0.05143   0.30663   0.00000  Uiso   1.00
H30    H     0.27386   0.32819   0.20442   0.00000  Uiso   1.00
H31    H     0.13035   0.33126   0.29129   0.00000  Uiso   1.00
H32    H     0.16426   0.00454   0.37020   0.00000  Uiso   1.00
H33    H     0.19741   0.05125   0.00971   0.00000  Uiso   1.00
H34    H     0.17604   0.19582   0.06885   0.00000  Uiso   1.00
H35    H     0.12118   0.25168   0.42101   0.00000  Uiso   1.00
H36    H     0.09778   0.16771   0.12005   0.00000  Uiso   1.00
O37    O     0.16667   0.16667   0.25000   0.00000  Uiso   1.00
O38    O     0.15451   0.12637   0.15459   0.00000  Uiso   1.00
O39    O     0.12940   0.20391   0.34968   0.00000  Uiso   1.00
O40    O     0.20824   0.17759   0.14606   0.00000  Uiso   1.00
O41    O     0.17451   0.15880   0.34968   0.00000  Uiso   1.00
O42    O     0.28245   0.11497   0.32799   0.00000  Uiso   1.00
O43    O     0.29142   0.08071   0.25162   0.00000  Uiso   1.00
O44    O     0.01554   0.07757   0.29529   0.00000  Uiso   1.00
O45    O     0.20022   0.00025   0.14580   0.00000  Uiso   1.00
O46    O     0.23025   0.05669   0.19256   0.00000  Uiso   1.00
O47    O     0.26334   0.32101   0.17669   0.00000  Uiso   1.00
O48    O     0.17930   0.08019   0.28214   0.00000  Uiso   1.00
O49    O     0.21929   0.03604   0.42247   0.00000  Uiso   1.00
O50    O     0.14657   0.01017   0.46240   0.00000  Uiso   1.00
O51    O     0.15843   0.03326   0.38161   0.00000  Uiso   1.00
O52    O     0.12222   0.24198   0.09843   0.00000  Uiso   1.00
O53    O     0.05531   0.22672   0.07503   0.00000  Uiso   1.00
O54    O     0.08660   0.16398   0.09267   0.00000  Uiso   1.00
O55    O     0.03035   0.25808   0.25352   0.00000  Uiso   1.00
O56    O     0.06822   0.21498   0.19096   0.00000  Uiso   1.00
O57    O     0.00265   0.24465   0.18076   0.00000  Uiso   1.00
O58    O     0.14632   0.26085   0.27014   0.00000  Uiso   1.00
O59    O     0.07412   0.13291   0.23413   0.00000  Uiso   1.00
O60    O     0.26693   0.19272   0.21361   0.00000  Uiso   1.00
O61    O     0.07071   0.18878   0.28213   0.00000  Uiso   1.00
O62    O     0.25491   0.15226   0.27014   0.00000  Uiso   1.00
O63    O     0.13760   0.06944   0.23413   0.00000  Uiso   1.00
O64    O     0.20345   0.25620   0.21361   0.00000  Uiso   1.00
S65    S     0.31410   0.10585   0.28466   0.00000  Uiso   1.00
S66    S     0.21871   0.01013   0.18630   0.00000  Uiso   1.00
S67    S     0.17318   0.04153   0.43073   0.00000  Uiso   1.00
S68    S     0.09698   0.21125   0.07161   0.00000  Uiso   1.00
S69    S     0.02506   0.22527   0.21623   0.00000  Uiso   1.00
Zn70   Zn    0.19338   0.13994   0.28734   0.00000  Uiso   1.00
Zn71   Zn    0.13379   0.12458   0.21876   0.00000  Uiso   1.00
Zn72   Zn    0.21056   0.19775   0.20657   0.00000  Uiso   1.00
Zn73   Zn    0.12893   0.20439   0.28734   0.00000  Uiso   1.00
C74    C     0.38636   0.15900   0.25979   0.00000  Uiso   1.00
C75    C     0.51146   0.16387   0.05592   0.00000  Uiso   1.00
C76    C     0.53101   0.09711   0.06395   0.00000  Uiso   1.00
C77    C     0.61409   0.17401   0.24053   0.00000  Uiso   1.00
C78    C     0.47335   0.19058   0.42056   0.00000  Uiso   1.00
C79    C     0.65928   0.17995   0.24061   0.00000  Uiso   1.00
C80    C     0.34166   0.15378   0.26211   0.00000  Uiso   1.00
C81    C     0.51372   0.32238   0.23360   0.00000  Uiso   1.00
C82    C     0.48672   0.01165   0.26292   0.00000  Uiso   1.00
C83    C     0.48898   0.05582   0.26069   0.00000  Uiso   1.00
C84    C     0.51001   0.27787   0.23962   0.00000  Uiso   1.00
C85    C     0.45132   0.23619   0.48725   0.00000  Uiso   1.00
C86    C     0.51846   0.14776   0.12925   0.00000  Uiso   1.00
C87    C     0.48145   0.18381   0.37108   0.00000  Uiso   1.00
C88    C     0.52427   0.08257   0.02186   0.00000  Uiso   1.00
C89    C     0.52445   0.13772   0.08112   0.00000  Uiso   1.00
C90    C     0.46004   0.22851   0.44088   0.00000  Uiso   1.00
C91    C     0.45880   0.20778   0.01434   0.00000  Uiso   1.00
C92    C     0.47960   0.17268   0.49358   0.00000  Uiso   1.00
C93    C     0.48052   0.16112   0.44769   0.00000  Uiso   1.00
C94    C     0.49883   0.14814   0.01622   0.00000  Uiso   1.00
C95    C     0.50778   0.10747   0.49747   0.00000  Uiso   1.00
C96    C     0.49959   0.09282   0.45523   0.00000  Uiso   1.00
C97    C     0.48681   0.11994   0.43077   0.00000  Uiso   1.00
H98    H     0.54020   0.07621   0.08382   0.00000  Uiso   1.00
H99    H     0.43691   0.26376   0.00227   0.00000  Uiso   1.00
H100   H     0.48010   0.10775   0.39898   0.00000  Uiso   1.00
H101   H     0.35563   0.27000   0.17035   0.00000  Uiso   1.00
H102   H     0.66474   0.05143   0.30663   0.00000  Uiso   1.00
H103   H     0.60720   0.32819   0.20442   0.00000  Uiso   1.00
H104   H     0.46369   0.33126   0.29129   0.00000  Uiso   1.00
H105   H     0.49759   0.00454   0.37020   0.00000  Uiso   1.00
H106   H     0.53074   0.05125   0.00971   0.00000  Uiso   1.00
H107   H     0.50937   0.19582   0.06885   0.00000  Uiso   1.00
H108   H     0.45452   0.25168   0.42101   0.00000  Uiso   1.00
H109   H     0.43111   0.16771   0.12005   0.00000  Uiso   1.00
O110   O     0.50000   0.16667   0.25000   0.00000  Uiso   1.00
O111   O     0.48784   0.12637   0.15459   0.00000  Uiso   1.00
O112   O     0.46274   0.20391   0.34968   0.00000  Uiso   1.00
O113   O     0.54157   0.17759   0.14606   0.00000  Uiso   1.00
O114   O     0.50785   0.15880   0.34968   0.00000  Uiso   1.00
O115   O     0.61579   0.11497   0.32799   0.00000  Uiso   1.00
O116   O     0.62475   0.08071   0.25162   0.00000  Uiso   1.00
O117   O     0.34887   0.07757   0.29529   0.00000  Uiso   1.00
O118   O     0.53356   0.00025   0.14580   0.00000  Uiso   1.00
O119   O     0.56358   0.05669   0.19256   0.00000  Uiso   1.00
O120   O     0.59668   0.32101   0.17669   0.00000  Uiso   1.00
O121   O     0.51264   0.08019   0.28214   0.00000  Uiso   1.00
O122   O     0.55262   0.03604   0.42247   0.00000  Uiso   1.00
O123   O     0.47990   0.01017   0.46240   0.00000  Uiso   1.00
O124   O     0.49177   0.03326   0.38161   0.00000  Uiso   1.00
O125   O     0.45556   0.24198   0.09843   0.00000  Uiso   1.00
O126   O     0.38864   0.22672   0.07503   0.00000  Uiso   1.00
O127   O     0.41993   0.16398   0.09267   0.00000  Uiso   1.00
O128   O     0.36368   0.25808   0.25352   0.00000  Uiso   1.00
O129   O     0.40156   0.21498   0.19096   0.00000  Uiso   1.00
O130   O     0.33598   0.24465   0.18076   0.00000  Uiso   1.00
O131   O     0.47965   0.26085   0.27014   0.00000  Uiso   1.00
O132   O     0.40745   0.13291   0.23413   0.00000  Uiso   1.00
O133   O     0.60026   0.19272   0.21361   0.00000  Uiso   1.00
O134   O     0.40405   0.18878   0.28213   0.00000  Uiso   1.00
O135   O     0.58824   0.15226   0.27014   0.00000  Uiso   1.00
O136   O     0.47093   0.06944   0.23413   0.00000  Uiso   1.00
O137   O     0.53678   0.25620   0.21361   0.00000  Uiso   1.00
S138   S     0.64743   0.10585   0.28466   0.00000  Uiso   1.00
S139   S     0.55205   0.01013   0.18630   0.00000  Uiso   1.00
S140   S     0.50651   0.04153   0.43073   0.00000  Uiso   1.00
S141   S     0.43031   0.21125   0.07161   0.00000  Uiso   1.00
S142   S     0.35840   0.22527   0.21623   0.00000  Uiso   1.00
Zn143  Zn    0.52672   0.13994   0.28734   0.00000  Uiso   1.00
Zn144  Zn    0.46713   0.12458   0.21876   0.00000  Uiso   1.00
Zn145  Zn    0.54389   0.19775   0.20657   0.00000  Uiso   1.00
Zn146  Zn    0.46226   0.20439   0.28734   0.00000  Uiso   1.00
C147   C     0.71969   0.15900   0.25979   0.00000  Uiso   1.00
C148   C     0.84479   0.16387   0.05592   0.00000  Uiso   1.00
C149   C     0.86434   0.09711   0.06395   0.00000  Uiso   1.00
C150   C     0.94742   0.17401   0.24053   0.00000  Uiso   1.00
C151   C     0.80668   0.19058   0.42056   0.00000  Uiso   1.00
C152   C     0.99261   0.17995   0.24061   0.00000  Uiso   1.00
C153   C     0.67499   0.15378   0.26211   0.00000  Uiso   1.00
C154   C     0.84705   0.32238   0.23360   0.00000  Uiso   1.00
C155   C     0.82005   0.01165   0.26292   0.00000  Uiso   1.00
C156   C     0.82232   0.05582   0.26069   0.00000  Uiso   1.00
C157   C     0.84335   0.27787   0.23962   0.00000  Uiso   1.00
C158   C     0.78465   0.23619   0.48725   0.00000  Uiso   1.00
C159   C     0.85179   0.14776   0.12925   0.00000  Uiso   1.00
C160   C     0.81478   0.18381   0.37108   0.00000  Uiso   1.00
C161   C     0.85760   0.08257   0.02186   0.00000  Uiso   1.00
C162   C     0.85778   0.13772   0.08112   0.00000  Uiso   1.00
C163   C     0.79337   0.22851   0.44088   0.00000  Uiso   1.00
C164   C     0.79213   0.20778   0.01434   0.00000  Uiso   1.00
C165   C     0.81293   0.17268   0.49358   0.00000  Uiso   1.00
C166   C     0.81385   0.16112   0.44769   0.00000  Uiso   1.00
C167   C     0.83216   0.14814   0.01622   0.00000  Uiso   1.00
C168   C     0.84111   0.10747   0.49747   0.00000  Uiso   1.00
C169   C     0.83292   0.09282   0.45523   0.00000  Uiso   1.00
C170   C     0.82014   0.11994   0.43077   0.00000  Uiso   1.00
H171   H     0.87353   0.07621   0.08382   0.00000  Uiso   1.00
H172   H     0.77025   0.26376   0.00227   0.00000  Uiso   1.00
H173   H     0.81344   0.10775   0.39898   0.00000  Uiso   1.00
H174   H     0.68897   0.27000   0.17035   0.00000  Uiso   1.00
H175   H     0.99807   0.05143   0.30663   0.00000  Uiso   1.00
H176   H     0.94053   0.32819   0.20442   0.00000  Uiso   1.00
H177   H     0.79702   0.33126   0.29129   0.00000  Uiso   1.00
H178   H     0.83093   0.00454   0.37020   0.00000  Uiso   1.00
H179   H     0.86407   0.05125   0.00971   0.00000  Uiso   1.00
H180   H     0.84271   0.19582   0.06885   0.00000  Uiso   1.00
H181   H     0.78785   0.25168   0.42101   0.00000  Uiso   1.00
H182   H     0.76445   0.16771   0.12005   0.00000  Uiso   1.00
O183   O     0.83333   0.16667   0.25000   0.00000  Uiso   1.00
O184   O     0.82118   0.12637   0.15459   0.00000  Uiso   1.00
O185   O     0.79607   0.20391   0.34968   0.00000  Uiso   1.00
O186   O     0.87491   0.17759   0.14606   0.00000  Uiso   1.00
O187   O     0.84118   0.15880   0.34968   0.00000  Uiso   1.00
O188   O     0.94912   0.11497   0.32799   0.00000  Uiso   1.00
O189   O     0.95808   0.08071   0.25162   0.00000  Uiso   1.00
O190   O     0.68221   0.07757   0.29529   0.00000  Uiso   1.00
O191   O     0.86689   0.00025   0.14580   0.00000  Uiso   1.00
O192   O     0.89691   0.05669   0.19256   0.00000  Uiso   1.00
O193   O     0.93001   0.32101   0.17669   0.00000  Uiso   1.00
O194   O     0.84597   0.08019   0.28214   0.00000  Uiso   1.00
O195   O     0.88595   0.03604   0.42247   0.00000  Uiso   1.00
O196   O     0.81324   0.01017   0.46240   0.00000  Uiso   1.00
O197   O     0.82510   0.03326   0.38161   0.00000  Uiso   1.00
O198   O     0.78889   0.24198   0.09843   0.00000  Uiso   1.00
O199   O     0.72197   0.22672   0.07503   0.00000  Uiso   1.00
O200   O     0.75326   0.16398   0.09267   0.00000  Uiso   1.00
O201   O     0.69702   0.25808   0.25352   0.00000  Uiso   1.00
O202   O     0.73489   0.21498   0.19096   0.00000  Uiso   1.00
O203   O     0.66932   0.24465   0.18076   0.00000  Uiso   1.00
O204   O     0.81298   0.26085   0.27014   0.00000  Uiso   1.00
O205   O     0.74078   0.13291   0.23413   0.00000  Uiso   1.00
O206   O     0.93360   0.19272   0.21361   0.00000  Uiso   1.00
O207   O     0.73738   0.18878   0.28213   0.00000  Uiso   1.00
O208   O     0.92158   0.15226   0.27014   0.00000  Uiso   1.00
O209   O     0.80426   0.06944   0.23413   0.00000  Uiso   1.00
O210   O     0.87012   0.25620   0.21361   0.00000  Uiso   1.00
S211   S     0.98077   0.10585   0.28466   0.00000  Uiso   1.00
S212   S     0.88538   0.01013   0.18630   0.00000  Uiso   1.00
S213   S     0.83984   0.04153   0.43073   0.00000  Uiso   1.00
S214   S     0.76365   0.21125   0.07161   0.00000  Uiso   1.00
S215   S     0.69173   0.22527   0.21623   0.00000  Uiso   1.00
Zn216  Zn    0.86005   0.13994   0.28734   0.00000  Uiso   1.00
Zn217  Zn    0.80046   0.12458   0.21876   0.00000  Uiso   1.00
Zn218  Zn    0.87723   0.19775   0.20657   0.00000  Uiso   1.00
Zn219  Zn    0.79560   0.20439   0.28734   0.00000  Uiso   1.00
C220   C     0.05302   0.49234   0.25979   0.00000  Uiso   1.00
C221   C     0.17812   0.49720   0.05592   0.00000  Uiso   1.00
C222   C     0.19768   0.43044   0.06395   0.00000  Uiso   1.00
C223   C     0.28075   0.50735   0.24053   0.00000  Uiso   1.00
C224   C     0.14001   0.52392   0.42056   0.00000  Uiso   1.00
C225   C     0.32595   0.51329   0.24061   0.00000  Uiso   1.00
C226   C     0.00832   0.48712   0.26211   0.00000  Uiso   1.00
C227   C     0.18038   0.65571   0.23360   0.00000  Uiso   1.00
C228   C     0.15339   0.34499   0.26292   0.00000  Uiso   1.00
C229   C     0.15565   0.38915   0.26069   0.00000  Uiso   1.00
C230   C     0.17668   0.61121   0.23962   0.00000  Uiso   1.00
C231   C     0.11798   0.56952   0.48725   0.00000  Uiso   1.00
C232   C     0.18513   0.48110   0.12925   0.00000  Uiso   1.00
C233   C     0.14812   0.51715   0.37108   0.00000  Uiso   1.00
C234   C     0.19093   0.41590   0.02186   0.00000  Uiso   1.00
C235   C     0.19111   0.47105   0.08112   0.00000  Uiso   1.00
C236   C     0.12670   0.56184   0.44088   0.00000  Uiso   1.00
C237   C     0.12546   0.54112   0.01434   0.00000  Uiso   1.00
C238   C     0.14626   0.50602   0.49358   0.00000  Uiso   1.00
C239   C     0.14718   0.49446   0.44769   0.00000  Uiso   1.00
C240   C     0.16549   0.48147   0.01622   0.00000  Uiso   1.00
C241   C     0.17445   0.44081   0.49747   0.00000  Uiso   1.00
C242   C     0.16625   0.42616   0.45523   0.00000  Uiso   1.00
C243   C     0.15348   0.45327   0.43077   0.00000  Uiso   1.00
H244   H     0.20687   0.40955   0.08382   0.00000  Uiso   1.00
H245   H     0.10358   0.59710   0.00227   0.00000  Uiso   1.00
H246   H     0.14677   0.44108   0.39898   0.00000  Uiso   1.00
H247   H     0.02230   0.60333   0.17035   0.00000  Uiso   1.00
H248   H     0.33140   0.38476   0.30663   0.00000  Uiso   1.00
H249   H     0.27386   0.66152   0.20442   0.00000  Uiso   1.00
H250   H     0.13035   0.66459   0.29129   0.00000  Uiso   1.00
H251   H     0.16426   0.33787   0.37020   0.00000  Uiso   1.00
H252   H     0.19741   0.38458   0.00971   0.00000  Uiso   1.00
H253   H     0.17604   0.52915   0.06885   0.00000  Uiso   1.00
H254   H     0.12118   0.58501   0.42101   0.00000  Uiso   1.00
H255   H     0.09778   0.50104   0.12005   0.00000  Uiso   1.00
O256   O     0.16667   0.50000   0.25000   0.00000  Uiso   1.00
O257   O     0.15451   0.45970   0.15459   0.00000  Uiso   1.00
O258   O     0.12940   0.53724   0.34968   0.00000  Uiso   1.00
O259   O     0.20824   0.51092   0.14606   0.00000  Uiso   1.00
O260   O     0.17451   0.49213   0.34968   0.00000  Uiso   1.00
O261   O     0.28245   0.44830   0.32799   0.00000  Uiso   1.00
O262   O     0.29142   0.41405   0.25162   0.00000  Uiso   1.00
O263   O     0.01554   0.41091   0.29529   0.00000  Uiso   1.00
O264   O     0.20022   0.33358   0.14580   0.00000  Uiso   1.00
O265   O     0.23025   0.39002   0.19256   0.00000  Uiso   1.00
O266   O     0.26334   0.65435   0.17669   0.00000  Uiso   1.00
O267   O     0.17930   0.41352   0.28214   0.00000  Uiso   1.00
O268   O     0.21929   0.36937   0.42247   0.00000  Uiso   1.00
O269   O     0.14657   0.34351   0.46240   0.00000  Uiso   1.00
O270   O     0.15843   0.36659   0.38161   0.00000  Uiso   1.00
O271   O     0.12222   0.57532   0.09843   0.00000  Uiso   1.00
O272   O     0.05531   0.56005   0.07503   0.00000  Uiso   1.00
O273   O     0.08660   0.49731   0.09267   0.00000  Uiso   1.00
O274   O     0.03035   0.59142   0.25352   0.00000  Uiso   1.00
O275   O     0.06822   0.54832   0.19096   0.00000  Uiso   1.00
O276   O     0.00265   0.57798   0.18076   0.00000  Uiso   1.00
O277   O     0.14632   0.59418   0.27014   0.00000  Uiso   1.00
O278   O     0.07412   0.46625   0.23413   0.00000  Uiso   1.00
O279   O     0.26693   0.52605   0.21361   0.00000  Uiso   1.00
O280   O     0.07071   0.52211   0.28213   0.00000  Uiso   1.00
O281   O     0.25491   0.48559   0.27014   0.00000  Uiso   1.00
O282   O     0.13760   0.40277   0.23413   0.00000  Uiso   1.00
O283   O     0.20345   0.58953   0.21361   0.00000  Uiso   1.00
S284   S     0.31410   0.43918   0.28466   0.00000  Uiso   1.00
S285   S     0.21871   0.34346   0.18630   0.00000  Uiso   1.00
S286   S     0.17318   0.37487   0.43073   0.00000  Uiso   1.00
S287   S     0.09698   0.54459   0.07161   0.00000  Uiso   1.00
S288   S     0.02506   0.55861   0.21623   0.00000  Uiso   1.00
Zn289  Zn    0.19338   0.47327   0.28734   0.00000  Uiso   1.00
Zn290  Zn    0.13379   0.45791   0.21876   0.00000  Uiso   1.00
Zn291  Zn    0.21056   0.53109   0.20657   0.00000  Uiso   1.00
Zn292  Zn    0.12893   0.53773   0.28734   0.00000  Uiso   1.00
C293   C     0.38636   0.49234   0.25979   0.00000  Uiso   1.00
C294   C     0.51146   0.49720   0.05592   0.00000  Uiso   1.00
C295   C     0.53101   0.43044   0.06395   0.00000  Uiso   1.00
C296   C     0.61409   0.50735   0.24053   0.00000  Uiso   1.00
C297   C     0.47335   0.52392   0.42056   0.00000  Uiso   1.00
C298   C     0.65928   0.51329   0.24061   0.00000  Uiso   1.00
C299   C     0.34166   0.48712   0.26211   0.00000  Uiso   1.00
C300   C     0.51372   0.65571   0.23360   0.00000  Uiso   1.00
C301   C     0.48672   0.34499   0.26292   0.00000  Uiso   1.00
C302   C     0.48898   0.38915   0.26069   0.00000  Uiso   1.00
C303   C     0.51001   0.61121   0.23962   0.00000  Uiso   1.00
C304   C     0.45132   0.56952   0.48725   0.00000  Uiso   1.00
C305   C     0.51846   0.48110   0.12925   0.00000  Uiso   1.00
C306   C     0.48145   0.51715   0.37108   0.00000  Uiso   1.00
C307   C     0.52427   0.41590   0.02186   0.00000  Uiso   1.00
C308   C     0.52445   0.47105   0.08112   0.00000  Uiso   1.00
C309   C     0.46004   0.56184   0.44088   0.00000  Uiso   1.00
C310   C     0.45880   0.54112   0.01434   0.00000  Uiso   1.00
C311   C     0.47960   0.50602   0.49358   0.00000  Uiso   1.00
C312   C     0.48052   0.49446   0.44769   0.00000  Uiso   1.00
C313   C     0.49883   0.48147   0.01622   0.00000  Uiso   1.00
C314   C     0.50778   0.44081   0.49747   0.00000  Uiso   1.00
C315   C     0.49959   0.42616   0.45523   0.00000  Uiso   1.00
C316   C     0.48681   0.45327   0.43077   0.00000  Uiso   1.00
H317   H     0.54020   0.40955   0.08382   0.00000  Uiso   1.00
H318   H     0.43691   0.59710   0.00227   0.00000  Uiso   1.00
H319   H     0.48010   0.44108   0.39898   0.00000  Uiso   1.00
H320   H     0.35563   0.60333   0.17035   0.00000  Uiso   1.00
H321   H     0.66474   0.38476   0.30663   0.00000  Uiso   1.00
H322   H     0.60720   0.66152   0.20442   0.00000  Uiso   1.00
H323   H     0.46369   0.66459   0.29129   0.00000  Uiso   1.00
H324   H     0.49759   0.33787   0.37020   0.00000  Uiso   1.00
H325   H     0.53074   0.38458   0.00971   0.00000  Uiso   1.00
H326   H     0.50937   0.52915   0.06885   0.00000  Uiso   1.00
H327   H     0.45452   0.58501   0.42101   0.00000  Uiso   1.00
H328   H     0.43111   0.50104   0.12005   0.00000  Uiso   1.00
O329   O     0.50000   0.50000   0.25000   0.00000  Uiso   1.00
O330   O     0.48784   0.45970   0.15459   0.00000  Uiso   1.00
O331   O     0.46274   0.53724   0.34968   0.00000  Uiso   1.00
O332   O     0.54157   0.51092   0.14606   0.00000  Uiso   1.00
O333   O     0.50785   0.49213   0.34968   0.00000  Uiso   1.00
O334   O     0.61579   0.44830   0.32799   0.00000  Uiso   1.00
O335   O     0.62475   0.41405   0.25162   0.00000  Uiso   1.00
O336   O     0.34887   0.41091   0.29529   0.00000  Uiso   1.00
O337   O     0.53356   0.33358   0.14580   0.00000  Uiso   1.00
O338   O     0.56358   0.39002   0.19256   0.00000  Uiso   1.00
O339   O     0.59668   0.65435   0.17669   0.00000  Uiso   1.00
O340   O     0.51264   0.41352   0.28214   0.00000  Uiso   1.00
O341   O     0.55262   0.36937   0.42247   0.00000  Uiso   1.00
O342   O     0.47990   0.34351   0.46240   0.00000  Uiso   1.00
O343   O     0.49177   0.36659   0.38161   0.00000  Uiso   1.00
O344   O     0.45556   0.57532   0.09843   0.00000  Uiso   1.00
O345   O     0.38864   0.56005   0.07503   0.00000  Uiso   1.00
O346   O     0.41993   0.49731   0.09267   0.00000  Uiso   1.00
O347   O     0.36368   0.59142   0.25352   0.00000  Uiso   1.00
O348   O     0.40156   0.54832   0.19096   0.00000  Uiso   1.00
O349   O     0.33598   0.57798   0.18076   0.00000  Uiso   1.00
O350   O     0.47965   0.59418   0.27014   0.00000  Uiso   1.00
O351   O     0.40745   0.46625   0.23413   0.00000  Uiso   1.00
O352   O     0.60026   0.52605   0.21361   0.00000  Uiso   1.00
O353   O     0.40405   0.52211   0.28213   0.00000  Uiso   1.00
O354   O     0.58824   0.48559   0.27014   0.00000  Uiso   1.00
O355   O     0.47093   0.40277   0.23413   0.00000  Uiso   1.00
O356   O     0.53678   0.58953   0.21361   0.00000  Uiso   1.00
S357   S     0.64743   0.43918   0.28466   0.00000  Uiso   1.00
S358   S     0.55205   0.34346   0.18630   0.00000  Uiso   1.00
S359   S     0.50651   0.37487   0.43073   0.00000  Uiso   1.00
S360   S     0.43031   0.54459   0.07161   0.00000  Uiso   1.00
S361   S     0.35840   0.55861   0.21623   0.00000  Uiso   1.00
Zn362  Zn    0.52672   0.47327   0.28734   0.00000  Uiso   1.00
Zn363  Zn    0.46713   0.45791   0.21876   0.00000  Uiso   1.00
Zn364  Zn    0.54389   0.53109   0.20657   0.00000  Uiso   1.00
Zn365  Zn    0.46226   0.53773   0.28734   0.00000  Uiso   1.00
C366   C     0.71969   0.49234   0.25979   0.00000  Uiso   1.00
C367   C     0.84479   0.49720   0.05592   0.00000  Uiso   1.00
C368   C     0.86434   0.43044   0.06395   0.00000  Uiso   1.00
C369   C     0.94742   0.50735   0.24053   0.00000  Uiso   1.00
C370   C     0.80668   0.52392   0.42056   0.00000  Uiso   1.00
C371   C     0.99261   0.51329   0.24061   0.00000  Uiso   1.00
C372   C     0.67499   0.48712   0.26211   0.00000  Uiso   1.00
C373   C     0.84705   0.65571   0.23360   0.00000  Uiso   1.00
C374   C     0.82005   0.34499   0.26292   0.00000  Uiso   1.00
C375   C     0.82232   0.38915   0.26069   0.00000  Uiso   1.00
C376   C     0.84335   0.61121   0.23962   0.00000  Uiso   1.00
C377   C     0.78465   0.56952   0.48725   0.00000  Uiso   1.00
C378   C     0.85179   0.48110   0.12925   0.00000  Uiso   1.00
C379   C     0.81478   0.51715   0.37108   0.00000  Uiso   1.00
C380   C     0.85760   0.41590   0.02186   0.00000  Uiso   1.00
C381   C     0.85778   0.47105   0.08112   0.00000  Uiso   1.00
C382   C     0.79337   0.56184   0.44088   0.00000  Uiso   1.00
C383   C     0.79213   0.54112   0.01434   0.00000  Uiso   1.00
C384   C     0.81293   0.50602   0.49358   0.00000  Uiso   1.00
C385   C     0.81385   0.49446   0.44769   0.00000  Uiso   1.00
C386   C     0.83216   0.48147   0.01622   0.00000  Uiso   1.00
C387   C     0.84111   0.44081   0.49747   0.00000  Uiso   1.00
C388   C     0.83292   0.42616   0.45523   0.00000  Uiso   1.00
C389   C     0.82014   0.45327   0.43077   0.00000  Uiso   1.00
H390   H     0.87353   0.40955   0.08382   0.00000  Uiso   1.00
H391   H     0.77025   0.59710   0.00227   0.00000  Uiso   1.00
H392   H     0.81344   0.44108   0.39898   0.00000  Uiso   1.00
H393   H     0.68897   0.60333   0.17035   0.00000  Uiso   1.00
H394   H     0.99807   0.38476   0.30663   0.00000  Uiso   1.00
H395   H     0.94053   0.66152   0.20442   0.00000  Uiso   1.00
H396   H     0.79702   0.66459   0.29129   0.00000  Uiso   1.00
H397   H     0.83093   0.33787   0.37020   0.00000  Uiso   1.00
H398   H     0.86407   0.38458   0.00971   0.00000  Uiso   1.00
H399   H     0.84271   0.52915   0.06885   0.00000  Uiso   1.00
H400   H     0.78785   0.58501   0.42101   0.00000  Uiso   1.00
H401   H     0.76445   0.50104   0.12005   0.00000  Uiso   1.00
O402   O     0.83333   0.50000   0.25000   0.00000  Uiso   1.00
O403   O     0.82118   0.45970   0.15459   0.00000  Uiso   1.00
O404   O     0.79607   0.53724   0.34968   0.00000  Uiso   1.00
O405   O     0.87491   0.51092   0.14606   0.00000  Uiso   1.00
O406   O     0.84118   0.49213   0.34968   0.00000  Uiso   1.00
O407   O     0.94912   0.44830   0.32799   0.00000  Uiso   1.00
O408   O     0.95808   0.41405   0.25162   0.00000  Uiso   1.00
O409   O     0.68221   0.41091   0.29529   0.00000  Uiso   1.00
O410   O     0.86689   0.33358   0.14580   0.00000  Uiso   1.00
O411   O     0.89691   0.39002   0.19256   0.00000  Uiso   1.00
O412   O     0.93001   0.65435   0.17669   0.00000  Uiso   1.00
O413   O     0.84597   0.41352   0.28214   0.00000  Uiso   1.00
O414   O     0.88595   0.36937   0.42247   0.00000  Uiso   1.00
O415   O     0.81324   0.34351   0.46240   0.00000  Uiso   1.00
O416   O     0.82510   0.36659   0.38161   0.00000  Uiso   1.00
O417   O     0.78889   0.57532   0.09843   0.00000  Uiso   1.00
O418   O     0.72197   0.56005   0.07503   0.00000  Uiso   1.00
O419   O     0.75326   0.49731   0.09267   0.00000  Uiso   1.00
O420   O     0.69702   0.59142   0.25352   0.00000  Uiso   1.00
O421   O     0.73489   0.54832   0.19096   0.00000  Uiso   1.00
O422   O     0.66932   0.57798   0.18076   0.00000  Uiso   1.00
O423   O     0.81298   0.59418   0.27014   0.00000  Uiso   1.00
O424   O     0.74078   0.46625   0.23413   0.00000  Uiso   1.00
O425   O     0.93360   0.52605   0.21361   0.00000  Uiso   1.00
O426   O     0.73738   0.52211   0.28213   0.00000  Uiso   1.00
O427   O     0.92158   0.48559   0.27014   0.00000  Uiso   1.00
O428   O     0.80426   0.40277   0.23413   0.00000  Uiso   1.00
O429   O     0.87012   0.58953   0.21361   0.00000  Uiso   1.00
S430   S     0.98077   0.43918   0.28466   0.00000  Uiso   1.00
S431   S     0.88538   0.34346   0.18630   0.00000  Uiso   1.00
S432   S     0.83984   0.37487   0.43073   0.00000  Uiso   1.00
S433   S     0.76365   0.54459   0.07161   0.00000  Uiso   1.00
S434   S     0.69173   0.55861   0.21623   0.00000  Uiso   1.00
Zn435  Zn    0.86005   0.47327   0.28734   0.00000  Uiso   1.00
Zn436  Zn    0.80046   0.45791   0.21876   0.00000  Uiso   1.00
Zn437  Zn    0.87723   0.53109   0.20657   0.00000  Uiso   1.00
Zn438  Zn    0.79560   0.53773   0.28734   0.00000  Uiso   1.00
C439   C     0.05302   0.82567   0.25979   0.00000  Uiso   1.00
C440   C     0.17812   0.83053   0.05592   0.00000  Uiso   1.00
C441   C     0.19768   0.76378   0.06395   0.00000  Uiso   1.00
C442   C     0.28075   0.84068   0.24053   0.00000  Uiso   1.00
C443   C     0.14001   0.85725   0.42056   0.00000  Uiso   1.00
C444   C     0.32595   0.84662   0.24061   0.00000  Uiso   1.00
C445   C     0.00832   0.82045   0.26211   0.00000  Uiso   1.00
C446   C     0.18038   0.98905   0.23360   0.00000  Uiso   1.00
C447   C     0.15339   0.67832   0.26292   0.00000  Uiso   1.00
C448   C     0.15565   0.72248   0.26069   0.00000  Uiso   1.00
C449   C     0.17668   0.94454   0.23962   0.00000  Uiso   1.00
C450   C     0.11798   0.90286   0.48725   0.00000  Uiso   1.00
C451   C     0.18513   0.81443   0.12925   0.00000  Uiso   1.00
C452   C     0.14812   0.85048   0.37108   0.00000  Uiso   1.00
C453   C     0.19093   0.74924   0.02186   0.00000  Uiso   1.00
C454   C     0.19111   0.80439   0.08112   0.00000  Uiso   1.00
C455   C     0.12670   0.89518   0.44088   0.00000  Uiso   1.00
C456   C     0.12546   0.87445   0.01434   0.00000  Uiso   1.00
C457   C     0.14626   0.83935   0.49358   0.00000  Uiso   1.00
C458   C     0.14718   0.82779   0.44769   0.00000  Uiso   1.00
C459   C     0.16549   0.81481   0.01622   0.00000  Uiso   1.00
C460   C     0.17445   0.77414   0.49747   0.00000  Uiso   1.00
C461   C     0.16625   0.75949   0.45523   0.00000  Uiso   1.00
C462   C     0.15348   0.78661   0.43077   0.00000  Uiso   1.00
H463   H     0.20687   0.74288   0.08382   0.00000  Uiso   1.00
H464   H     0.10358   0.93043   0.00227   0.00000  Uiso   1.00
H465   H     0.14677   0.77441   0.39898   0.00000  Uiso   1.00
H466   H     0.02230   0.93667   0.17035   0.00000  Uiso   1.00
H467   H     0.33140   0.71810   0.30663   0.00000  Uiso   1.00
H468   H     0.27386   0.99486   0.20442   0.00000  Uiso   1.00
H469   H     0.13035   0.99792   0.29129   0.00000  Uiso   1.00
H470   H     0.16426   0.67120   0.37020   0.00000  Uiso   1.00
H471   H     0.19741   0.71792   0.00971   0.00000  Uiso   1.00
H472   H     0.17604   0.86248   0.06885   0.00000  Uiso   1.00
H473   H     0.12118   0.91834   0.42101   0.00000  Uiso   1.00
H474   H     0.09778   0.83437   0.12005   0.00000  Uiso   1.00
O475   O     0.16667   0.83333   0.25000   0.00000  Uiso   1.00
O476   O     0.15451   0.79304   0.15459   0.00000  Uiso   1.00
O477   O     0.12940   0.87058   0.34968   0.00000  Uiso   1.00
O478   O     0.20824   0.84425   0.14606   0.00000  Uiso   1.00
O479   O     0.17451   0.82546   0.34968   0.00000  Uiso   1.00
O480   O     0.28245   0.78163   0.32799   0.00000  Uiso   1.00
O481   O     0.29142   0.74738   0.25162   0.00000  Uiso   1.00
O482   O     0.01554   0.74424   0.29529   0.00000  Uiso   1.00
O483   O     0.20022   0.66692   0.14580   0.00000  Uiso   1.00
O484   O     0.23025   0.72335   0.19256   0.00000  Uiso   1.00
O485   O     0.26334   0.98768   0.17669   0.00000  Uiso   1.00
O486   O     0.17930   0.74686   0.28214   0.00000  Uiso   1.00
O487   O     0.21929   0.70271   0.42247   0.00000  Uiso   1.00
O488   O     0.14657   0.67684   0.46240   0.00000  Uiso   1.00
O489   O     0.15843   0.69992   0.38161   0.00000  Uiso   1.00
O490   O     0.12222   0.90865   0.09843   0.00000  Uiso   1.00
O491   O     0.05531   0.89338   0.07503   0.00000  Uiso   1.00
O492   O     0.08660   0.83064   0.09267   0.00000  Uiso   1.00
O493   O     0.03035   0.92475   0.25352   0.00000  Uiso   1.00
O494   O     0.06822   0.88165   0.19096   0.00000  Uiso   1.00
O495   O     0.00265   0.91132   0.18076   0.00000  Uiso   1.00
O496   O     0.14632   0.92751   0.27014   0.00000  Uiso   1.00
O497   O     0.07412   0.79958   0.23413   0.00000  Uiso   1.00
O498   O     0.26693   0.85939   0.21361   0.00000  Uiso   1.00
O499   O     0.07071   0.85544   0.28213   0.00000  Uiso   1.00
O500   O     0.25491   0.81892   0.27014   0.00000  Uiso   1.00
O501   O     0.13760   0.73610   0.23413   0.00000  Uiso   1.00
O502   O     0.20345   0.92286   0.21361   0.00000  Uiso   1.00
S503   S     0.31410   0.77252   0.28466   0.00000  Uiso   1.00
S504   S     0.21871   0.67679   0.18630   0.00000  Uiso   1.00
S505   S     0.17318   0.70820   0.43073   0.00000  Uiso   1.00
S506   S     0.09698   0.87792   0.07161   0.00000  Uiso   1.00
S507   S     0.02506   0.89194   0.21623   0.00000  Uiso   1.00
Zn508  Zn    0.19338   0.80661   0.28734   0.00000  Uiso   1.00
Zn509  Zn    0.13379   0.79124   0.21876   0.00000  Uiso   1.00
Zn510  Zn    0.21056   0.86442   0.20657   0.00000  Uiso   1.00
Zn511  Zn    0.12893   0.87106   0.28734   0.00000  Uiso   1.00
C512   C     0.38636   0.82567   0.25979   0.00000  Uiso   1.00
C513   C     0.51146   0.83053   0.05592   0.00000  Uiso   1.00
C514   C     0.53101   0.76378   0.06395   0.00000  Uiso   1.00
C515   C     0.61409   0.84068   0.24053   0.00000  Uiso   1.00
C516   C     0.47335   0.85725   0.42056   0.00000  Uiso   1.00
C517   C     0.65928   0.84662   0.24061   0.00000  Uiso   1.00
C518   C     0.34166   0.82045   0.26211   0.00000  Uiso   1.00
C519   C     0.51372   0.98905   0.23360   0.00000  Uiso   1.00
C520   C     0.48672   0.67832   0.26292   0.00000  Uiso   1.00
C521   C     0.48898   0.72248   0.26069   0.00000  Uiso   1.00
C522   C     0.51001   0.94454   0.23962   0.00000  Uiso   1.00
C523   C     0.45132   0.90286   0.48725   0.00000  Uiso   1.00
C524   C     0.51846   0.81443   0.12925   0.00000  Uiso   1.00
C525   C     0.48145   0.85048   0.37108   0.00000  Uiso   1.00
C526   C     0.52427   0.74924   0.02186   0.00000  Uiso   1.00
C527   C     0.52445   0.80439   0.08112   0.00000  Uiso   1.00
C528   C     0.46004   0.89518   0.44088   0.00000  Uiso   1.00
C529   C     0.45880   0.87445   0.01434   0.00000  Uiso   1.00
C530   C     0.47960   0.83935   0.49358   0.00000  Uiso   1.00
C531   C     0.48052   0.82779   0.44769   0.00000  Uiso   1.00
C532   C     0.49883   0.81481   0.01622   0.00000  Uiso   1.00
C533   C     0.50778   0.77414   0.49747   0.00000  Uiso   1.00
C534   C     0.49959   0.75949   0.45523   0.00000  Uiso   1.00
C535   C     0.48681   0.78661   0.43077   0.00000  Uiso   1.00
H536   H     0.54020   0.74288   0.08382   0.00000  Uiso   1.00
H537   H     0.43691   0.93043   0.00227   0.00000  Uiso   1.00
H538   H     0.48010   0.77441   0.39898   0.00000  Uiso   1.00
H539   H     0.35563   0.93667   0.17035   0.00000  Uiso   1.00
H540   H     0.66474   0.71810   0.30663   0.00000  Uiso   1.00
H541   H     0.60720   0.99486   0.20442   0.00000  Uiso   1.00
H542   H     0.46369   0.99792   0.29129   0.00000  Uiso   1.00
H543   H     0.49759   0.67120   0.37020   0.00000  Uiso   1.00
H544   H     0.53074   0.71792   0.00971   0.00000  Uiso   1.00
H545   H     0.50937   0.86248   0.06885   0.00000  Uiso   1.00
H546   H     0.45452   0.91834   0.42101   0.00000  Uiso   1.00
H547   H     0.43111   0.83437   0.12005   0.00000  Uiso   1.00
O548   O     0.50000   0.83333   0.25000   0.00000  Uiso   1.00
O549   O     0.48784   0.79304   0.15459   0.00000  Uiso   1.00
O550   O     0.46274   0.87058   0.34968   0.00000  Uiso   1.00
O551   O     0.54157   0.84425   0.14606   0.00000  Uiso   1.00
O552   O     0.50785   0.82546   0.34968   0.00000  Uiso   1.00
O553   O     0.61579   0.78163   0.32799   0.00000  Uiso   1.00
O554   O     0.62475   0.74738   0.25162   0.00000  Uiso   1.00
O555   O     0.34887   0.74424   0.29529   0.00000  Uiso   1.00
O556   O     0.53356   0.66692   0.14580   0.00000  Uiso   1.00
O557   O     0.56358   0.72335   0.19256   0.00000  Uiso   1.00
O558   O     0.59668   0.98768   0.17669   0.00000  Uiso   1.00
O559   O     0.51264   0.74686   0.28214   0.00000  Uiso   1.00
O560   O     0.55262   0.70271   0.42247   0.00000  Uiso   1.00
O561   O     0.47990   0.67684   0.46240   0.00000  Uiso   1.00
O562   O     0.49177   0.69992   0.38161   0.00000  Uiso   1.00
O563   O     0.45556   0.90865   0.09843   0.00000  Uiso   1.00
O564   O     0.38864   0.89338   0.07503   0.00000  Uiso   1.00
O565   O     0.41993   0.83064   0.09267   0.00000  Uiso   1.00
O566   O     0.36368   0.92475   0.25352   0.00000  Uiso   1.00
O567   O     0.40156   0.88165   0.19096   0.00000  Uiso   1.00
O568   O     0.33598   0.91132   0.18076   0.00000  Uiso   1.00
O569   O     0.47965   0.92751   0.27014   0.00000  Uiso   1.00
O570   O     0.40745   0.79958   0.23413   0.00000  Uiso   1.00
O571   O     0.60026   0.85939   0.21361   0.00000  Uiso   1.00
O572   O     0.40405   0.85544   0.28213   0.00000  Uiso   1.00
O573   O     0.58824   0.81892   0.27014   0.00000  Uiso   1.00
O574   O     0.47093   0.73610   0.23413   0.00000  Uiso   1.00
O575   O     0.53678   0.92286   0.21361   0.00000  Uiso   1.00
S576   S     0.64743   0.77252   0.28466   0.00000  Uiso   1.00
S577   S     0.55205   0.67679   0.18630   0.00000  Uiso   1.00
S578   S     0.50651   0.70820   0.43073   0.00000  Uiso   1.00
S579   S     0.43031   0.87792   0.07161   0.00000  Uiso   1.00
S580   S     0.35840   0.89194   0.21623   0.00000  Uiso   1.00
Zn581  Zn    0.52672   0.80661   0.28734   0.00000  Uiso   1.00
Zn582  Zn    0.46713   0.79124   0.21876   0.00000  Uiso   1.00
Zn583  Zn    0.54389   0.86442   0.20657   0.00000  Uiso   1.00
Zn584  Zn    0.46226   0.87106   0.28734   0.00000  Uiso   1.00
C585   C     0.71969   0.82567   0.25979   0.00000  Uiso   1.00
C586   C     0.84479   0.83053   0.05592   0.00000  Uiso   1.00
C587   C     0.86434   0.76378   0.06395   0.00000  Uiso   1.00
C588   C     0.94742   0.84068   0.24053   0.00000  Uiso   1.00
C589   C     0.80668   0.85725   0.42056   0.00000  Uiso   1.00
C590   C     0.99261   0.84662   0.24061   0.00000  Uiso   1.00
C591   C     0.67499   0.82045   0.26211   0.00000  Uiso   1.00
C592   C     0.84705   0.98905   0.23360   0.00000  Uiso   1.00
C593   C     0.82005   0.67832   0.26292   0.00000  Uiso   1.00
C594   C     0.82232   0.72248   0.26069   0.00000  Uiso   1.00
C595   C     0.84335   0.94454   0.23962   0.00000  Uiso   1.00
C596   C     0.78465   0.90286   0.48725   0.00000  Uiso   1.00
C597   C     0.85179   0.81443   0.12925   0.00000  Uiso   1.00
C598   C     0.81478   0.85048   0.37108   0.00000  Uiso   1.00
C599   C     0.85760   0.74924   0.02186   0.00000  Uiso   1.00
C600   C     0.85778   0.80439   0.08112   0.00000  Uiso   1.00
C601   C     0.79337   0.89518   0.44088   0.00000  Uiso   1.00
C602   C     0.79213   0.87445   0.01434   0.00000  Uiso   1.00
C603   C     0.81293   0.83935   0.49358   0.00000  Uiso   1.00
C604   C     0.81385   0.82779   0.44769   0.00000  Uiso   1.00
C605   C     0.83216   0.81481   0.01622   0.00000  Uiso   1.00
C606   C     0.84111   0.77414   0.49747   0.00000  Uiso   1.00
C607   C     0.83292   0.75949   0.45523   0.00000  Uiso   1.00
C608   C     0.82014   0.78661   0.43077   0.00000  Uiso   1.00
H609   H     0.87353   0.74288   0.08382   0.00000  Uiso   1.00
H610   H     0.77025   0.93043   0.00227   0.00000  Uiso   1.00
H611   H     0.81344   0.77441   0.39898   0.00000  Uiso   1.00
H612   H     0.68897   0.93667   0.17035   0.00000  Uiso   1.00
H613   H     0.99807   0.71810   0.30663   0.00000  Uiso   1.00
H614   H     0.94053   0.99486   0.20442   0.00000  Uiso   1.00
H615   H     0.79702   0.99792   0.29129   0.00000  Uiso   1.00
H616   H     0.83093   0.67120   0.37020   0.00000  Uiso   1.00
H617   H     0.86407   0.71792   0.00971   0.00000  Uiso   1.00
H618   H     0.84271   0.86248   0.06885   0.00000  Uiso   1.00
H619   H     0.78785   0.91834   0.42101   0.00000  Uiso   1.00
H620   H     0.76445   0.83437   0.12005   0.00000  Uiso   1.00
O621   O     0.83333   0.83333   0.25000   0.00000  Uiso   1.00
O622   O     0.82118   0.79304   0.15459   0.00000  Uiso   1.00
O623   O     0.79607   0.87058   0.34968   0.00000  Uiso   1.00
O624   O     0.87491   0.84425   0.14606   0.00000  Uiso   1.00
O625   O     0.84118   0.82546   0.34968   0.00000  Uiso   1.00
O626   O     0.94912   0.78163   0.32799   0.00000  Uiso   1.00
O627   O     0.95808   0.74738   0.25162   0.00000  Uiso   1.00
O628   O     0.68221   0.74424   0.29529   0.00000  Uiso   1.00
O629   O     0.86689   0.66692   0.14580   0.00000  Uiso   1.00
O630   O     0.89691   0.72335   0.19256   0.00000  Uiso   1.00
O631   O     0.93001   0.98768   0.17669   0.00000  Uiso   1.00
O632   O     0.84597   0.74686   0.28214   0.00000  Uiso   1.00
O633   O     0.88595   0.70271   0.42247   0.00000  Uiso   1.00
O634   O     0.81324   0.67684   0.46240   0.00000  Uiso   1.00
O635   O     0.82510   0.69992   0.38161   0.00000  Uiso   1.00
O636   O     0.78889   0.90865   0.09843   0.00000  Uiso   1.00
O637   O     0.72197   0.89338   0.07503   0.00000  Uiso   1.00
O638   O     0.75326   0.83064   0.09267   0.00000  Uiso   1.00
O639   O     0.69702   0.92475   0.25352   0.00000  Uiso   1.00
O640   O     0.73489   0.88165   0.19096   0.00000  Uiso   1.00
O641   O     0.66932   0.91132   0.18076   0.00000  Uiso   1.00
O642   O     0.81298   0.92751   0.27014   0.00000  Uiso   1.00
O643   O     0.74078   0.79958   0.23413   0.00000  Uiso   1.00
O644   O     0.93360   0.85939   0.21361   0.00000  Uiso   1.00
O645   O     0.73738   0.85544   0.28213   0.00000  Uiso   1.00
O646   O     0.92158   0.81892   0.27014   0.00000  Uiso   1.00
O647   O     0.80426   0.73610   0.23413   0.00000  Uiso   1.00
O648   O     0.87012   0.92286   0.21361   0.00000  Uiso   1.00
S649   S     0.98077   0.77252   0.28466   0.00000  Uiso   1.00
S650   S     0.88538   0.67679   0.18630   0.00000  Uiso   1.00
S651   S     0.83984   0.70820   0.43073   0.00000  Uiso   1.00
S652   S     0.76365   0.87792   0.07161   0.00000  Uiso   1.00
S653   S     0.69173   0.89194   0.21623   0.00000  Uiso   1.00
Zn654  Zn    0.86005   0.80661   0.28734   0.00000  Uiso   1.00
Zn655  Zn    0.80046   0.79124   0.21876   0.00000  Uiso   1.00
Zn656  Zn    0.87723   0.86442   0.20657   0.00000  Uiso   1.00
Zn657  Zn    0.79560   0.87106   0.28734   0.00000  Uiso   1.00
C658   C     0.05302   0.15900   0.75979   0.00000  Uiso   1.00
C659   C     0.17812   0.16387   0.55592   0.00000  Uiso   1.00
C660   C     0.19768   0.09711   0.56395   0.00000  Uiso   1.00
C661   C     0.28075   0.17401   0.74053   0.00000  Uiso   1.00
C662   C     0.14001   0.19058   0.92056   0.00000  Uiso   1.00
C663   C     0.32595   0.17995   0.74061   0.00000  Uiso   1.00
C664   C     0.00832   0.15378   0.76211   0.00000  Uiso   1.00
C665   C     0.18038   0.32238   0.73360   0.00000  Uiso   1.00
C666   C     0.15339   0.01165   0.76292   0.00000  Uiso   1.00
C667   C     0.15565   0.05582   0.76069   0.00000  Uiso   1.00
C668   C     0.17668   0.27787   0.73962   0.00000  Uiso   1.00
C669   C     0.11798   0.23619   0.98725   0.00000  Uiso   1.00
C670   C     0.18513   0.14776   0.62925   0.00000  Uiso   1.00
C671   C     0.14812   0.18381   0.87108   0.00000  Uiso   1.00
C672   C     0.19093   0.08257   0.52186   0.00000  Uiso   1.00
C673   C     0.19111   0.13772   0.58112   0.00000  Uiso   1.00
C674   C     0.12670   0.22851   0.94088   0.00000  Uiso   1.00
C675   C     0.12546   0.20778   0.51434   0.00000  Uiso   1.00
C676   C     0.14626   0.17268   0.99358   0.00000  Uiso   1.00
C677   C     0.14718   0.16112   0.94769   0.00000  Uiso   1.00
C678   C     0.16549   0.14814   0.51622   0.00000  Uiso   1.00
C679   C     0.17445   0.10747   0.99747   0.00000  Uiso   1.00
C680   C     0.16625   0.09282   0.95523   0.00000  Uiso   1.00
C681   C     0.15348   0.11994   0.93077   0.00000  Uiso   1.00
H682   H     0.20687   0.07621   0.58382   0.00000  Uiso   1.00
H683   H     0.10358   0.26376   0.50227   0.00000  Uiso   1.00
H684   H     0.14677   0.10775   0.89898   0.00000  Uiso   1.00
H685   H     0.02230   0.27000   0.67035   0.00000  Uiso   1.00
H686   H     0.33140   0.05143   0.80663   0.00000  Uiso   1.00
H687   H     0.27386   0.32819   0.70442   0.00000  Uiso   1.00
H688   H     0.13035   0.33126   0.79129   0.00000  Uiso   1.00
H689   H     0.16426   0.00454   0.87020   0.00000  Uiso   1.00
H690   H     0.19741   0.05125   0.50971   0.00000  Uiso   1.00
H691   H     0.17604   0.19582   0.56885   0.00000  Uiso   1.00
H692   H     0.12118   0.25168   0.92101   0.00000  Uiso   1.00
H693   H     0.09778   0.16771   0.62005   0.00000  Uiso   1.00
O694   O     0.16667   0.16667   0.75000   0.00000  Uiso   1.00
O695   O     0.15451   0.12637   0.65459   0.00000  Uiso   1.00
O696   O     0.12940   0.20391   0.84968   0.00000  Uiso   1.00
O697   O     0.20824   0.17759   0.64606   0.00000  Uiso   1.00
O698   O     0.17451   0.15880   0.84968   0.00000  Uiso   1.00
O699   O     0.28245   0.11497   0.82799   0.00000  Uiso   1.00
O700   O     0.29142   0.08071   0.75162   0.00000  Uiso   1.00
O701   O     0.01554   0.07757   0.79529   0.00000  Uiso   1.00
O702   O     0.20022   0.00025   0.64580   0.00000  Uiso   1.00
O703   O     0.23025   0.05669   0.69256   0.00000  Uiso   1.00
O704   O     0.26334   0.32101   0.67669   0.00000  Uiso   1.00
O705   O     0.17930   0.08019   0.78214   0.00000  Uiso   1.00
O706   O     0.21929   0.03604   0.92247   0.00000  Uiso   1.00
O707   O     0.14657   0.01017   0.96240   0.00000  Uiso   1.00
O708   O     0.15843   0.03326   0.88161   0.00000  Uiso   1.00
O709   O     0.12222   0.24198   0.59843   0.00000  Uiso   1.00
O710   O     0.05531   0.22672   0.57503   0.00000  Uiso   1.00
O711   O     0.08660   0.16398   0.59267   0.00000  Uiso   1.00
O712   O     0.03035   0.25808   0.75352   0.00000  Uiso   1.00
O713   O     0.06822   0.21498   0.69096   0.00000  Uiso   1.00
O714   O     0.00265   0.24465   0.68076   0.00000  Uiso   1.00
O715   O     0.14632   0.26085   0.77014   0.00000  Uiso   1.00
O716   O     0.07412   0.13291   0.73413   0.00000  Uiso   1.00
O717   O     0.26693   0.19272   0.71361   0.00000  Uiso   1.00
O718   O     0.07071   0.18878   0.78213   0.00000  Uiso   1.00
O719   O     0.25491   0.15226   0.77014   0.00000  Uiso   1.00
O720   O     0.13760   0.06944   0.73413   0.00000  Uiso   1.00
O721   O     0.20345   0.25620   0.71361   0.00000  Uiso   1.00
S722   S     0.31410   0.10585   0.78466   0.00000  Uiso   1.00
S723   S     0.21871   0.01013   0.68630   0.00000  Uiso   1.00
S724   S     0.17318   0.04153   0.93073   0.00000  Uiso   1.00
S725   S     0.09698   0.21125   0.57161   0.00000  Uiso   1.00
S726   S     0.02506   0.22527   0.71623   0.00000  Uiso   1.00
Zn727  Zn    0.19338   0.13994   0.78734   0.00000  Uiso   1.00
Zn728  Zn    0.13379   0.12458   0.71876   0.00000  Uiso   1.00
Zn729  Zn    0.21056   0.19775   0.70657   0.00000  Uiso   1.00
Zn730  Zn    0.12893   0.20439   0.78734   0.00000  Uiso   1.00
C731   C     0.38636   0.15900   0.75979   0.00000  Uiso   1.00
C732   C     0.51146   0.16387   0.55592   0.00000  Uiso   1.00
C733   C     0.53101   0.09711   0.56395   0.00000  Uiso   1.00
C734   C     0.61409   0.17401   0.74053   0.00000  Uiso   1.00
C735   C     0.47335   0.19058   0.92056   0.00000  Uiso   1.00
C736   C     0.65928   0.17995   0.74061   0.00000  Uiso   1.00
C737   C     0.34166   0.15378   0.76211   0.00000  Uiso   1.00
C738   C     0.51372   0.32238   0.73360   0.00000  Uiso   1.00
C739   C     0.48672   0.01165   0.76292   0.00000  Uiso   1.00
C740   C     0.48898   0.05582   0.76069   0.00000  Uiso   1.00
C741   C     0.51001   0.27787   0.73962   0.00000  Uiso   1.00
C742   C     0.45132   0.23619   0.98725   0.00000  Uiso   1.00
C743   C     0.51846   0.14776   0.62925   0.00000  Uiso   1.00
C744   C     0.48145   0.18381   0.87108   0.00000  Uiso   1.00
C745   C     0.52427   0.08257   0.52186   0.00000  Uiso   1.00
C746   C     0.52445   0.13772   0.58112   0.00000  Uiso   1.00
C747   C     0.46004   0.22851   0.94088   0.00000  Uiso   1.00
C748   C     0.45880   0.20778   0.51434   0.00000  Uiso   1.00
C749   C     0.47960   0.17268   0.99358   0.00000  Uiso   1.00
C750   C     0.48052   0.16112   0.94769   0.00000  Uiso   1.00
C751   C     0.49883   0.14814   0.51622   0.00000  Uiso   1.00
C752   C     0.50778   0.10747   0.99747   0.00000  Uiso   1.00
C753   C     0.49959   0.09282   0.95523   0.00000  Uiso   1.00
C754   C     0.48681   0.11994   0.93077   0.00000  Uiso   1.00
H755   H     0.54020   0.07621   0.58382   0.00000  Uiso   1.00
H756   H     0.43691   0.26376   0.50227   0.00000  Uiso   1.00
H757   H     0.48010   0.10775   0.89898   0.00000  Uiso   1.00
H758   H     0.35563   0.27000   0.67035   0.00000  Uiso   1.00
H759   H     0.66474   0.05143   0.80663   0.00000  Uiso   1.00
H760   H     0.60720   0.32819   0.70442   0.00000  Uiso   1.00
H761   H     0.46369   0.33126   0.79129   0.00000  Uiso   1.00
H762   H     0.49759   0.00454   0.87020   0.00000  Uiso   1.00
H763   H     0.53074   0.05125   0.50971   0.00000  Uiso   1.00
H764   H     0.50937   0.19582   0.56885   0.00000  Uiso   1.00
H765   H     0.45452   0.25168   0.92101   0.00000  Uiso   1.00
H766   H     0.43111   0.16771   0.62005   0.00000  Uiso   1.00
O767   O     0.50000   0.16667   0.75000   0.00000  Uiso   1.00
O768   O     0.48784   0.12637   0.65459   0.00000  Uiso   1.00
O769   O     0.46274   0.20391   0.84968   0.00000  Uiso   1.00
O770   O     0.54157   0.17759   0.64606   0.00000  Uiso   1.00
O771   O     0.50785   0.15880   0.84968   0.00000  Uiso   1.00
O772   O     0.61579   0.11497   0.82799   0.00000  Uiso   1.00
O773   O     0.62475   0.08071   0.75162   0.00000  Uiso   1.00
O774   O     0.34887   0.07757   0.79529   0.00000  Uiso   1.00
O775   O     0.53356   0.00025   0.64580   0.00000  Uiso   1.00
O776   O     0.56358   0.05669   0.69256   0.00000  Uiso   1.00
O777   O     0.59668   0.32101   0.67669   0.00000  Uiso   1.00
O778   O     0.51264   0.08019   0.78214   0.00000  Uiso   1.00
O779   O     0.55262   0.03604   0.92247   0.00000  Uiso   1.00
O780   O     0.47990   0.01017   0.96240   0.00000  Uiso   1.00
O781   O     0.49177   0.03326   0.88161   0.00000  Uiso   1.00
O782   O     0.45556   0.24198   0.59843   0.00000  Uiso   1.00
O783   O     0.38864   0.22672   0.57503   0.00000  Uiso   1.00
O784   O     0.41993   0.16398   0.59267   0.00000  Uiso   1.00
O785   O     0.36368   0.25808   0.75352   0.00000  Uiso   1.00
O786   O     0.40156   0.21498   0.69096   0.00000  Uiso   1.00
O787   O     0.33598   0.24465   0.68076   0.00000  Uiso   1.00
O788   O     0.47965   0.26085   0.77014   0.00000  Uiso   1.00
O789   O     0.40745   0.13291   0.73413   0.00000  Uiso   1.00
O790   O     0.60026   0.19272   0.71361   0.00000  Uiso   1.00
O791   O     0.40405   0.18878   0.78213   0.00000  Uiso   1.00
O792   O     0.58824   0.15226   0.77014   0.00000  Uiso   1.00
O793   O     0.47093   0.06944   0.73413   0.00000  Uiso   1.00
O794   O     0.53678   0.25620   0.71361   0.00000  Uiso   1.00
S795   S     0.64743   0.10585   0.78466   0.00000  Uiso   1.00
S796   S     0.55205   0.01013   0.68630   0.00000  Uiso   1.00
S797   S     0.50651   0.04153   0.93073   0.00000  Uiso   1.00
S798   S     0.43031   0.21125   0.57161   0.00000  Uiso   1.00
S799   S     0.35840   0.22527   0.71623   0.00000  Uiso   1.00
Zn800  Zn    0.52672   0.13994   0.78734   0.00000  Uiso   1.00
Zn801  Zn    0.46713   0.12458   0.71876   0.00000  Uiso   1.00
Zn802  Zn    0.54389   0.19775   0.70657   0.00000  Uiso   1.00
Zn803  Zn    0.46226   0.20439   0.78734   0.00000  Uiso   1.00
C804   C     0.71969   0.15900   0.75979   0.00000  Uiso   1.00
C805   C     0.84479   0.16387   0.55592   0.00000  Uiso   1.00
C806   C     0.86434   0.09711   0.56395   0.00000  Uiso   1.00
C807   C     0.94742   0.17401   0.74053   0.00000  Uiso   1.00
C808   C     0.80668   0.19058   0.92056   0.00000  Uiso   1.00
C809   C     0.99261   0.17995   0.74061   0.00000  Uiso   1.00
C810   C     0.67499   0.15378   0.76211   0.00000  Uiso   1.00
C811   C     0.84705   0.32238   0.73360   0.00000  Uiso   1.00
C812   C     0.82005   0.01165   0.76292   0.00000  Uiso   1.00
C813   C     0.82232   0.05582   0.76069   0.00000  Uiso   1.00
C814   C     0.84335   0.27787   0.73962   0.00000  Uiso   1.00
C815   C     0.78465   0.23619   0.98725   0.00000  Uiso   1.00
C816   C     0.85179   0.14776   0.62925   0.00000  Uiso   1.00
C817   C     0.81478   0.18381   0.87108   0.00000  Uiso   1.00
C818   C     0.85760   0.08257   0.52186   0.00000  Uiso   1.00
C819   C     0.85778   0.13772   0.58112   0.00000  Uiso   1.00
C820   C     0.79337   0.22851   0.94088   0.00000  Uiso   1.00
C821   C     0.79213   0.20778   0.51434   0.00000  Uiso   1.00
C822   C     0.81293   0.17268   0.99358   0.00000  Uiso   1.00
C823   C     0.81385   0.16112   0.94769   0.00000  Uiso   1.00
C824   C     0.83216   0.14814   0.51622   0.00000  Uiso   1.00
C825   C     0.84111   0.10747   0.99747   0.00000  Uiso   1.00
C826   C     0.83292   0.09282   0.95523   0.00000  Uiso   1.00
C827   C     0.82014   0.11994   0.93077   0.00000  Uiso   1.00
H828   H     0.87353   0.07621   0.58382   0.00000  Uiso   1.00
H829   H     0.77025   0.26376   0.50227   0.00000  Uiso   1.00
H830   H     0.81344   0.10775   0.89898   0.00000  Uiso   1.00
H831   H     0.68897   0.27000   0.67035   0.00000  Uiso   1.00
H832   H     0.99807   0.05143   0.80663   0.00000  Uiso   1.00
H833   H     0.94053   0.32819   0.70442   0.00000  Uiso   1.00
H834   H     0.79702   0.33126   0.79129   0.00000  Uiso   1.00
H835   H     0.83093   0.00454   0.87020   0.00000  Uiso   1.00
H836   H     0.86407   0.05125   0.50971   0.00000  Uiso   1.00
H837   H     0.84271   0.19582   0.56885   0.00000  Uiso   1.00
H838   H     0.78785   0.25168   0.92101   0.00000  Uiso   1.00
H839   H     0.76445   0.16771   0.62005   0.00000  Uiso   1.00
O840   O     0.83333   0.16667   0.75000   0.00000  Uiso   1.00
O841   O     0.82118   0.12637   0.65459   0.00000  Uiso   1.00
O842   O     0.79607   0.20391   0.84968   0.00000  Uiso   1.00
O843   O     0.87491   0.17759   0.64606   0.00000  Uiso   1.00
O844   O     0.84118   0.15880   0.84968   0.00000  Uiso   1.00
O845   O     0.94912   0.11497   0.82799   0.00000  Uiso   1.00
O846   O     0.95808   0.08071   0.75162   0.00000  Uiso   1.00
O847   O     0.68221   0.07757   0.79529   0.00000  Uiso   1.00
O848   O     0.86689   0.00025   0.64580   0.00000  Uiso   1.00
O849   O     0.89691   0.05669   0.69256   0.00000  Uiso   1.00
O850   O     0.93001   0.32101   0.67669   0.00000  Uiso   1.00
O851   O     0.84597   0.08019   0.78214   0.00000  Uiso   1.00
O852   O     0.88595   0.03604   0.92247   0.00000  Uiso   1.00
O853   O     0.81324   0.01017   0.96240   0.00000  Uiso   1.00
O854   O     0.82510   0.03326   0.88161   0.00000  Uiso   1.00
O855   O     0.78889   0.24198   0.59843   0.00000  Uiso   1.00
O856   O     0.72197   0.22672   0.57503   0.00000  Uiso   1.00
O857   O     0.75326   0.16398   0.59267   0.00000  Uiso   1.00
O858   O     0.69702   0.25808   0.75352   0.00000  Uiso   1.00
O859   O     0.73489   0.21498   0.69096   0.00000  Uiso   1.00
O860   O     0.66932   0.24465   0.68076   0.00000  Uiso   1.00
O861   O     0.81298   0.26085   0.77014   0.00000  Uiso   1.00
O862   O     0.74078   0.13291   0.73413   0.00000  Uiso   1.00
O863   O     0.93360   0.19272   0.71361   0.00000  Uiso   1.00
O864   O     0.73738   0.18878   0.78213   0.00000  Uiso   1.00
O865   O     0.92158   0.15226   0.77014   0.00000  Uiso   1.00
O866   O     0.80426   0.06944   0.73413   0.00000  Uiso   1.00
O867   O     0.87012   0.25620   0.71361   0.00000  Uiso   1.00
S868   S     0.98077   0.10585   0.78466   0.00000  Uiso   1.00
S869   S     0.88538   0.01013   0.68630   0.00000  Uiso   1.00
S870   S     0.83984   0.04153   0.93073   0.00000  Uiso   1.00
S871   S     0.76365   0.21125   0.57161   0.00000  Uiso   1.00
S872   S     0.69173   0.22527   0.71623   0.00000  Uiso   1.00
Zn873  Zn    0.86005   0.13994   0.78734   0.00000  Uiso   1.00
Zn874  Zn    0.80046   0.12458   0.71876   0.00000  Uiso   1.00
Zn875  Zn    0.87723   0.19775   0.70657   0.00000  Uiso   1.00
Zn876  Zn    0.79560   0.20439   0.78734   0.00000  Uiso   1.00
C877   C     0.05302   0.49234   0.75979   0.00000  Uiso   1.00
C878   C     0.17812   0.49720   0.55592   0.00000  Uiso   1.00
C879   C     0.19768   0.43044   0.56395   0.00000  Uiso   1.00
C880   C     0.28075   0.50735   0.74053   0.00000  Uiso   1.00
C881   C     0.14001   0.52392   0.92056   0.00000  Uiso   1.00
C882   C     0.32595   0.51329   0.74061   0.00000  Uiso   1.00
C883   C     0.00832   0.48712   0.76211   0.00000  Uiso   1.00
C884   C     0.18038   0.65571   0.73360   0.00000  Uiso   1.00
C885   C     0.15339   0.34499   0.76292   0.00000  Uiso   1.00
C886   C     0.15565   0.38915   0.76069   0.00000  Uiso   1.00
C887   C     0.17668   0.61121   0.73962   0.00000  Uiso   1.00
C888   C     0.11798   0.56952   0.98725   0.00000  Uiso   1.00
C889   C     0.18513   0.48110   0.62925   0.00000  Uiso   1.00
C890   C     0.14812   0.51715   0.87108   0.00000  Uiso   1.00
C891   C     0.19093   0.41590   0.52186   0.00000  Uiso   1.00
C892   C     0.19111   0.47105   0.58112   0.00000  Uiso   1.00
C893   C     0.12670   0.56184   0.94088   0.00000  Uiso   1.00
C894   C     0.12546   0.54112   0.51434   0.00000  Uiso   1.00
C895   C     0.14626   0.50602   0.99358   0.00000  Uiso   1.00
C896   C     0.14718   0.49446   0.94769   0.00000  Uiso   1.00
C897   C     0.16549   0.48147   0.51622   0.00000  Uiso   1.00
C898   C     0.17445   0.44081   0.99747   0.00000  Uiso   1.00
C899   C     0.16625   0.42616   0.95523   0.00000  Uiso   1.00
C900   C     0.15348   0.45327   0.93077   0.00000  Uiso   1.00
H901   H     0.20687   0.40955   0.58382   0.00000  Uiso   1.00
H902   H     0.10358   0.59710   0.50227   0.00000  Uiso   1.00
H903   H     0.14677   0.44108   0.89898   0.00000  Uiso   1.00
H904   H     0.02230   0.60333   0.67035   0.00000  Uiso   1.00
H905   H     0.33140   0.38476   0.80663   0.00000  Uiso   1.00
H906   H     0.27386   0.66152   0.70442   0.00000  Uiso   1.00
H907   H     0.13035   0.66459   0.79129   0.00000  Uiso   1.00
H908   H     0.16426   0.33787   0.87020   0.00000  Uiso   1.00
H909   H     0.19741   0.38458   0.50971   0.00000  Uiso   1.00
H910   H     0.17604   0.52915   0.56885   0.00000  Uiso   1.00
H911   H     0.12118   0.58501   0.92101   0.00000  Uiso   1.00
H912   H     0.09778   0.50104   0.62005   0.00000  Uiso   1.00
O913   O     0.16667   0.50000   0.75000   0.00000  Uiso   1.00
O914   O     0.15451   0.45970   0.65459   0.00000  Uiso   1.00
O915   O     0.12940   0.53724   0.84968   0.00000  Uiso   1.00
O916   O     0.20824   0.51092   0.64606   0.00000  Uiso   1.00
O917   O     0.17451   0.49213   0.84968   0.00000  Uiso   1.00
O918   O     0.28245   0.44830   0.82799   0.00000  Uiso   1.00
O919   O     0.29142   0.41405   0.75162   0.00000  Uiso   1.00
O920   O     0.01554   0.41091   0.79529   0.00000  Uiso   1.00
O921   O     0.20022   0.33358   0.64580   0.00000  Uiso   1.00
O922   O     0.23025   0.39002   0.69256   0.00000  Uiso   1.00
O923   O     0.26334   0.65435   0.67669   0.00000  Uiso   1.00
O924   O     0.17930   0.41352   0.78214   0.00000  Uiso   1.00
O925   O     0.21929   0.36937   0.92247   0.00000  Uiso   1.00
O926   O     0.14657   0.34351   0.96240   0.00000  Uiso   1.00
O927   O     0.15843   0.36659   0.88161   0.00000  Uiso   1.00
O928   O     0.12222   0.57532   0.59843   0.00000  Uiso   1.00
O929   O     0.05531   0.56005   0.57503   0.00000  Uiso   1.00
O930   O     0.08660   0.49731   0.59267   0.00000  Uiso   1.00
O931   O     0.03035   0.59142   0.75352   0.00000  Uiso   1.00
O932   O     0.06822   0.54832   0.69096   0.00000  Uiso   1.00
O933   O     0.00265   0.57798   0.68076   0.00000  Uiso   1.00
O934   O     0.14632   0.59418   0.77014   0.00000  Uiso   1.00
O935   O     0.07412   0.46625   0.73413   0.00000  Uiso   1.00
O936   O     0.26693   0.52605   0.71361   0.00000  Uiso   1.00
O937   O     0.07071   0.52211   0.78213   0.00000  Uiso   1.00
O938   O     0.25491   0.48559   0.77014   0.00000  Uiso   1.00
O939   O     0.13760   0.40277   0.73413   0.00000  Uiso   1.00
O940   O     0.20345   0.58953   0.71361   0.00000  Uiso   1.00
S941   S     0.31410   0.43918   0.78466   0.00000  Uiso   1.00
S942   S     0.21871   0.34346   0.68630   0.00000  Uiso   1.00
S943   S     0.17318   0.37487   0.93073   0.00000  Uiso   1.00
S944   S     0.09698   0.54459   0.57161   0.00000  Uiso   1.00
S945   S     0.02506   0.55861   0.71623   0.00000  Uiso   1.00
Zn946  Zn    0.19338   0.47327   0.78734   0.00000  Uiso   1.00
Zn947  Zn    0.13379   0.45791   0.71876   0.00000  Uiso   1.00
Zn948  Zn    0.21056   0.53109   0.70657   0.00000  Uiso   1.00
Zn949  Zn    0.12893   0.53773   0.78734   0.00000  Uiso   1.00
C950   C     0.38636   0.49234   0.75979   0.00000  Uiso   1.00
C951   C     0.51146   0.49720   0.55592   0.00000  Uiso   1.00
C952   C     0.53101   0.43044   0.56395   0.00000  Uiso   1.00
C953   C     0.61409   0.50735   0.74053   0.00000  Uiso   1.00
C954   C     0.47335   0.52392   0.92056   0.00000  Uiso   1.00
C955   C     0.65928   0.51329   0.74061   0.00000  Uiso   1.00
C956   C     0.34166   0.48712   0.76211   0.00000  Uiso   1.00
C957   C     0.51372   0.65571   0.73360   0.00000  Uiso   1.00
C958   C     0.48672   0.34499   0.76292   0.00000  Uiso   1.00
C959   C     0.48898   0.38915   0.76069   0.00000  Uiso   1.00
C960   C     0.51001   0.61121   0.73962   0.00000  Uiso   1.00
C961   C     0.45132   0.56952   0.98725   0.00000  Uiso   1.00
C962   C     0.51846   0.48110   0.62925   0.00000  Uiso   1.00
C963   C     0.48145   0.51715   0.87108   0.00000  Uiso   1.00
C964   C     0.52427   0.41590   0.52186   0.00000  Uiso   1.00
C965   C     0.52445   0.47105   0.58112   0.00000  Uiso   1.00
C966   C     0.46004   0.56184   0.94088   0.00000  Uiso   1.00
C967   C     0.45880   0.54112   0.51434   0.00000  Uiso   1.00
C968   C     0.47960   0.50602   0.99358   0.00000  Uiso   1.00
C969   C     0.48052   0.49446   0.94769   0.00000  Uiso   1.00
C970   C     0.49883   0.48147   0.51622   0.00000  Uiso   1.00
C971   C     0.50778   0.44081   0.99747   0.00000  Uiso   1.00
C972   C     0.49959   0.42616   0.95523   0.00000  Uiso   1.00
C973   C     0.48681   0.45327   0.93077   0.00000  Uiso   1.00
H974   H     0.54020   0.40955   0.58382   0.00000  Uiso   1.00
H975   H     0.43691   0.59710   0.50227   0.00000  Uiso   1.00
H976   H     0.48010   0.44108   0.89898   0.00000  Uiso   1.00
H977   H     0.35563   0.60333   0.67035   0.00000  Uiso   1.00
H978   H     0.66474   0.38476   0.80663   0.00000  Uiso   1.00
H979   H     0.60720   0.66152   0.70442   0.00000  Uiso   1.00
H980   H     0.46369   0.66459   0.79129   0.00000  Uiso   1.00
H981   H     0.49759   0.33787   0.87020   0.00000  Uiso   1.00
H982   H     0.53074   0.38458   0.50971   0.00000  Uiso   1.00
H983   H     0.50937   0.52915   0.56885   0.00000  Uiso   1.00
H984   H     0.45452   0.58501   0.92101   0.00000  Uiso   1.00
H985   H     0.43111   0.50104   0.62005   0.00000  Uiso   1.00
O986   O     0.50000   0.50000   0.75000   0.00000  Uiso   1.00
O987   O     0.48784   0.45970   0.65459   0.00000  Uiso   1.00
O988   O     0.46274   0.53724   0.84968   0.00000  Uiso   1.00
O989   O     0.54157   0.51092   0.64606   0.00000  Uiso   1.00
O990   O     0.50785   0.49213   0.84968   0.00000  Uiso   1.00
O991   O     0.61579   0.44830   0.82799   0.00000  Uiso   1.00
O992   O     0.62475   0.41405   0.75162   0.00000  Uiso   1.00
O993   O     0.34887   0.41091   0.79529   0.00000  Uiso   1.00
O994   O     0.53356   0.33358   0.64580   0.00000  Uiso   1.00
O995   O     0.56358   0.39002   0.69256   0.00000  Uiso   1.00
O996   O     0.59668   0.65435   0.67669   0.00000  Uiso   1.00
O997   O     0.51264   0.41352   0.78214   0.00000  Uiso   1.00
O998   O     0.55262   0.36937   0.92247   0.00000  Uiso   1.00
O999   O     0.47990   0.34351   0.96240   0.00000  Uiso   1.00
O1000  O     0.49177   0.36659   0.88161   0.00000  Uiso   1.00
O1001  O     0.45556   0.57532   0.59843   0.00000  Uiso   1.00
O1002  O     0.38864   0.56005   0.57503   0.00000  Uiso   1.00
O1003  O     0.41993   0.49731   0.59267   0.00000  Uiso   1.00
O1004  O     0.36368   0.59142   0.75352   0.00000  Uiso   1.00
O1005  O     0.40156   0.54832   0.69096   0.00000  Uiso   1.00
O1006  O     0.33598   0.57798   0.68076   0.00000  Uiso   1.00
O1007  O     0.47965   0.59418   0.77014   0.00000  Uiso   1.00
O1008  O     0.40745   0.46625   0.73413   0.00000  Uiso   1.00
O1009  O     0.60026   0.52605   0.71361   0.00000  Uiso   1.00
O1010  O     0.40405   0.52211   0.78213   0.00000  Uiso   1.00
O1011  O     0.58824   0.48559   0.77014   0.00000  Uiso   1.00
O1012  O     0.47093   0.40277   0.73413   0.00000  Uiso   1.00
O1013  O     0.53678   0.58953   0.71361   0.00000  Uiso   1.00
S1014  S     0.64743   0.43918   0.78466   0.00000  Uiso   1.00
S1015  S     0.55205   0.34346   0.68630   0.00000  Uiso   1.00
S1016  S     0.50651   0.37487   0.93073   0.00000  Uiso   1.00
S1017  S     0.43031   0.54459   0.57161   0.00000  Uiso   1.00
S1018  S     0.35840   0.55861   0.71623   0.00000  Uiso   1.00
Zn1019 Zn    0.52672   0.47327   0.78734   0.00000  Uiso   1.00
Zn1020 Zn    0.46713   0.45791   0.71876   0.00000  Uiso   1.00
Zn1021 Zn    0.54389   0.53109   0.70657   0.00000  Uiso   1.00
Zn1022 Zn    0.46226   0.53773   0.78734   0.00000  Uiso   1.00
C1023  C     0.71969   0.49234   0.75979   0.00000  Uiso   1.00
C1024  C     0.84479   0.49720   0.55592   0.00000  Uiso   1.00
C1025  C     0.86434   0.43044   0.56395   0.00000  Uiso   1.00
C1026  C     0.94742   0.50735   0.74053   0.00000  Uiso   1.00
C1027  C     0.80668   0.52392   0.92056   0.00000  Uiso   1.00
C1028  C     0.99261   0.51329   0.74061   0.00000  Uiso   1.00
C1029  C     0.67499   0.48712   0.76211   0.00000  Uiso   1.00
C1030  C     0.84705   0.65571   0.73360   0.00000  Uiso   1.00
C1031  C     0.82005   0.34499   0.76292   0.00000  Uiso   1.00
C1032  C     0.82232   0.38915   0.76069   0.00000  Uiso   1.00
C1033  C     0.84335   0.61121   0.73962   0.00000  Uiso   1.00
C1034  C     0.78465   0.56952   0.98725   0.00000  Uiso   1.00
C1035  C     0.85179   0.48110   0.62925   0.00000  Uiso   1.00
C1036  C     0.81478   0.51715   0.87108   0.00000  Uiso   1.00
C1037  C     0.85760   0.41590   0.52186   0.00000  Uiso   1.00
C1038  C     0.85778   0.47105   0.58112   0.00000  Uiso   1.00
C1039  C     0.79337   0.56184   0.94088   0.00000  Uiso   1.00
C1040  C     0.79213   0.54112   0.51434   0.00000  Uiso   1.00
C1041  C     0.81293   0.50602   0.99358   0.00000  Uiso   1.00
C1042  C     0.81385   0.49446   0.94769   0.00000  Uiso   1.00
C1043  C     0.83216   0.48147   0.51622   0.00000  Uiso   1.00
C1044  C     0.84111   0.44081   0.99747   0.00000  Uiso   1.00
C1045  C     0.83292   0.42616   0.95523   0.00000  Uiso   1.00
C1046  C     0.82014   0.45327   0.93077   0.00000  Uiso   1.00
H1047  H     0.87353   0.40955   0.58382   0.00000  Uiso   1.00
H1048  H     0.77025   0.59710   0.50227   0.00000  Uiso   1.00
H1049  H     0.81344   0.44108   0.89898   0.00000  Uiso   1.00
H1050  H     0.68897   0.60333   0.67035   0.00000  Uiso   1.00
H1051  H     0.99807   0.38476   0.80663   0.00000  Uiso   1.00
H1052  H     0.94053   0.66152   0.70442   0.00000  Uiso   1.00
H1053  H     0.79702   0.66459   0.79129   0.00000  Uiso   1.00
H1054  H     0.83093   0.33787   0.87020   0.00000  Uiso   1.00
H1055  H     0.86407   0.38458   0.50971   0.00000  Uiso   1.00
H1056  H     0.84271   0.52915   0.56885   0.00000  Uiso   1.00
H1057  H     0.78785   0.58501   0.92101   0.00000  Uiso   1.00
H1058  H     0.76445   0.50104   0.62005   0.00000  Uiso   1.00
O1059  O     0.83333   0.50000   0.75000   0.00000  Uiso   1.00
O1060  O     0.82118   0.45970   0.65459   0.00000  Uiso   1.00
O1061  O     0.79607   0.53724   0.84968   0.00000  Uiso   1.00
O1062  O     0.87491   0.51092   0.64606   0.00000  Uiso   1.00
O1063  O     0.84118   0.49213   0.84968   0.00000  Uiso   1.00
O1064  O     0.94912   0.44830   0.82799   0.00000  Uiso   1.00
O1065  O     0.95808   0.41405   0.75162   0.00000  Uiso   1.00
O1066  O     0.68221   0.41091   0.79529   0.00000  Uiso   1.00
O1067  O     0.86689   0.33358   0.64580   0.00000  Uiso   1.00
O1068  O     0.89691   0.39002   0.69256   0.00000  Uiso   1.00
O1069  O     0.93001   0.65435   0.67669   0.00000  Uiso   1.00
O1070  O     0.84597   0.41352   0.78214   0.00000  Uiso   1.00
O1071  O     0.88595   0.36937   0.92247   0.00000  Uiso   1.00
O1072  O     0.81324   0.34351   0.96240   0.00000  Uiso   1.00
O1073  O     0.82510   0.36659   0.88161   0.00000  Uiso   1.00
O1074  O     0.78889   0.57532   0.59843   0.00000  Uiso   1.00
O1075  O     0.72197   0.56005   0.57503   0.00000  Uiso   1.00
O1076  O     0.75326   0.49731   0.59267   0.00000  Uiso   1.00
O1077  O     0.69702   0.59142   0.75352   0.00000  Uiso   1.00
O1078  O     0.73489   0.54832   0.69096   0.00000  Uiso   1.00
O1079  O     0.66932   0.57798   0.68076   0.00000  Uiso   1.00
O1080  O     0.81298   0.59418   0.77014   0.00000  Uiso   1.00
O1081  O     0.74078   0.46625   0.73413   0.00000  Uiso   1.00
O1082  O     0.93360   0.52605   0.71361   0.00000  Uiso   1.00
O1083  O     0.73738   0.52211   0.78213   0.00000  Uiso   1.00
O1084  O     0.92158   0.48559   0.77014   0.00000  Uiso   1.00
O1085  O     0.80426   0.40277   0.73413   0.00000  Uiso   1.00
O1086  O     0.87012   0.58953   0.71361   0.00000  Uiso   1.00
S1087  S     0.98077   0.43918   0.78466   0.00000  Uiso   1.00
S1088  S     0.88538   0.34346   0.68630   0.00000  Uiso   1.00
S1089  S     0.83984   0.37487   0.93073   0.00000  Uiso   1.00
S1090  S     0.76365   0.54459   0.57161   0.00000  Uiso   1.00
S1091  S     0.69173   0.55861   0.71623   0.00000  Uiso   1.00
Zn1092 Zn    0.86005   0.47327   0.78734   0.00000  Uiso   1.00
Zn1093 Zn    0.80046   0.45791   0.71876   0.00000  Uiso   1.00
Zn1094 Zn    0.87723   0.53109   0.70657   0.00000  Uiso   1.00
Zn1095 Zn    0.79560   0.53773   0.78734   0.00000  Uiso   1.00
C1096  C     0.05302   0.82567   0.75979   0.00000  Uiso   1.00
C1097  C     0.17812   0.83053   0.55592   0.00000  Uiso   1.00
C1098  C     0.19768   0.76378   0.56395   0.00000  Uiso   1.00
C1099  C     0.28075   0.84068   0.74053   0.00000  Uiso   1.00
C1100  C     0.14001   0.85725   0.92056   0.00000  Uiso   1.00
C1101  C     0.32595   0.84662   0.74061   0.00000  Uiso   1.00
C1102  C     0.00832   0.82045   0.76211   0.00000  Uiso   1.00
C1103  C     0.18038   0.98905   0.73360   0.00000  Uiso   1.00
C1104  C     0.15339   0.67832   0.76292   0.00000  Uiso   1.00
C1105  C     0.15565   0.72248   0.76069   0.00000  Uiso   1.00
C1106  C     0.17668   0.94454   0.73962   0.00000  Uiso   1.00
C1107  C     0.11798   0.90286   0.98725   0.00000  Uiso   1.00
C1108  C     0.18513   0.81443   0.62925   0.00000  Uiso   1.00
C1109  C     0.14812   0.85048   0.87108   0.00000  Uiso   1.00
C1110  C     0.19093   0.74924   0.52186   0.00000  Uiso   1.00
C1111  C     0.19111   0.80439   0.58112   0.00000  Uiso   1.00
C1112  C     0.12670   0.89518   0.94088   0.00000  Uiso   1.00
C1113  C     0.12546   0.87445   0.51434   0.00000  Uiso   1.00
C1114  C     0.14626   0.83935   0.99358   0.00000  Uiso   1.00
C1115  C     0.14718   0.82779   0.94769   0.00000  Uiso   1.00
C1116  C     0.16549   0.81481   0.51622   0.00000  Uiso   1.00
C1117  C     0.17445   0.77414   0.99747   0.00000  Uiso   1.00
C1118  C     0.16625   0.75949   0.95523   0.00000  Uiso   1.00
C1119  C     0.15348   0.78661   0.93077   0.00000  Uiso   1.00
H1120  H     0.20687   0.74288   0.58382   0.00000  Uiso   1.00
H1121  H     0.10358   0.93043   0.50227   0.00000  Uiso   1.00
H1122  H     0.14677   0.77441   0.89898   0.00000  Uiso   1.00
H1123  H     0.02230   0.93667   0.67035   0.00000  Uiso   1.00
H1124  H     0.33140   0.71810   0.80663   0.00000  Uiso   1.00
H1125  H     0.27386   0.99486   0.70442   0.00000  Uiso   1.00
H1126  H     0.13035   0.99792   0.79129   0.00000  Uiso   1.00
H1127  H     0.16426   0.67120   0.87020   0.00000  Uiso   1.00
H1128  H     0.19741   0.71792   0.50971   0.00000  Uiso   1.00
H1129  H     0.17604   0.86248   0.56885   0.00000  Uiso   1.00
H1130  H     0.12118   0.91834   0.92101   0.00000  Uiso   1.00
H1131  H     0.09778   0.83437   0.62005   0.00000  Uiso   1.00
O1132  O     0.16667   0.83333   0.75000   0.00000  Uiso   1.00
O1133  O     0.15451   0.79304   0.65459   0.00000  Uiso   1.00
O1134  O     0.12940   0.87058   0.84968   0.00000  Uiso   1.00
O1135  O     0.20824   0.84425   0.64606   0.00000  Uiso   1.00
O1136  O     0.17451   0.82546   0.84968   0.00000  Uiso   1.00
O1137  O     0.28245   0.78163   0.82799   0.00000  Uiso   1.00
O1138  O     0.29142   0.74738   0.75162   0.00000  Uiso   1.00
O1139  O     0.01554   0.74424   0.79529   0.00000  Uiso   1.00
O1140  O     0.20022   0.66692   0.64580   0.00000  Uiso   1.00
O1141  O     0.23025   0.72335   0.69256   0.00000  Uiso   1.00
O1142  O     0.26334   0.98768   0.67669   0.00000  Uiso   1.00
O1143  O     0.17930   0.74686   0.78214   0.00000  Uiso   1.00
O1144  O     0.21929   0.70271   0.92247   0.00000  Uiso   1.00
O1145  O     0.14657   0.67684   0.96240   0.00000  Uiso   1.00
O1146  O     0.15843   0.69992   0.88161   0.00000  Uiso   1.00
O1147  O     0.12222   0.90865   0.59843   0.00000  Uiso   1.00
O1148  O     0.05531   0.89338   0.57503   0.00000  Uiso   1.00
O1149  O     0.08660   0.83064   0.59267   0.00000  Uiso   1.00
O1150  O     0.03035   0.92475   0.75352   0.00000  Uiso   1.00
O1151  O     0.06822   0.88165   0.69096   0.00000  Uiso   1.00
O1152  O     0.00265   0.91132   0.68076   0.00000  Uiso   1.00
O1153  O     0.14632   0.92751   0.77014   0.00000  Uiso   1.00
O1154  O     0.07412   0.79958   0.73413   0.00000  Uiso   1.00
O1155  O     0.26693   0.85939   0.71361   0.00000  Uiso   1.00
O1156  O     0.07071   0.85544   0.78213   0.00000  Uiso   1.00
O1157  O     0.25491   0.81892   0.77014   0.00000  Uiso   1.00
O1158  O     0.13760   0.73610   0.73413   0.00000  Uiso   1.00
O1159  O     0.20345   0.92286   0.71361   0.00000  Uiso   1.00
S1160  S     0.31410   0.77252   0.78466   0.00000  Uiso   1.00
S1161  S     0.21871   0.67679   0.68630   0.00000  Uiso   1.00
S1162  S     0.17318   0.70820   0.93073   0.00000  Uiso   1.00
S1163  S     0.09698   0.87792   0.57161   0.00000  Uiso   1.00
S1164  S     0.02506   0.89194   0.71623   0.00000  Uiso   1.00
Zn1165 Zn    0.19338   0.80661   0.78734   0.00000  Uiso   1.00
Zn1166 Zn    0.13379   0.79124   0.71876   0.00000  Uiso   1.00
Zn1167 Zn    0.21056   0.86442   0.70657   0.00000  Uiso   1.00
Zn1168 Zn    0.12893   0.87106   0.78734   0.00000  Uiso   1.00
C1169  C     0.38636   0.82567   0.75979   0.00000  Uiso   1.00
C1170  C     0.51146   0.83053   0.55592   0.00000  Uiso   1.00
C1171  C     0.53101   0.76378   0.56395   0.00000  Uiso   1.00
C1172  C     0.61409   0.84068   0.74053   0.00000  Uiso   1.00
C1173  C     0.47335   0.85725   0.92056   0.00000  Uiso   1.00
C1174  C     0.65928   0.84662   0.74061   0.00000  Uiso   1.00
C1175  C     0.34166   0.82045   0.76211   0.00000  Uiso   1.00
C1176  C     0.51372   0.98905   0.73360   0.00000  Uiso   1.00
C1177  C     0.48672   0.67832   0.76292   0.00000  Uiso   1.00
C1178  C     0.48898   0.72248   0.76069   0.00000  Uiso   1.00
C1179  C     0.51001   0.94454   0.73962   0.00000  Uiso   1.00
C1180  C     0.45132   0.90286   0.98725   0.00000  Uiso   1.00
C1181  C     0.51846   0.81443   0.62925   0.00000  Uiso   1.00
C1182  C     0.48145   0.85048   0.87108   0.00000  Uiso   1.00
C1183  C     0.52427   0.74924   0.52186   0.00000  Uiso   1.00
C1184  C     0.52445   0.80439   0.58112   0.00000  Uiso   1.00
C1185  C     0.46004   0.89518   0.94088   0.00000  Uiso   1.00
C1186  C     0.45880   0.87445   0.51434   0.00000  Uiso   1.00
C1187  C     0.47960   0.83935   0.99358   0.00000  Uiso   1.00
C1188  C     0.48052   0.82779   0.94769   0.00000  Uiso   1.00
C1189  C     0.49883   0.81481   0.51622   0.00000  Uiso   1.00
C1190  C     0.50778   0.77414   0.99747   0.00000  Uiso   1.00
C1191  C     0.49959   0.75949   0.95523   0.00000  Uiso   1.00
C1192  C     0.48681   0.78661   0.93077   0.00000  Uiso   1.00
H1193  H     0.54020   0.74288   0.58382   0.00000  Uiso   1.00
H1194  H     0.43691   0.93043   0.50227   0.00000  Uiso   1.00
H1195  H     0.48010   0.77441   0.89898   0.00000  Uiso   1.00
H1196  H     0.35563   0.93667   0.67035   0.00000  Uiso   1.00
H1197  H     0.66474   0.71810   0.80663   0.00000  Uiso   1.00
H1198  H     0.60720   0.99486   0.70442   0.00000  Uiso   1.00
H1199  H     0.46369   0.99792   0.79129   0.00000  Uiso   1.00
H1200  H     0.49759   0.67120   0.87020   0.00000  Uiso   1.00
H1201  H     0.53074   0.71792   0.50971   0.00000  Uiso   1.00
H1202  H     0.50937   0.86248   0.56885   0.00000  Uiso   1.00
H1203  H     0.45452   0.91834   0.92101   0.00000  Uiso   1.00
H1204  H     0.43111   0.83437   0.62005   0.00000  Uiso   1.00
O1205  O     0.50000   0.83333   0.75000   0.00000  Uiso   1.00
O1206  O     0.48784   0.79304   0.65459   0.00000  Uiso   1.00
O1207  O     0.46274   0.87058   0.84968   0.00000  Uiso   1.00
O1208  O     0.54157   0.84425   0.64606   0.00000  Uiso   1.00
O1209  O     0.50785   0.82546   0.84968   0.00000  Uiso   1.00
O1210  O     0.61579   0.78163   0.82799   0.00000  Uiso   1.00
O1211  O     0.62475   0.74738   0.75162   0.00000  Uiso   1.00
O1212  O     0.34887   0.74424   0.79529   0.00000  Uiso   1.00
O1213  O     0.53356   0.66692   0.64580   0.00000  Uiso   1.00
O1214  O     0.56358   0.72335   0.69256   0.00000  Uiso   1.00
O1215  O     0.59668   0.98768   0.67669   0.00000  Uiso   1.00
O1216  O     0.51264   0.74686   0.78214   0.00000  Uiso   1.00
O1217  O     0.55262   0.70271   0.92247   0.00000  Uiso   1.00
O1218  O     0.47990   0.67684   0.96240   0.00000  Uiso   1.00
O1219  O     0.49177   0.69992   0.88161   0.00000  Uiso   1.00
O1220  O     0.45556   0.90865   0.59843   0.00000  Uiso   1.00
O1221  O     0.38864   0.89338   0.57503   0.00000  Uiso   1.00
O1222  O     0.41993   0.83064   0.59267   0.00000  Uiso   1.00
O1223  O     0.36368   0.92475   0.75352   0.00000  Uiso   1.00
O1224  O     0.40156   0.88165   0.69096   0.00000  Uiso   1.00
O1225  O     0.33598   0.91132   0.68076   0.00000  Uiso   1.00
O1226  O     0.47965   0.92751   0.77014   0.00000  Uiso   1.00
O1227  O     0.40745   0.79958   0.73413   0.00000  Uiso   1.00
O1228  O     0.60026   0.85939   0.71361   0.00000  Uiso   1.00
O1229  O     0.40405   0.85544   0.78213   0.00000  Uiso   1.00
O1230  O     0.58824   0.81892   0.77014   0.00000  Uiso   1.00
O1231  O     0.47093   0.73610   0.73413   0.00000  Uiso   1.00
O1232  O     0.53678   0.92286   0.71361   0.00000  Uiso   1.00
S1233  S     0.64743   0.77252   0.78466   0.00000  Uiso   1.00
S1234  S     0.55205   0.67679   0.68630   0.00000  Uiso   1.00
S1235  S     0.50651   0.70820   0.93073   0.00000  Uiso   1.00
S1236  S     0.43031   0.87792   0.57161   0.00000  Uiso   1.00
S1237  S     0.35840   0.89194   0.71623   0.00000  Uiso   1.00
Zn1238 Zn    0.52672   0.80661   0.78734   0.00000  Uiso   1.00
Zn1239 Zn    0.46713   0.79124   0.71876   0.00000  Uiso   1.00
Zn1240 Zn    0.54389   0.86442   0.70657   0.00000  Uiso   1.00
Zn1241 Zn    0.46226   0.87106   0.78734   0.00000  Uiso   1.00
C1242  C     0.71969   0.82567   0.75979   0.00000  Uiso   1.00
C1243  C     0.84479   0.83053   0.55592   0.00000  Uiso   1.00
C1244  C     0.86434   0.76378   0.56395   0.00000  Uiso   1.00
C1245  C     0.94742   0.84068   0.74053   0.00000  Uiso   1.00
C1246  C     0.80668   0.85725   0.92056   0.00000  Uiso   1.00
C1247  C     0.99261   0.84662   0.74061   0.00000  Uiso   1.00
C1248  C     0.67499   0.82045   0.76211   0.00000  Uiso   1.00
C1249  C     0.84705   0.98905   0.73360   0.00000  Uiso   1.00
C1250  C     0.82005   0.67832   0.76292   0.00000  Uiso   1.00
C1251  C     0.82232   0.72248   0.76069   0.00000  Uiso   1.00
C1252  C     0.84335   0.94454   0.73962   0.00000  Uiso   1.00
C1253  C     0.78465   0.90286   0.98725   0.00000  Uiso   1.00
C1254  C     0.85179   0.81443   0.62925   0.00000  Uiso   1.00
C1255  C     0.81478   0.85048   0.87108   0.00000  Uiso   1.00
C1256  C     0.85760   0.74924   0.52186   0.00000  Uiso   1.00
C1257  C     0.85778   0.80439   0.58112   0.00000  Uiso   1.00
C1258  C     0.79337   0.89518   0.94088   0.00000  Uiso   1.00
C1259  C     0.79213   0.87445   0.51434   0.00000  Uiso   1.00
C1260  C     0.81293   0.83935   0.99358   0.00000  Uiso   1.00
C1261  C     0.81385   0.82779   0.94769   0.00000  Uiso   1.00
C1262  C     0.83216   0.81481   0.51622   0.00000  Uiso   1.00
C1263  C     0.84111   0.77414   0.99747   0.00000  Uiso   1.00
C1264  C     0.83292   0.75949   0.95523   0.00000  Uiso   1.00
C1265  C     0.82014   0.78661   0.93077   0.00000  Uiso   1.00
H1266  H     0.87353   0.74288   0.58382   0.00000  Uiso   1.00
H1267  H     0.77025   0.93043   0.50227   0.00000  Uiso   1.00
H1268  H     0.81344   0.77441   0.89898   0.00000  Uiso   1.00
H1269  H     0.68897   0.93667   0.67035   0.00000  Uiso   1.00
H1270  H     0.99807   0.71810   0.80663   0.00000  Uiso   1.00
H1271  H     0.94053   0.99486   0.70442   0.00000  Uiso   1.00
H1272  H     0.79702   0.99792   0.79129   0.00000  Uiso   1.00
H1273  H     0.83093   0.67120   0.87020   0.00000  Uiso   1.00
H1274  H     0.86407   0.71792   0.50971   0.00000  Uiso   1.00
H1275  H     0.84271   0.86248   0.56885   0.00000  Uiso   1.00
H1276  H     0.78785   0.91834   0.92101   0.00000  Uiso   1.00
H1277  H     0.76445   0.83437   0.62005   0.00000  Uiso   1.00
O1278  O     0.83333   0.83333   0.75000   0.00000  Uiso   1.00
O1279  O     0.82118   0.79304   0.65459   0.00000  Uiso   1.00
O1280  O     0.79607   0.87058   0.84968   0.00000  Uiso   1.00
O1281  O     0.87491   0.84425   0.64606   0.00000  Uiso   1.00
O1282  O     0.84118   0.82546   0.84968   0.00000  Uiso   1.00
O1283  O     0.94912   0.78163   0.82799   0.00000  Uiso   1.00
O1284  O     0.95808   0.74738   0.75162   0.00000  Uiso   1.00
O1285  O     0.68221   0.74424   0.79529   0.00000  Uiso   1.00
O1286  O     0.86689   0.66692   0.64580   0.00000  Uiso   1.00
O1287  O     0.89691   0.72335   0.69256   0.00000  Uiso   1.00
O1288  O     0.93001   0.98768   0.67669   0.00000  Uiso   1.00
O1289  O     0.84597   0.74686   0.78214   0.00000  Uiso   1.00
O1290  O     0.88595   0.70271   0.92247   0.00000  Uiso   1.00
O1291  O     0.81324   0.67684   0.96240   0.00000  Uiso   1.00
O1292  O     0.82510   0.69992   0.88161   0.00000  Uiso   1.00
O1293  O     0.78889   0.90865   0.59843   0.00000  Uiso   1.00
O1294  O     0.72197   0.89338   0.57503   0.00000  Uiso   1.00
O1295  O     0.75326   0.83064   0.59267   0.00000  Uiso   1.00
O1296  O     0.69702   0.92475   0.75352   0.00000  Uiso   1.00
O1297  O     0.73489   0.88165   0.69096   0.00000  Uiso   1.00
O1298  O     0.66932   0.91132   0.68076   0.00000  Uiso   1.00
O1299  O     0.81298   0.92751   0.77014   0.00000  Uiso   1.00
O1300  O     0.74078   0.79958   0.73413   0.00000  Uiso   1.00
O1301  O     0.93360   0.85939   0.71361   0.00000  Uiso   1.00
O1302  O     0.73738   0.85544   0.78213   0.00000  Uiso   1.00
O1303  O     0.92158   0.81892   0.77014   0.00000  Uiso   1.00
O1304  O     0.80426   0.73610   0.73413   0.00000  Uiso   1.00
O1305  O     0.87012   0.92286   0.71361   0.00000  Uiso   1.00
S1306  S     0.98077   0.77252   0.78466   0.00000  Uiso   1.00
S1307  S     0.88538   0.67679   0.68630   0.00000  Uiso   1.00
S1308  S     0.83984   0.70820   0.93073   0.00000  Uiso   1.00
S1309  S     0.76365   0.87792   0.57161   0.00000  Uiso   1.00
S1310  S     0.69173   0.89194   0.71623   0.00000  Uiso   1.00
Zn1311 Zn    0.86005   0.80661   0.78734   0.00000  Uiso   1.00
Zn1312 Zn    0.80046   0.79124   0.71876   0.00000  Uiso   1.00
Zn1313 Zn    0.87723   0.86442   0.70657   0.00000  Uiso   1.00
Zn1314 Zn    0.79560   0.87106   0.78734   0.00000  Uiso   1.00
loop_
_geom_bond_atom_site_label_1
_geom_bond_atom_site_label_2
_geom_bond_distance
_geom_bond_site_symmetry_2
_ccdc_geom_bond_type
C1     O59     1.259   .     A
C1     C7      1.431   .     S
C1     O61     1.273   .     A
C2     C16     1.390   .     A
C2     C21     1.406   .     A
C2     H34     1.077   .     S
C3     H25     1.084   .     S
C3     C15     1.389   .     A
C3     C16     1.395   .     A
C4     O60     1.284   .     A
C4     O62     1.270   .     A
C4     C6      1.462   .     S
C5     C14     1.478   .     S
C5     C20     1.420   .     A
C5     C17     1.402   .     A
C6     C80     1.364   .     S
C6     S142    1.791   .     S
C7     C152    1.364   1_455 S
C7     S211    1.788   1_455 S
C8     C11     1.460   .     S
C8     C228    1.341   .     S
C8     S285    1.788   .     S
C9     C10     1.433   .     S
C9     C446    1.341   1_545 S
C9     H469    1.086   1_545 S
C10    O48     1.269   .     A
C10    O63     1.273   .     A
C11    O58     1.284   .     A
C11    O64     1.275   .     A
C12    C17     1.388   .     A
C12    C675    1.397   .     S
C12    H683    1.083   .     S
C13    O38     1.266   .     A
C13    O40     1.278   .     A
C13    C16     1.454   .     S
C14    O41     1.289   .     A
C14    O39     1.289   .     A
C15    H33     1.080   .     S
C15    C679    1.409   1_554 S
C17    H35     1.083   .     S
C18    S68     1.778   .     S
C18    C669    1.397   1_554 S
C18    C676    1.429   1_554 S
C19    C20     1.417   .     A
C19    C675    1.429   .     S
C19    C678    1.422   .     S
C20    C24     1.409   .     A
C21    C676    1.422   1_554 S
C21    C679    1.427   1_554 S
C22    C23     1.411   .     A
C22    C678    1.427   .     S
C22    C672    1.409   .     S
C23    C24     1.393   .     A
C23    S67     1.777   .     S
C24    H27     1.077   .     S
H26    C669    1.083   1_554 S
H28    O57     0.991   .     S
H29    O117    0.991   .     S
H30    O47     0.991   .     S
H31    C228    1.086   .     S
H32    O51     0.991   .     S
H36    O54     0.989   .     S
O37    Zn72    1.936   .     S
O37    Zn73    1.952   .     S
O37    Zn70    1.952   .     S
O37    Zn71    1.929   .     S
O38    Zn71    1.927   .     S
O39    Zn73    1.927   .     S
O40    Zn72    1.923   .     S
O41    Zn70    1.927   .     S
O42    S65     1.504   .     D
O43    S65     1.503   .     D
O44    H175    0.991   1_455 S
O44    S211    1.683   1_455 S
O45    S66     1.502   .     D
O46    S66     1.503   .     D
O47    S285    1.682   .     S
O48    Zn70    1.921   .     S
O49    S67     1.503   .     D
O50    S67     1.503   .     D
O51    S67     1.683   .     S
O52    S68     1.504   .     D
O53    S68     1.503   .     D
O54    S68     1.685   .     S
O55    S69     1.503   .     D
O56    S69     1.502   .     D
O57    S69     1.682   .     S
O58    Zn73    1.923   .     S
O59    Zn71    1.947   .     S
O60    Zn72    1.946   .     S
O61    Zn73    1.935   .     S
O62    Zn70    1.938   .     S
O63    Zn71    1.933   .     S
O64    Zn72    1.932   .     S
S65    C80     1.788   .     S
S65    O117    1.683   .     S
S66    O485    1.682   1_545 S
S66    C446    1.788   1_545 S
S69    C152    1.791   1_455 S
C74    O132    1.259   .     A
C74    C80     1.431   .     S
C74    O134    1.273   .     A
C75    C89     1.390   .     A
C75    C94     1.406   .     A
C75    H107    1.077   .     S
C76    H98     1.084   .     S
C76    C88     1.389   .     A
C76    C89     1.395   .     A
C77    O133    1.284   .     A
C77    O135    1.270   .     A
C77    C79     1.462   .     S
C78    C87     1.478   .     S
C78    C93     1.420   .     A
C78    C90     1.402   .     A
C79    C153    1.364   .     S
C79    S215    1.791   .     S
C81    C84     1.460   .     S
C81    C301    1.341   .     S
C81    S358    1.788   .     S
C82    C83     1.433   .     S
C82    C519    1.341   1_545 S
C82    H542    1.086   1_545 S
C83    O121    1.269   .     A
C83    O136    1.273   .     A
C84    O131    1.284   .     A
C84    O137    1.275   .     A
C85    C90     1.388   .     A
C85    C748    1.397   .     S
C85    H756    1.083   .     S
C86    O111    1.266   .     A
C86    O113    1.278   .     A
C86    C89     1.454   .     S
C87    O114    1.289   .     A
C87    O112    1.289   .     A
C88    H106    1.080   .     S
C88    C752    1.409   1_554 S
C90    H108    1.083   .     S
C91    S141    1.778   .     S
C91    C742    1.397   1_554 S
C91    C749    1.429   1_554 S
C92    C93     1.417   .     A
C92    C748    1.429   .     S
C92    C751    1.422   .     S
C93    C97     1.409   .     A
C94    C749    1.422   1_554 S
C94    C752    1.427   1_554 S
C95    C96     1.411   .     A
C95    C751    1.427   .     S
C95    C745    1.409   .     S
C96    C97     1.393   .     A
C96    S140    1.777   .     S
C97    H100    1.077   .     S
H99    C742    1.083   1_554 S
H101   O130    0.991   .     S
H102   O190    0.991   .     S
H103   O120    0.991   .     S
H104   C301    1.086   .     S
H105   O124    0.991   .     S
H109   O127    0.989   .     S
O110   Zn145   1.936   .     S
O110   Zn146   1.952   .     S
O110   Zn143   1.952   .     S
O110   Zn144   1.929   .     S
O111   Zn144   1.927   .     S
O112   Zn146   1.927   .     S
O113   Zn145   1.923   .     S
O114   Zn143   1.927   .     S
O115   S138    1.504   .     D
O116   S138    1.503   .     D
O118   S139    1.502   .     D
O119   S139    1.503   .     D
O120   S358    1.682   .     S
O121   Zn143   1.921   .     S
O122   S140    1.503   .     D
O123   S140    1.503   .     D
O124   S140    1.683   .     S
O125   S141    1.504   .     D
O126   S141    1.503   .     D
O127   S141    1.685   .     S
O128   S142    1.503   .     D
O129   S142    1.502   .     D
O130   S142    1.682   .     S
O131   Zn146   1.923   .     S
O132   Zn144   1.947   .     S
O133   Zn145   1.946   .     S
O134   Zn146   1.935   .     S
O135   Zn143   1.938   .     S
O136   Zn144   1.933   .     S
O137   Zn145   1.932   .     S
S138   C153    1.788   .     S
S138   O190    1.683   .     S
S139   O558    1.682   1_545 S
S139   C519    1.788   1_545 S
C147   O205    1.259   .     A
C147   C153    1.431   .     S
C147   O207    1.273   .     A
C148   C162    1.390   .     A
C148   C167    1.406   .     A
C148   H180    1.077   .     S
C149   H171    1.084   .     S
C149   C161    1.389   .     A
C149   C162    1.395   .     A
C150   O206    1.284   .     A
C150   O208    1.270   .     A
C150   C152    1.462   .     S
C151   C160    1.478   .     S
C151   C166    1.420   .     A
C151   C163    1.402   .     A
C152   C7      1.364   1_655 S
C152   S69     1.791   1_655 S
C154   C157    1.460   .     S
C154   C374    1.341   .     S
C154   S431    1.788   .     S
C155   C156    1.433   .     S
C155   C592    1.341   1_545 S
C155   H615    1.086   1_545 S
C156   O194    1.269   .     A
C156   O209    1.273   .     A
C157   O204    1.284   .     A
C157   O210    1.275   .     A
C158   C163    1.388   .     A
C158   C821    1.397   .     S
C158   H829    1.083   .     S
C159   O184    1.266   .     A
C159   O186    1.278   .     A
C159   C162    1.454   .     S
C160   O187    1.289   .     A
C160   O185    1.289   .     A
C161   H179    1.080   .     S
C161   C825    1.409   1_554 S
C163   H181    1.083   .     S
C164   S214    1.778   .     S
C164   C815    1.397   1_554 S
C164   C822    1.429   1_554 S
C165   C166    1.417   .     A
C165   C821    1.429   .     S
C165   C824    1.422   .     S
C166   C170    1.409   .     A
C167   C822    1.422   1_554 S
C167   C825    1.427   1_554 S
C168   C169    1.411   .     A
C168   C824    1.427   .     S
C168   C818    1.409   .     S
C169   C170    1.393   .     A
C169   S213    1.777   .     S
C170   H173    1.077   .     S
H172   C815    1.083   1_554 S
H174   O203    0.991   .     S
H175   O44     0.991   1_655 S
H176   O193    0.991   .     S
H177   C374    1.086   .     S
H178   O197    0.991   .     S
H182   O200    0.989   .     S
O183   Zn218   1.936   .     S
O183   Zn219   1.952   .     S
O183   Zn216   1.952   .     S
O183   Zn217   1.929   .     S
O184   Zn217   1.927   .     S
O185   Zn219   1.927   .     S
O186   Zn218   1.923   .     S
O187   Zn216   1.927   .     S
O188   S211    1.504   .     D
O189   S211    1.503   .     D
O191   S212    1.502   .     D
O192   S212    1.503   .     D
O193   S431    1.682   .     S
O194   Zn216   1.921   .     S
O195   S213    1.503   .     D
O196   S213    1.503   .     D
O197   S213    1.683   .     S
O198   S214    1.504   .     D
O199   S214    1.503   .     D
O200   S214    1.685   .     S
O201   S215    1.503   .     D
O202   S215    1.502   .     D
O203   S215    1.682   .     S
O204   Zn219   1.923   .     S
O205   Zn217   1.947   .     S
O206   Zn218   1.946   .     S
O207   Zn219   1.935   .     S
O208   Zn216   1.938   .     S
O209   Zn217   1.933   .     S
O210   Zn218   1.932   .     S
S211   C7      1.788   1_655 S
S211   O44     1.683   1_655 S
S212   O631    1.682   1_545 S
S212   C592    1.788   1_545 S
C220   O278    1.259   .     A
C220   C226    1.431   .     S
C220   O280    1.273   .     A
C221   C235    1.390   .     A
C221   C240    1.406   .     A
C221   H253    1.077   .     S
C222   H244    1.084   .     S
C222   C234    1.389   .     A
C222   C235    1.395   .     A
C223   O279    1.284   .     A
C223   O281    1.270   .     A
C223   C225    1.462   .     S
C224   C233    1.478   .     S
C224   C239    1.420   .     A
C224   C236    1.402   .     A
C225   C299    1.364   .     S
C225   S361    1.791   .     S
C226   C371    1.364   1_455 S
C226   S430    1.788   1_455 S
C227   C230    1.460   .     S
C227   C447    1.341   .     S
C227   S504    1.788   .     S
C228   C229    1.433   .     S
C229   O267    1.269   .     A
C229   O282    1.273   .     A
C230   O277    1.284   .     A
C230   O283    1.275   .     A
C231   C236    1.388   .     A
C231   C894    1.397   .     S
C231   H902    1.083   .     S
C232   O257    1.266   .     A
C232   O259    1.278   .     A
C232   C235    1.454   .     S
C233   O260    1.289   .     A
C233   O258    1.289   .     A
C234   H252    1.080   .     S
C234   C898    1.409   1_554 S
C236   H254    1.083   .     S
C237   S287    1.778   .     S
C237   C888    1.397   1_554 S
C237   C895    1.429   1_554 S
C238   C239    1.417   .     A
C238   C894    1.429   .     S
C238   C897    1.422   .     S
C239   C243    1.409   .     A
C240   C895    1.422   1_554 S
C240   C898    1.427   1_554 S
C241   C242    1.411   .     A
C241   C897    1.427   .     S
C241   C891    1.409   .     S
C242   C243    1.393   .     A
C242   S286    1.777   .     S
C243   H246    1.077   .     S
H245   C888    1.083   1_554 S
H247   O276    0.991   .     S
H248   O336    0.991   .     S
H249   O266    0.991   .     S
H250   C447    1.086   .     S
H251   O270    0.991   .     S
H255   O273    0.989   .     S
O256   Zn291   1.936   .     S
O256   Zn292   1.952   .     S
O256   Zn289   1.952   .     S
O256   Zn290   1.929   .     S
O257   Zn290   1.927   .     S
O258   Zn292   1.927   .     S
O259   Zn291   1.923   .     S
O260   Zn289   1.927   .     S
O261   S284    1.504   .     D
O262   S284    1.503   .     D
O263   H394    0.991   1_455 S
O263   S430    1.683   1_455 S
O264   S285    1.502   .     D
O265   S285    1.503   .     D
O266   S504    1.682   .     S
O267   Zn289   1.921   .     S
O268   S286    1.503   .     D
O269   S286    1.503   .     D
O270   S286    1.683   .     S
O271   S287    1.504   .     D
O272   S287    1.503   .     D
O273   S287    1.685   .     S
O274   S288    1.503   .     D
O275   S288    1.502   .     D
O276   S288    1.682   .     S
O277   Zn292   1.923   .     S
O278   Zn290   1.947   .     S
O279   Zn291   1.946   .     S
O280   Zn292   1.935   .     S
O281   Zn289   1.938   .     S
O282   Zn290   1.933   .     S
O283   Zn291   1.932   .     S
S284   C299    1.788   .     S
S284   O336    1.683   .     S
S288   C371    1.791   1_455 S
C293   O351    1.259   .     A
C293   C299    1.431   .     S
C293   O353    1.273   .     A
C294   C308    1.390   .     A
C294   C313    1.406   .     A
C294   H326    1.077   .     S
C295   H317    1.084   .     S
C295   C307    1.389   .     A
C295   C308    1.395   .     A
C296   O352    1.284   .     A
C296   O354    1.270   .     A
C296   C298    1.462   .     S
C297   C306    1.478   .     S
C297   C312    1.420   .     A
C297   C309    1.402   .     A
C298   C372    1.364   .     S
C298   S434    1.791   .     S
C300   C303    1.460   .     S
C300   C520    1.341   .     S
C300   S577    1.788   .     S
C301   C302    1.433   .     S
C302   O340    1.269   .     A
C302   O355    1.273   .     A
C303   O350    1.284   .     A
C303   O356    1.275   .     A
C304   C309    1.388   .     A
C304   C967    1.397   .     S
C304   H975    1.083   .     S
C305   O330    1.266   .     A
C305   O332    1.278   .     A
C305   C308    1.454   .     S
C306   O333    1.289   .     A
C306   O331    1.289   .     A
C307   H325    1.080   .     S
C307   C971    1.409   1_554 S
C309   H327    1.083   .     S
C310   S360    1.778   .     S
C310   C961    1.397   1_554 S
C310   C968    1.429   1_554 S
C311   C312    1.417   .     A
C311   C967    1.429   .     S
C311   C970    1.422   .     S
C312   C316    1.409   .     A
C313   C968    1.422   1_554 S
C313   C971    1.427   1_554 S
C314   C315    1.411   .     A
C314   C970    1.427   .     S
C314   C964    1.409   .     S
C315   C316    1.393   .     A
C315   S359    1.777   .     S
C316   H319    1.077   .     S
H318   C961    1.083   1_554 S
H320   O349    0.991   .     S
H321   O409    0.991   .     S
H322   O339    0.991   .     S
H323   C520    1.086   .     S
H324   O343    0.991   .     S
H328   O346    0.989   .     S
O329   Zn364   1.936   .     S
O329   Zn365   1.952   .     S
O329   Zn362   1.952   .     S
O329   Zn363   1.929   .     S
O330   Zn363   1.927   .     S
O331   Zn365   1.927   .     S
O332   Zn364   1.923   .     S
O333   Zn362   1.927   .     S
O334   S357    1.504   .     D
O335   S357    1.503   .     D
O337   S358    1.502   .     D
O338   S358    1.503   .     D
O339   S577    1.682   .     S
O340   Zn362   1.921   .     S
O341   S359    1.503   .     D
O342   S359    1.503   .     D
O343   S359    1.683   .     S
O344   S360    1.504   .     D
O345   S360    1.503   .     D
O346   S360    1.685   .     S
O347   S361    1.503   .     D
O348   S361    1.502   .     D
O349   S361    1.682   .     S
O350   Zn365   1.923   .     S
O351   Zn363   1.947   .     S
O352   Zn364   1.946   .     S
O353   Zn365   1.935   .     S
O354   Zn362   1.938   .     S
O355   Zn363   1.933   .     S
O356   Zn364   1.932   .     S
S357   C372    1.788   .     S
S357   O409    1.683   .     S
C366   O424    1.259   .     A
C366   C372    1.431   .     S
C366   O426    1.273   .     A
C367   C381    1.390   .     A
C367   C386    1.406   .     A
C367   H399    1.077   .     S
C368   H390    1.084   .     S
C368   C380    1.389   .     A
C368   C381    1.395   .     A
C369   O425    1.284   .     A
C369   O427    1.270   .     A
C369   C371    1.462   .     S
C370   C379    1.478   .     S
C370   C385    1.420   .     A
C370   C382    1.402   .     A
C371   C226    1.364   1_655 S
C371   S288    1.791   1_655 S
C373   C376    1.460   .     S
C373   C593    1.341   .     S
C373   S650    1.788   .     S
C374   C375    1.433   .     S
C375   O413    1.269   .     A
C375   O428    1.273   .     A
C376   O423    1.284   .     A
C376   O429    1.275   .     A
C377   C382    1.388   .     A
C377   C1040   1.397   .     S
C377   H1048   1.083   .     S
C378   O403    1.266   .     A
C378   O405    1.278   .     A
C378   C381    1.454   .     S
C379   O406    1.289   .     A
C379   O404    1.289   .     A
C380   H398    1.080   .     S
C380   C1044   1.409   1_554 S
C382   H400    1.083   .     S
C383   S433    1.778   .     S
C383   C1034   1.397   1_554 S
C383   C1041   1.429   1_554 S
C384   C385    1.417   .     A
C384   C1040   1.429   .     S
C384   C1043   1.422   .     S
C385   C389    1.409   .     A
C386   C1041   1.422   1_554 S
C386   C1044   1.427   1_554 S
C387   C388    1.411   .     A
C387   C1043   1.427   .     S
C387   C1037   1.409   .     S
C388   C389    1.393   .     A
C388   S432    1.777   .     S
C389   H392    1.077   .     S
H391   C1034   1.083   1_554 S
H393   O422    0.991   .     S
H394   O263    0.991   1_655 S
H395   O412    0.991   .     S
H396   C593    1.086   .     S
H397   O416    0.991   .     S
H401   O419    0.989   .     S
O402   Zn437   1.936   .     S
O402   Zn438   1.952   .     S
O402   Zn435   1.952   .     S
O402   Zn436   1.929   .     S
O403   Zn436   1.927   .     S
O404   Zn438   1.927   .     S
O405   Zn437   1.923   .     S
O406   Zn435   1.927   .     S
O407   S430    1.504   .     D
O408   S430    1.503   .     D
O410   S431    1.502   .     D
O411   S431    1.503   .     D
O412   S650    1.682   .     S
O413   Zn435   1.921   .     S
O414   S432    1.503   .     D
O415   S432    1.503   .     D
O416   S432    1.683   .     S
O417   S433    1.504   .     D
O418   S433    1.503   .     D
O419   S433    1.685   .     S
O420   S434    1.503   .     D
O421   S434    1.502   .     D
O422   S434    1.682   .     S
O423   Zn438   1.923   .     S
O424   Zn436   1.947   .     S
O425   Zn437   1.946   .     S
O426   Zn438   1.935   .     S
O427   Zn435   1.938   .     S
O428   Zn436   1.933   .     S
O429   Zn437   1.932   .     S
S430   C226    1.788   1_655 S
S430   O263    1.683   1_655 S
C439   O497    1.259   .     A
C439   C445    1.431   .     S
C439   O499    1.273   .     A
C440   C454    1.390   .     A
C440   C459    1.406   .     A
C440   H472    1.077   .     S
C441   H463    1.084   .     S
C441   C453    1.389   .     A
C441   C454    1.395   .     A
C442   O498    1.284   .     A
C442   O500    1.270   .     A
C442   C444    1.462   .     S
C443   C452    1.478   .     S
C443   C458    1.420   .     A
C443   C455    1.402   .     A
C444   C518    1.364   .     S
C444   S580    1.791   .     S
C445   C590    1.364   1_455 S
C445   S649    1.788   1_455 S
C446   C449    1.460   .     S
C446   C9      1.341   1_565 S
C446   S66     1.788   1_565 S
C447   C448    1.433   .     S
C448   O486    1.269   .     A
C448   O501    1.273   .     A
C449   O496    1.284   .     A
C449   O502    1.275   .     A
C450   C455    1.388   .     A
C450   C1113   1.397   .     S
C450   H1121   1.083   .     S
C451   O476    1.266   .     A
C451   O478    1.278   .     A
C451   C454    1.454   .     S
C452   O479    1.289   .     A
C452   O477    1.289   .     A
C453   H471    1.080   .     S
C453   C1117   1.409   1_554 S
C455   H473    1.083   .     S
C456   S506    1.778   .     S
C456   C1107   1.397   1_554 S
C456   C1114   1.429   1_554 S
C457   C458    1.417   .     A
C457   C1113   1.429   .     S
C457   C1116   1.422   .     S
C458   C462    1.409   .     A
C459   C1114   1.422   1_554 S
C459   C1117   1.427   1_554 S
C460   C461    1.411   .     A
C460   C1116   1.427   .     S
C460   C1110   1.409   .     S
C461   C462    1.393   .     A
C461   S505    1.777   .     S
C462   H465    1.077   .     S
H464   C1107   1.083   1_554 S
H466   O495    0.991   .     S
H467   O555    0.991   .     S
H468   O485    0.991   .     S
H469   C9      1.086   1_565 S
H470   O489    0.991   .     S
H474   O492    0.989   .     S
O475   Zn510   1.936   .     S
O475   Zn511   1.952   .     S
O475   Zn508   1.952   .     S
O475   Zn509   1.929   .     S
O476   Zn509   1.927   .     S
O477   Zn511   1.927   .     S
O478   Zn510   1.923   .     S
O479   Zn508   1.927   .     S
O480   S503    1.504   .     D
O481   S503    1.503   .     D
O482   H613    0.991   1_455 S
O482   S649    1.683   1_455 S
O483   S504    1.502   .     D
O484   S504    1.503   .     D
O485   S66     1.682   1_565 S
O486   Zn508   1.921   .     S
O487   S505    1.503   .     D
O488   S505    1.503   .     D
O489   S505    1.683   .     S
O490   S506    1.504   .     D
O491   S506    1.503   .     D
O492   S506    1.685   .     S
O493   S507    1.503   .     D
O494   S507    1.502   .     D
O495   S507    1.682   .     S
O496   Zn511   1.923   .     S
O497   Zn509   1.947   .     S
O498   Zn510   1.946   .     S
O499   Zn511   1.935   .     S
O500   Zn508   1.938   .     S
O501   Zn509   1.933   .     S
O502   Zn510   1.932   .     S
S503   C518    1.788   .     S
S503   O555    1.683   .     S
S507   C590    1.791   1_455 S
C512   O570    1.259   .     A
C512   C518    1.431   .     S
C512   O572    1.273   .     A
C513   C527    1.390   .     A
C513   C532    1.406   .     A
C513   H545    1.077   .     S
C514   H536    1.084   .     S
C514   C526    1.389   .     A
C514   C527    1.395   .     A
C515   O571    1.284   .     A
C515   O573    1.270   .     A
C515   C517    1.462   .     S
C516   C525    1.478   .     S
C516   C531    1.420   .     A
C516   C528    1.402   .     A
C517   C591    1.364   .     S
C517   S653    1.791   .     S
C519   C522    1.460   .     S
C519   C82     1.341   1_565 S
C519   S139    1.788   1_565 S
C520   C521    1.433   .     S
C521   O559    1.269   .     A
C521   O574    1.273   .     A
C522   O569    1.284   .     A
C522   O575    1.275   .     A
C523   C528    1.388   .     A
C523   C1186   1.397   .     S
C523   H1194   1.083   .     S
C524   O549    1.266   .     A
C524   O551    1.278   .     A
C524   C527    1.454   .     S
C525   O552    1.289   .     A
C525   O550    1.289   .     A
C526   H544    1.080   .     S
C526   C1190   1.409   1_554 S
C528   H546    1.083   .     S
C529   S579    1.778   .     S
C529   C1180   1.397   1_554 S
C529   C1187   1.429   1_554 S
C530   C531    1.417   .     A
C530   C1186   1.429   .     S
C530   C1189   1.422   .     S
C531   C535    1.409   .     A
C532   C1187   1.422   1_554 S
C532   C1190   1.427   1_554 S
C533   C534    1.411   .     A
C533   C1189   1.427   .     S
C533   C1183   1.409   .     S
C534   C535    1.393   .     A
C534   S578    1.777   .     S
C535   H538    1.077   .     S
H537   C1180   1.083   1_554 S
H539   O568    0.991   .     S
H540   O628    0.991   .     S
H541   O558    0.991   .     S
H542   C82     1.086   1_565 S
H543   O562    0.991   .     S
H547   O565    0.989   .     S
O548   Zn583   1.936   .     S
O548   Zn584   1.952   .     S
O548   Zn581   1.952   .     S
O548   Zn582   1.929   .     S
O549   Zn582   1.927   .     S
O550   Zn584   1.927   .     S
O551   Zn583   1.923   .     S
O552   Zn581   1.927   .     S
O553   S576    1.504   .     D
O554   S576    1.503   .     D
O556   S577    1.502   .     D
O557   S577    1.503   .     D
O558   S139    1.682   1_565 S
O559   Zn581   1.921   .     S
O560   S578    1.503   .     D
O561   S578    1.503   .     D
O562   S578    1.683   .     S
O563   S579    1.504   .     D
O564   S579    1.503   .     D
O565   S579    1.685   .     S
O566   S580    1.503   .     D
O567   S580    1.502   .     D
O568   S580    1.682   .     S
O569   Zn584   1.923   .     S
O570   Zn582   1.947   .     S
O571   Zn583   1.946   .     S
O572   Zn584   1.935   .     S
O573   Zn581   1.938   .     S
O574   Zn582   1.933   .     S
O575   Zn583   1.932   .     S
S576   C591    1.788   .     S
S576   O628    1.683   .     S
C585   O643    1.259   .     A
C585   C591    1.431   .     S
C585   O645    1.273   .     A
C586   C600    1.390   .     A
C586   C605    1.406   .     A
C586   H618    1.077   .     S
C587   H609    1.084   .     S
C587   C599    1.389   .     A
C587   C600    1.395   .     A
C588   O644    1.284   .     A
C588   O646    1.270   .     A
C588   C590    1.462   .     S
C589   C598    1.478   .     S
C589   C604    1.420   .     A
C589   C601    1.402   .     A
C590   C445    1.364   1_655 S
C590   S507    1.791   1_655 S
C592   C595    1.460   .     S
C592   C155    1.341   1_565 S
C592   S212    1.788   1_565 S
C593   C594    1.433   .     S
C594   O632    1.269   .     A
C594   O647    1.273   .     A
C595   O642    1.284   .     A
C595   O648    1.275   .     A
C596   C601    1.388   .     A
C596   C1259   1.397   .     S
C596   H1267   1.083   .     S
C597   O622    1.266   .     A
C597   O624    1.278   .     A
C597   C600    1.454   .     S
C598   O625    1.289   .     A
C598   O623    1.289   .     A
C599   H617    1.080   .     S
C599   C1263   1.409   1_554 S
C601   H619    1.083   .     S
C602   S652    1.778   .     S
C602   C1253   1.397   1_554 S
C602   C1260   1.429   1_554 S
C603   C604    1.417   .     A
C603   C1259   1.429   .     S
C603   C1262   1.422   .     S
C604   C608    1.409   .     A
C605   C1260   1.422   1_554 S
C605   C1263   1.427   1_554 S
C606   C607    1.411   .     A
C606   C1262   1.427   .     S
C606   C1256   1.409   .     S
C607   C608    1.393   .     A
C607   S651    1.777   .     S
C608   H611    1.077   .     S
H610   C1253   1.083   1_554 S
H612   O641    0.991   .     S
H613   O482    0.991   1_655 S
H614   O631    0.991   .     S
H615   C155    1.086   1_565 S
H616   O635    0.991   .     S
H620   O638    0.989   .     S
O621   Zn656   1.936   .     S
O621   Zn657   1.952   .     S
O621   Zn654   1.952   .     S
O621   Zn655   1.929   .     S
O622   Zn655   1.927   .     S
O623   Zn657   1.927   .     S
O624   Zn656   1.923   .     S
O625   Zn654   1.927   .     S
O626   S649    1.504   .     D
O627   S649    1.503   .     D
O629   S650    1.502   .     D
O630   S650    1.503   .     D
O631   S212    1.682   1_565 S
O632   Zn654   1.921   .     S
O633   S651    1.503   .     D
O634   S651    1.503   .     D
O635   S651    1.683   .     S
O636   S652    1.504   .     D
O637   S652    1.503   .     D
O638   S652    1.685   .     S
O639   S653    1.503   .     D
O640   S653    1.502   .     D
O641   S653    1.682   .     S
O642   Zn657   1.923   .     S
O643   Zn655   1.947   .     S
O644   Zn656   1.946   .     S
O645   Zn657   1.935   .     S
O646   Zn654   1.938   .     S
O647   Zn655   1.933   .     S
O648   Zn656   1.932   .     S
S649   C445    1.788   1_655 S
S649   O482    1.683   1_655 S
C658   O716    1.259   .     A
C658   C664    1.431   .     S
C658   O718    1.273   .     A
C659   C673    1.390   .     A
C659   C678    1.406   .     A
C659   H691    1.077   .     S
C660   H682    1.084   .     S
C660   C672    1.389   .     A
C660   C673    1.395   .     A
C661   O717    1.284   .     A
C661   O719    1.270   .     A
C661   C663    1.462   .     S
C662   C671    1.478   .     S
C662   C677    1.420   .     A
C662   C674    1.402   .     A
C663   C737    1.364   .     S
C663   S799    1.791   .     S
C664   C809    1.364   1_455 S
C664   S868    1.788   1_455 S
C665   C668    1.460   .     S
C665   C885    1.341   .     S
C665   S942    1.788   .     S
C666   C667    1.433   .     S
C666   C1103   1.341   1_545 S
C666   H1126   1.086   1_545 S
C667   O705    1.269   .     A
C667   O720    1.273   .     A
C668   O715    1.284   .     A
C668   O721    1.275   .     A
C669   C674    1.388   .     A
C669   C18     1.397   1_556 S
C669   H26     1.083   1_556 S
C670   O695    1.266   .     A
C670   O697    1.278   .     A
C670   C673    1.454   .     S
C671   O698    1.289   .     A
C671   O696    1.289   .     A
C672   H690    1.080   .     S
C674   H692    1.083   .     S
C675   S725    1.778   .     S
C676   C677    1.417   .     A
C676   C18     1.429   1_556 S
C676   C21     1.422   1_556 S
C677   C681    1.409   .     A
C679   C680    1.411   .     A
C679   C21     1.427   1_556 S
C679   C15     1.409   1_556 S
C680   C681    1.393   .     A
C680   S724    1.777   .     S
C681   H684    1.077   .     S
H685   O714    0.991   .     S
H686   O774    0.991   .     S
H687   O704    0.991   .     S
H688   C885    1.086   .     S
H689   O708    0.991   .     S
H693   O711    0.989   .     S
O694   Zn729   1.936   .     S
O694   Zn730   1.952   .     S
O694   Zn727   1.952   .     S
O694   Zn728   1.929   .     S
O695   Zn728   1.927   .     S
O696   Zn730   1.927   .     S
O697   Zn729   1.923   .     S
O698   Zn727   1.927   .     S
O699   S722    1.504   .     D
O700   S722    1.503   .     D
O701   H832    0.991   1_455 S
O701   S868    1.683   1_455 S
O702   S723    1.502   .     D
O703   S723    1.503   .     D
O704   S942    1.682   .     S
O705   Zn727   1.921   .     S
O706   S724    1.503   .     D
O707   S724    1.503   .     D
O708   S724    1.683   .     S
O709   S725    1.504   .     D
O710   S725    1.503   .     D
O711   S725    1.685   .     S
O712   S726    1.503   .     D
O713   S726    1.502   .     D
O714   S726    1.682   .     S
O715   Zn730   1.923   .     S
O716   Zn728   1.947   .     S
O717   Zn729   1.946   .     S
O718   Zn730   1.935   .     S
O719   Zn727   1.938   .     S
O720   Zn728   1.933   .     S
O721   Zn729   1.932   .     S
S722   C737    1.788   .     S
S722   O774    1.683   .     S
S723   O1142   1.682   1_545 S
S723   C1103   1.788   1_545 S
S726   C809    1.791   1_455 S
C731   O789    1.259   .     A
C731   C737    1.431   .     S
C731   O791    1.273   .     A
C732   C746    1.390   .     A
C732   C751    1.406   .     A
C732   H764    1.077   .     S
C733   H755    1.084   .     S
C733   C745    1.389   .     A
C733   C746    1.395   .     A
C734   O790    1.284   .     A
C734   O792    1.270   .     A
C734   C736    1.462   .     S
C735   C744    1.478   .     S
C735   C750    1.420   .     A
C735   C747    1.402   .     A
C736   C810    1.364   .     S
C736   S872    1.791   .     S
C738   C741    1.460   .     S
C738   C958    1.341   .     S
C738   S1015   1.788   .     S
C739   C740    1.433   .     S
C739   C1176   1.341   1_545 S
C739   H1199   1.086   1_545 S
C740   O778    1.269   .     A
C740   O793    1.273   .     A
C741   O788    1.284   .     A
C741   O794    1.275   .     A
C742   C747    1.388   .     A
C742   C91     1.397   1_556 S
C742   H99     1.083   1_556 S
C743   O768    1.266   .     A
C743   O770    1.278   .     A
C743   C746    1.454   .     S
C744   O771    1.289   .     A
C744   O769    1.289   .     A
C745   H763    1.080   .     S
C747   H765    1.083   .     S
C748   S798    1.778   .     S
C749   C750    1.417   .     A
C749   C91     1.429   1_556 S
C749   C94     1.422   1_556 S
C750   C754    1.409   .     A
C752   C753    1.411   .     A
C752   C94     1.427   1_556 S
C752   C88     1.409   1_556 S
C753   C754    1.393   .     A
C753   S797    1.777   .     S
C754   H757    1.077   .     S
H758   O787    0.991   .     S
H759   O847    0.991   .     S
H760   O777    0.991   .     S
H761   C958    1.086   .     S
H762   O781    0.991   .     S
H766   O784    0.989   .     S
O767   Zn802   1.936   .     S
O767   Zn803   1.952   .     S
O767   Zn800   1.952   .     S
O767   Zn801   1.929   .     S
O768   Zn801   1.927   .     S
O769   Zn803   1.927   .     S
O770   Zn802   1.923   .     S
O771   Zn800   1.927   .     S
O772   S795    1.504   .     D
O773   S795    1.503   .     D
O775   S796    1.502   .     D
O776   S796    1.503   .     D
O777   S1015   1.682   .     S
O778   Zn800   1.921   .     S
O779   S797    1.503   .     D
O780   S797    1.503   .     D
O781   S797    1.683   .     S
O782   S798    1.504   .     D
O783   S798    1.503   .     D
O784   S798    1.685   .     S
O785   S799    1.503   .     D
O786   S799    1.502   .     D
O787   S799    1.682   .     S
O788   Zn803   1.923   .     S
O789   Zn801   1.947   .     S
O790   Zn802   1.946   .     S
O791   Zn803   1.935   .     S
O792   Zn800   1.938   .     S
O793   Zn801   1.933   .     S
O794   Zn802   1.932   .     S
S795   C810    1.788   .     S
S795   O847    1.683   .     S
S796   O1215   1.682   1_545 S
S796   C1176   1.788   1_545 S
C804   O862    1.259   .     A
C804   C810    1.431   .     S
C804   O864    1.273   .     A
C805   C819    1.390   .     A
C805   C824    1.406   .     A
C805   H837    1.077   .     S
C806   H828    1.084   .     S
C806   C818    1.389   .     A
C806   C819    1.395   .     A
C807   O863    1.284   .     A
C807   O865    1.270   .     A
C807   C809    1.462   .     S
C808   C817    1.478   .     S
C808   C823    1.420   .     A
C808   C820    1.402   .     A
C809   C664    1.364   1_655 S
C809   S726    1.791   1_655 S
C811   C814    1.460   .     S
C811   C1031   1.341   .     S
C811   S1088   1.788   .     S
C812   C813    1.433   .     S
C812   C1249   1.341   1_545 S
C812   H1272   1.086   1_545 S
C813   O851    1.269   .     A
C813   O866    1.273   .     A
C814   O861    1.284   .     A
C814   O867    1.275   .     A
C815   C820    1.388   .     A
C815   C164    1.397   1_556 S
C815   H172    1.083   1_556 S
C816   O841    1.266   .     A
C816   O843    1.278   .     A
C816   C819    1.454   .     S
C817   O844    1.289   .     A
C817   O842    1.289   .     A
C818   H836    1.080   .     S
C820   H838    1.083   .     S
C821   S871    1.778   .     S
C822   C823    1.417   .     A
C822   C164    1.429   1_556 S
C822   C167    1.422   1_556 S
C823   C827    1.409   .     A
C825   C826    1.411   .     A
C825   C167    1.427   1_556 S
C825   C161    1.409   1_556 S
C826   C827    1.393   .     A
C826   S870    1.777   .     S
C827   H830    1.077   .     S
H831   O860    0.991   .     S
H832   O701    0.991   1_655 S
H833   O850    0.991   .     S
H834   C1031   1.086   .     S
H835   O854    0.991   .     S
H839   O857    0.989   .     S
O840   Zn875   1.936   .     S
O840   Zn876   1.952   .     S
O840   Zn873   1.952   .     S
O840   Zn874   1.929   .     S
O841   Zn874   1.927   .     S
O842   Zn876   1.927   .     S
O843   Zn875   1.923   .     S
O844   Zn873   1.927   .     S
O845   S868    1.504   .     D
O846   S868    1.503   .     D
O848   S869    1.502   .     D
O849   S869    1.503   .     D
O850   S1088   1.682   .     S
O851   Zn873   1.921   .     S
O852   S870    1.503   .     D
O853   S870    1.503   .     D
O854   S870    1.683   .     S
O855   S871    1.504   .     D
O856   S871    1.503   .     D
O857   S871    1.685   .     S
O858   S872    1.503   .     D
O859   S872    1.502   .     D
O860   S872    1.682   .     S
O861   Zn876   1.923   .     S
O862   Zn874   1.947   .     S
O863   Zn875   1.946   .     S
O864   Zn876   1.935   .     S
O865   Zn873   1.938   .     S
O866   Zn874   1.933   .     S
O867   Zn875   1.932   .     S
S868   C664    1.788   1_655 S
S868   O701    1.683   1_655 S
S869   O1288   1.682   1_545 S
S869   C1249   1.788   1_545 S
C877   O935    1.259   .     A
C877   C883    1.431   .     S
C877   O937    1.273   .     A
C878   C892    1.390   .     A
C878   C897    1.406   .     A
C878   H910    1.077   .     S
C879   H901    1.084   .     S
C879   C891    1.389   .     A
C879   C892    1.395   .     A
C880   O936    1.284   .     A
C880   O938    1.270   .     A
C880   C882    1.462   .     S
C881   C890    1.478   .     S
C881   C896    1.420   .     A
C881   C893    1.402   .     A
C882   C956    1.364   .     S
C882   S1018   1.791   .     S
C883   C1028   1.364   1_455 S
C883   S1087   1.788   1_455 S
C884   C887    1.460   .     S
C884   C1104   1.341   .     S
C884   S1161   1.788   .     S
C885   C886    1.433   .     S
C886   O924    1.269   .     A
C886   O939    1.273   .     A
C887   O934    1.284   .     A
C887   O940    1.275   .     A
C888   C893    1.388   .     A
C888   C237    1.397   1_556 S
C888   H245    1.083   1_556 S
C889   O914    1.266   .     A
C889   O916    1.278   .     A
C889   C892    1.454   .     S
C890   O917    1.289   .     A
C890   O915    1.289   .     A
C891   H909    1.080   .     S
C893   H911    1.083   .     S
C894   S944    1.778   .     S
C895   C896    1.417   .     A
C895   C237    1.429   1_556 S
C895   C240    1.422   1_556 S
C896   C900    1.409   .     A
C898   C899    1.411   .     A
C898   C240    1.427   1_556 S
C898   C234    1.409   1_556 S
C899   C900    1.393   .     A
C899   S943    1.777   .     S
C900   H903    1.077   .     S
H904   O933    0.991   .     S
H905   O993    0.991   .     S
H906   O923    0.991   .     S
H907   C1104   1.086   .     S
H908   O927    0.991   .     S
H912   O930    0.989   .     S
O913   Zn948   1.936   .     S
O913   Zn949   1.952   .     S
O913   Zn946   1.952   .     S
O913   Zn947   1.929   .     S
O914   Zn947   1.927   .     S
O915   Zn949   1.927   .     S
O916   Zn948   1.923   .     S
O917   Zn946   1.927   .     S
O918   S941    1.504   .     D
O919   S941    1.503   .     D
O920   H1051   0.991   1_455 S
O920   S1087   1.683   1_455 S
O921   S942    1.502   .     D
O922   S942    1.503   .     D
O923   S1161   1.682   .     S
O924   Zn946   1.921   .     S
O925   S943    1.503   .     D
O926   S943    1.503   .     D
O927   S943    1.683   .     S
O928   S944    1.504   .     D
O929   S944    1.503   .     D
O930   S944    1.685   .     S
O931   S945    1.503   .     D
O932   S945    1.502   .     D
O933   S945    1.682   .     S
O934   Zn949   1.923   .     S
O935   Zn947   1.947   .     S
O936   Zn948   1.946   .     S
O937   Zn949   1.935   .     S
O938   Zn946   1.938   .     S
O939   Zn947   1.933   .     S
O940   Zn948   1.932   .     S
S941   C956    1.788   .     S
S941   O993    1.683   .     S
S945   C1028   1.791   1_455 S
C950   O1008   1.259   .     A
C950   C956    1.431   .     S
C950   O1010   1.273   .     A
C951   C965    1.390   .     A
C951   C970    1.406   .     A
C951   H983    1.077   .     S
C952   H974    1.084   .     S
C952   C964    1.389   .     A
C952   C965    1.395   .     A
C953   O1009   1.284   .     A
C953   O1011   1.270   .     A
C953   C955    1.462   .     S
C954   C963    1.478   .     S
C954   C969    1.420   .     A
C954   C966    1.402   .     A
C955   C1029   1.364   .     S
C955   S1091   1.791   .     S
C957   C960    1.460   .     S
C957   C1177   1.341   .     S
C957   S1234   1.788   .     S
C958   C959    1.433   .     S
C959   O997    1.269   .     A
C959   O1012   1.273   .     A
C960   O1007   1.284   .     A
C960   O1013   1.275   .     A
C961   C966    1.388   .     A
C961   C310    1.397   1_556 S
C961   H318    1.083   1_556 S
C962   O987    1.266   .     A
C962   O989    1.278   .     A
C962   C965    1.454   .     S
C963   O990    1.289   .     A
C963   O988    1.289   .     A
C964   H982    1.080   .     S
C966   H984    1.083   .     S
C967   S1017   1.778   .     S
C968   C969    1.417   .     A
C968   C310    1.429   1_556 S
C968   C313    1.422   1_556 S
C969   C973    1.409   .     A
C971   C972    1.411   .     A
C971   C313    1.427   1_556 S
C971   C307    1.409   1_556 S
C972   C973    1.393   .     A
C972   S1016   1.777   .     S
C973   H976    1.077   .     S
H977   O1006   0.991   .     S
H978   O1066   0.991   .     S
H979   O996    0.991   .     S
H980   C1177   1.086   .     S
H981   O1000   0.991   .     S
H985   O1003   0.989   .     S
O986   Zn1021  1.936   .     S
O986   Zn1022  1.952   .     S
O986   Zn1019  1.952   .     S
O986   Zn1020  1.929   .     S
O987   Zn1020  1.927   .     S
O988   Zn1022  1.927   .     S
O989   Zn1021  1.923   .     S
O990   Zn1019  1.927   .     S
O991   S1014   1.504   .     D
O992   S1014   1.503   .     D
O994   S1015   1.502   .     D
O995   S1015   1.503   .     D
O996   S1234   1.682   .     S
O997   Zn1019  1.921   .     S
O998   S1016   1.503   .     D
O999   S1016   1.503   .     D
O1000  S1016   1.683   .     S
O1001  S1017   1.504   .     D
O1002  S1017   1.503   .     D
O1003  S1017   1.685   .     S
O1004  S1018   1.503   .     D
O1005  S1018   1.502   .     D
O1006  S1018   1.682   .     S
O1007  Zn1022  1.923   .     S
O1008  Zn1020  1.947   .     S
O1009  Zn1021  1.946   .     S
O1010  Zn1022  1.935   .     S
O1011  Zn1019  1.938   .     S
O1012  Zn1020  1.933   .     S
O1013  Zn1021  1.932   .     S
S1014  C1029   1.788   .     S
S1014  O1066   1.683   .     S
C1023  O1081   1.259   .     A
C1023  C1029   1.431   .     S
C1023  O1083   1.273   .     A
C1024  C1038   1.390   .     A
C1024  C1043   1.406   .     A
C1024  H1056   1.077   .     S
C1025  H1047   1.084   .     S
C1025  C1037   1.389   .     A
C1025  C1038   1.395   .     A
C1026  O1082   1.284   .     A
C1026  O1084   1.270   .     A
C1026  C1028   1.462   .     S
C1027  C1036   1.478   .     S
C1027  C1042   1.420   .     A
C1027  C1039   1.402   .     A
C1028  C883    1.364   1_655 S
C1028  S945    1.791   1_655 S
C1030  C1033   1.460   .     S
C1030  C1250   1.341   .     S
C1030  S1307   1.788   .     S
C1031  C1032   1.433   .     S
C1032  O1070   1.269   .     A
C1032  O1085   1.273   .     A
C1033  O1080   1.284   .     A
C1033  O1086   1.275   .     A
C1034  C1039   1.388   .     A
C1034  C383    1.397   1_556 S
C1034  H391    1.083   1_556 S
C1035  O1060   1.266   .     A
C1035  O1062   1.278   .     A
C1035  C1038   1.454   .     S
C1036  O1063   1.289   .     A
C1036  O1061   1.289   .     A
C1037  H1055   1.080   .     S
C1039  H1057   1.083   .     S
C1040  S1090   1.778   .     S
C1041  C1042   1.417   .     A
C1041  C383    1.429   1_556 S
C1041  C386    1.422   1_556 S
C1042  C1046   1.409   .     A
C1044  C1045   1.411   .     A
C1044  C386    1.427   1_556 S
C1044  C380    1.409   1_556 S
C1045  C1046   1.393   .     A
C1045  S1089   1.777   .     S
C1046  H1049   1.077   .     S
H1050  O1079   0.991   .     S
H1051  O920    0.991   1_655 S
H1052  O1069   0.991   .     S
H1053  C1250   1.086   .     S
H1054  O1073   0.991   .     S
H1058  O1076   0.989   .     S
O1059  Zn1094  1.936   .     S
O1059  Zn1095  1.952   .     S
O1059  Zn1092  1.952   .     S
O1059  Zn1093  1.929   .     S
O1060  Zn1093  1.927   .     S
O1061  Zn1095  1.927   .     S
O1062  Zn1094  1.923   .     S
O1063  Zn1092  1.927   .     S
O1064  S1087   1.504   .     D
O1065  S1087   1.503   .     D
O1067  S1088   1.502   .     D
O1068  S1088   1.503   .     D
O1069  S1307   1.682   .     S
O1070  Zn1092  1.921   .     S
O1071  S1089   1.503   .     D
O1072  S1089   1.503   .     D
O1073  S1089   1.683   .     S
O1074  S1090   1.504   .     D
O1075  S1090   1.503   .     D
O1076  S1090   1.685   .     S
O1077  S1091   1.503   .     D
O1078  S1091   1.502   .     D
O1079  S1091   1.682   .     S
O1080  Zn1095  1.923   .     S
O1081  Zn1093  1.947   .     S
O1082  Zn1094  1.946   .     S
O1083  Zn1095  1.935   .     S
O1084  Zn1092  1.938   .     S
O1085  Zn1093  1.933   .     S
O1086  Zn1094  1.932   .     S
S1087  C883    1.788   1_655 S
S1087  O920    1.683   1_655 S
C1096  O1154   1.259   .     A
C1096  C1102   1.431   .     S
C1096  O1156   1.273   .     A
C1097  C1111   1.390   .     A
C1097  C1116   1.406   .     A
C1097  H1129   1.077   .     S
C1098  H1120   1.084   .     S
C1098  C1110   1.389   .     A
C1098  C1111   1.395   .     A
C1099  O1155   1.284   .     A
C1099  O1157   1.270   .     A
C1099  C1101   1.462   .     S
C1100  C1109   1.478   .     S
C1100  C1115   1.420   .     A
C1100  C1112   1.402   .     A
C1101  C1175   1.364   .     S
C1101  S1237   1.791   .     S
C1102  C1247   1.364   1_455 S
C1102  S1306   1.788   1_455 S
C1103  C1106   1.460   .     S
C1103  C666    1.341   1_565 S
C1103  S723    1.788   1_565 S
C1104  C1105   1.433   .     S
C1105  O1143   1.269   .     A
C1105  O1158   1.273   .     A
C1106  O1153   1.284   .     A
C1106  O1159   1.275   .     A
C1107  C1112   1.388   .     A
C1107  C456    1.397   1_556 S
C1107  H464    1.083   1_556 S
C1108  O1133   1.266   .     A
C1108  O1135   1.278   .     A
C1108  C1111   1.454   .     S
C1109  O1136   1.289   .     A
C1109  O1134   1.289   .     A
C1110  H1128   1.080   .     S
C1112  H1130   1.083   .     S
C1113  S1163   1.778   .     S
C1114  C1115   1.417   .     A
C1114  C456    1.429   1_556 S
C1114  C459    1.422   1_556 S
C1115  C1119   1.409   .     A
C1117  C1118   1.411   .     A
C1117  C459    1.427   1_556 S
C1117  C453    1.409   1_556 S
C1118  C1119   1.393   .     A
C1118  S1162   1.777   .     S
C1119  H1122   1.077   .     S
H1123  O1152   0.991   .     S
H1124  O1212   0.991   .     S
H1125  O1142   0.991   .     S
H1126  C666    1.086   1_565 S
H1127  O1146   0.991   .     S
H1131  O1149   0.989   .     S
O1132  Zn1167  1.936   .     S
O1132  Zn1168  1.952   .     S
O1132  Zn1165  1.952   .     S
O1132  Zn1166  1.929   .     S
O1133  Zn1166  1.927   .     S
O1134  Zn1168  1.927   .     S
O1135  Zn1167  1.923   .     S
O1136  Zn1165  1.927   .     S
O1137  S1160   1.504   .     D
O1138  S1160   1.503   .     D
O1139  H1270   0.991   1_455 S
O1139  S1306   1.683   1_455 S
O1140  S1161   1.502   .     D
O1141  S1161   1.503   .     D
O1142  S723    1.682   1_565 S
O1143  Zn1165  1.921   .     S
O1144  S1162   1.503   .     D
O1145  S1162   1.503   .     D
O1146  S1162   1.683   .     S
O1147  S1163   1.504   .     D
O1148  S1163   1.503   .     D
O1149  S1163   1.685   .     S
O1150  S1164   1.503   .     D
O1151  S1164   1.502   .     D
O1152  S1164   1.682   .     S
O1153  Zn1168  1.923   .     S
O1154  Zn1166  1.947   .     S
O1155  Zn1167  1.946   .     S
O1156  Zn1168  1.935   .     S
O1157  Zn1165  1.938   .     S
O1158  Zn1166  1.933   .     S
O1159  Zn1167  1.932   .     S
S1160  C1175   1.788   .     S
S1160  O1212   1.683   .     S
S1164  C1247   1.791   1_455 S
C1169  O1227   1.259   .     A
C1169  C1175   1.431   .     S
C1169  O1229   1.273   .     A
C1170  C1184   1.390   .     A
C1170  C1189   1.406   .     A
C1170  H1202   1.077   .     S
C1171  H1193   1.084   .     S
C1171  C1183   1.389   .     A
C1171  C1184   1.395   .     A
C1172  O1228   1.284   .     A
C1172  O1230   1.270   .     A
C1172  C1174   1.462   .     S
C1173  C1182   1.478   .     S
C1173  C1188   1.420   .     A
C1173  C1185   1.402   .     A
C1174  C1248   1.364   .     S
C1174  S1310   1.791   .     S
C1176  C1179   1.460   .     S
C1176  C739    1.341   1_565 S
C1176  S796    1.788   1_565 S
C1177  C1178   1.433   .     S
C1178  O1216   1.269   .     A
C1178  O1231   1.273   .     A
C1179  O1226   1.284   .     A
C1179  O1232   1.275   .     A
C1180  C1185   1.388   .     A
C1180  C529    1.397   1_556 S
C1180  H537    1.083   1_556 S
C1181  O1206   1.266   .     A
C1181  O1208   1.278   .     A
C1181  C1184   1.454   .     S
C1182  O1209   1.289   .     A
C1182  O1207   1.289   .     A
C1183  H1201   1.080   .     S
C1185  H1203   1.083   .     S
C1186  S1236   1.778   .     S
C1187  C1188   1.417   .     A
C1187  C529    1.429   1_556 S
C1187  C532    1.422   1_556 S
C1188  C1192   1.409   .     A
C1190  C1191   1.411   .     A
C1190  C532    1.427   1_556 S
C1190  C526    1.409   1_556 S
C1191  C1192   1.393   .     A
C1191  S1235   1.777   .     S
C1192  H1195   1.077   .     S
H1196  O1225   0.991   .     S
H1197  O1285   0.991   .     S
H1198  O1215   0.991   .     S
H1199  C739    1.086   1_565 S
H1200  O1219   0.991   .     S
H1204  O1222   0.989   .     S
O1205  Zn1240  1.936   .     S
O1205  Zn1241  1.952   .     S
O1205  Zn1238  1.952   .     S
O1205  Zn1239  1.929   .     S
O1206  Zn1239  1.927   .     S
O1207  Zn1241  1.927   .     S
O1208  Zn1240  1.923   .     S
O1209  Zn1238  1.927   .     S
O1210  S1233   1.504   .     D
O1211  S1233   1.503   .     D
O1213  S1234   1.502   .     D
O1214  S1234   1.503   .     D
O1215  S796    1.682   1_565 S
O1216  Zn1238  1.921   .     S
O1217  S1235   1.503   .     D
O1218  S1235   1.503   .     D
O1219  S1235   1.683   .     S
O1220  S1236   1.504   .     D
O1221  S1236   1.503   .     D
O1222  S1236   1.685   .     S
O1223  S1237   1.503   .     D
O1224  S1237   1.502   .     D
O1225  S1237   1.682   .     S
O1226  Zn1241  1.923   .     S
O1227  Zn1239  1.947   .     S
O1228  Zn1240  1.946   .     S
O1229  Zn1241  1.935   .     S
O1230  Zn1238  1.938   .     S
O1231  Zn1239  1.933   .     S
O1232  Zn1240  1.932   .     S
S1233  C1248   1.788   .     S
S1233  O1285   1.683   .     S
C1242  O1300   1.259   .     A
C1242  C1248   1.431   .     S
C1242  O1302   1.273   .     A
C1243  C1257   1.390   .     A
C1243  C1262   1.406   .     A
C1243  H1275   1.077   .     S
C1244  H1266   1.084   .     S
C1244  C1256   1.389   .     A
C1244  C1257   1.395   .     A
C1245  O1301   1.284   .     A
C1245  O1303   1.270   .     A
C1245  C1247   1.462   .     S
C1246  C1255   1.478   .     S
C1246  C1261   1.420   .     A
C1246  C1258   1.402   .     A
C1247  C1102   1.364   1_655 S
C1247  S1164   1.791   1_655 S
C1249  C1252   1.460   .     S
C1249  C812    1.341   1_565 S
C1249  S869    1.788   1_565 S
C1250  C1251   1.433   .     S
C1251  O1289   1.269   .     A
C1251  O1304   1.273   .     A
C1252  O1299   1.284   .     A
C1252  O1305   1.275   .     A
C1253  C1258   1.388   .     A
C1253  C602    1.397   1_556 S
C1253  H610    1.083   1_556 S
C1254  O1279   1.266   .     A
C1254  O1281   1.278   .     A
C1254  C1257   1.454   .     S
C1255  O1282   1.289   .     A
C1255  O1280   1.289   .     A
C1256  H1274   1.080   .     S
C1258  H1276   1.083   .     S
C1259  S1309   1.778   .     S
C1260  C1261   1.417   .     A
C1260  C602    1.429   1_556 S
C1260  C605    1.422   1_556 S
C1261  C1265   1.409   .     A
C1263  C1264   1.411   .     A
C1263  C605    1.427   1_556 S
C1263  C599    1.409   1_556 S
C1264  C1265   1.393   .     A
C1264  S1308   1.777   .     S
C1265  H1268   1.077   .     S
H1269  O1298   0.991   .     S
H1270  O1139   0.991   1_655 S
H1271  O1288   0.991   .     S
H1272  C812    1.086   1_565 S
H1273  O1292   0.991   .     S
H1277  O1295   0.989   .     S
O1278  Zn1313  1.936   .     S
O1278  Zn1314  1.952   .     S
O1278  Zn1311  1.952   .     S
O1278  Zn1312  1.929   .     S
O1279  Zn1312  1.927   .     S
O1280  Zn1314  1.927   .     S
O1281  Zn1313  1.923   .     S
O1282  Zn1311  1.927   .     S
O1283  S1306   1.504   .     D
O1284  S1306   1.503   .     D
O1286  S1307   1.502   .     D
O1287  S1307   1.503   .     D
O1288  S869    1.682   1_565 S
O1289  Zn1311  1.921   .     S
O1290  S1308   1.503   .     D
O1291  S1308   1.503   .     D
O1292  S1308   1.683   .     S
O1293  S1309   1.504   .     D
O1294  S1309   1.503   .     D
O1295  S1309   1.685   .     S
O1296  S1310   1.503   .     D
O1297  S1310   1.502   .     D
O1298  S1310   1.682   .     S
O1299  Zn1314  1.923   .     S
O1300  Zn1312  1.947   .     S
O1301  Zn1313  1.946   .     S
O1302  Zn1314  1.935   .     S
O1303  Zn1311  1.938   .     S
O1304  Zn1312  1.933   .     S
O1305  Zn1313  1.932   .     S
S1306  C1102   1.788   1_655 S
S1306  O1139   1.683   1_655 S
