data_str_m3_o1_o16_pcu_sym.86
_audit_creation_date              2020-01-03
_audit_creation_method            'Materials Studio'
_symmetry_space_group_name_H-M    'P1'
_symmetry_Int_Tables_number       1
_symmetry_cell_setting            triclinic
loop_
_symmetry_equiv_pos_as_xyz
  x,y,z
_cell_length_a                    29.7490
_cell_length_b                    32.1560
_cell_length_c                    26.1409
_cell_angle_alpha                 90.9990
_cell_angle_beta                  69.4335
_cell_angle_gamma                 90.0641
loop_
_atom_site_label
_atom_site_type_symbol
_atom_site_fract_x
_atom_site_fract_y
_atom_site_fract_z
_atom_site_U_iso_or_equiv
_atom_site_adp_type
_atom_site_occupancy
C1     C     0.16643   0.24664   0.25088   0.00000  Uiso   1.00
C2     C     0.14610   0.16645   0.49134   0.00000  Uiso   1.00
C3     C     0.15126   0.15051   0.43908   0.00000  Uiso   1.00
C4     C     0.18219   0.15722   0.01325   0.00000  Uiso   1.00
C5     C     0.21452   0.12376   0.48980   0.00000  Uiso   1.00
C6     C     0.21561   0.10484   0.44103   0.00000  Uiso   1.00
C7     C     0.18528   0.11882   0.41510   0.00000  Uiso   1.00
C8     C     0.18669   0.17922   0.05841   0.00000  Uiso   1.00
C9     C     0.23967   0.12465   0.06764   0.00000  Uiso   1.00
C10    C     0.12221   0.16675   0.41180   0.00000  Uiso   1.00
C11    C     0.20723   0.31207   0.25156   0.00000  Uiso   1.00
C12    C     0.13977   0.16588   0.35226   0.00000  Uiso   1.00
C13    C     0.20694   0.02131   0.25248   0.00000  Uiso   1.00
C14    C     0.16532   0.04255   0.25473   0.00000  Uiso   1.00
C15    C     0.12299   0.02133   0.25990   0.00000  Uiso   1.00
C16    C     0.12323   0.31204   0.25895   0.00000  Uiso   1.00
C17    C     0.16566   0.29084   0.25361   0.00000  Uiso   1.00
C18    C     0.32131   0.14476   0.21102   0.00000  Uiso   1.00
C19    C     0.03566   0.14398   0.21162   0.00000  Uiso   1.00
C20    C     0.01210   0.18904   0.28834   0.00000  Uiso   1.00
C21    C     0.29761   0.18882   0.28855   0.00000  Uiso   1.00
C22    C     0.16622   0.08671   0.25140   0.00000  Uiso   1.00
C23    C     0.19347   0.16633   0.14784   0.00000  Uiso   1.00
C24    C     0.24422   0.10866   0.01648   0.00000  Uiso   1.00
C25    C     0.21032   0.15930   0.08922   0.00000  Uiso   1.00
C26    C     0.08122   0.19024   0.44078   0.00000  Uiso   1.00
C27    C     0.07114   0.19987   0.49580   0.00000  Uiso   1.00
C28    C     0.10377   0.18898   0.02075   0.00000  Uiso   1.00
H29    H     0.05806   0.20236   0.42046   0.00000  Uiso   1.00
H30    H     0.09502   0.19762   0.06329   0.00000  Uiso   1.00
H31    H     0.03914   0.21748   0.01850   0.00000  Uiso   1.00
N32    N     0.04760   0.16668   0.25001   0.00000  Uiso   1.00
N33    N     0.28573   0.16665   0.25000   0.00000  Uiso   1.00
O34    O     0.12846   0.22775   0.25000   0.00000  Uiso   1.00
O35    O     0.20490   0.22774   0.25000   0.00000  Uiso   1.00
O36    O     0.10947   0.16666   0.32681   0.00000  Uiso   1.00
O37    O     0.18591   0.16665   0.32681   0.00000  Uiso   1.00
O38    O     0.12843   0.10559   0.24999   0.00000  Uiso   1.00
O39    O     0.20488   0.10558   0.24999   0.00000  Uiso   1.00
O40    O     0.14742   0.16668   0.17319   0.00000  Uiso   1.00
O41    O     0.22387   0.16667   0.17319   0.00000  Uiso   1.00
Zn42   Zn    0.11562   0.16667   0.25000   0.00000  Uiso   1.00
Zn43   Zn    0.21771   0.16666   0.25000   0.00000  Uiso   1.00
H44    H     0.25672   0.10832   0.09161   0.00000  Uiso   1.00
H45    H     0.23939   0.03734   0.25083   0.00000  Uiso   1.00
H46    H     0.08989   0.03744   0.26429   0.00000  Uiso   1.00
H47    H     0.09042   0.29588   0.26204   0.00000  Uiso   1.00
C48    C     0.31088   0.12245   0.16705   0.00000  Uiso   1.00
O49    O     0.32015   0.13889   0.12275   0.00000  Uiso   1.00
O50    O     0.29528   0.08131   0.17439   0.00000  Uiso   1.00
H51    H     0.29264   0.06805   0.14014   0.00000  Uiso   1.00
C52    C     0.07174   0.11767   0.17072   0.00000  Uiso   1.00
O53    O     0.09008   0.12959   0.12385   0.00000  Uiso   1.00
O54    O     0.08135   0.07774   0.18430   0.00000  Uiso   1.00
H55    H     0.10592   0.06238   0.15253   0.00000  Uiso   1.00
H56    H     0.02057   0.20703   0.31910   0.00000  Uiso   1.00
H57    H     0.27021   0.20666   0.31950   0.00000  Uiso   1.00
H58    H     0.24022   0.07942   0.42267   0.00000  Uiso   1.00
H59    H     0.26773   0.08220   0.00007   0.00000  Uiso   1.00
C60    C     0.17412   0.22445   0.06826   0.00000  Uiso   1.00
O61    O     0.16472   0.24042   0.11365   0.00000  Uiso   1.00
O62    O     0.17524   0.24928   0.02440   0.00000  Uiso   1.00
H63    H     0.16656   0.27937   0.03576   0.00000  Uiso   1.00
H64    H     0.18724   0.10341   0.37720   0.00000  Uiso   1.00
H65    H     0.24005   0.29597   0.24862   0.00000  Uiso   1.00
C66    C     0.49976   0.24664   0.25088   0.00000  Uiso   1.00
C67    C     0.47944   0.16645   0.49134   0.00000  Uiso   1.00
C68    C     0.48460   0.15051   0.43908   0.00000  Uiso   1.00
C69    C     0.51553   0.15722   0.01325   0.00000  Uiso   1.00
C70    C     0.54785   0.12376   0.48980   0.00000  Uiso   1.00
C71    C     0.54895   0.10484   0.44103   0.00000  Uiso   1.00
C72    C     0.51861   0.11882   0.41510   0.00000  Uiso   1.00
C73    C     0.52003   0.17922   0.05841   0.00000  Uiso   1.00
C74    C     0.57301   0.12465   0.06764   0.00000  Uiso   1.00
C75    C     0.45555   0.16675   0.41180   0.00000  Uiso   1.00
C76    C     0.54056   0.31207   0.25156   0.00000  Uiso   1.00
C77    C     0.47310   0.16588   0.35226   0.00000  Uiso   1.00
C78    C     0.54028   0.02131   0.25248   0.00000  Uiso   1.00
C79    C     0.49865   0.04255   0.25473   0.00000  Uiso   1.00
C80    C     0.45632   0.02133   0.25990   0.00000  Uiso   1.00
C81    C     0.45656   0.31204   0.25895   0.00000  Uiso   1.00
C82    C     0.49900   0.29084   0.25361   0.00000  Uiso   1.00
C83    C     0.65464   0.14476   0.21102   0.00000  Uiso   1.00
C84    C     0.36899   0.14398   0.21162   0.00000  Uiso   1.00
C85    C     0.34543   0.18904   0.28834   0.00000  Uiso   1.00
C86    C     0.63095   0.18882   0.28855   0.00000  Uiso   1.00
C87    C     0.49956   0.08671   0.25140   0.00000  Uiso   1.00
C88    C     0.52680   0.16633   0.14784   0.00000  Uiso   1.00
C89    C     0.57755   0.10866   0.01648   0.00000  Uiso   1.00
C90    C     0.54365   0.15930   0.08922   0.00000  Uiso   1.00
C91    C     0.41455   0.19024   0.44078   0.00000  Uiso   1.00
C92    C     0.40447   0.19987   0.49580   0.00000  Uiso   1.00
C93    C     0.43711   0.18898   0.02075   0.00000  Uiso   1.00
H94    H     0.39139   0.20236   0.42046   0.00000  Uiso   1.00
H95    H     0.42835   0.19762   0.06329   0.00000  Uiso   1.00
H96    H     0.37247   0.21748   0.01850   0.00000  Uiso   1.00
N97    N     0.38093   0.16668   0.25001   0.00000  Uiso   1.00
N98    N     0.61906   0.16665   0.25000   0.00000  Uiso   1.00
O99    O     0.46179   0.22775   0.25000   0.00000  Uiso   1.00
O100   O     0.53823   0.22774   0.25000   0.00000  Uiso   1.00
O101   O     0.44280   0.16666   0.32681   0.00000  Uiso   1.00
O102   O     0.51924   0.16665   0.32681   0.00000  Uiso   1.00
O103   O     0.46177   0.10559   0.24999   0.00000  Uiso   1.00
O104   O     0.53821   0.10558   0.24999   0.00000  Uiso   1.00
O105   O     0.48076   0.16668   0.17319   0.00000  Uiso   1.00
O106   O     0.55720   0.16667   0.17319   0.00000  Uiso   1.00
Zn107  Zn    0.44896   0.16667   0.25000   0.00000  Uiso   1.00
Zn108  Zn    0.55104   0.16666   0.25000   0.00000  Uiso   1.00
H109   H     0.59005   0.10832   0.09161   0.00000  Uiso   1.00
H110   H     0.57272   0.03734   0.25083   0.00000  Uiso   1.00
H111   H     0.42322   0.03744   0.26429   0.00000  Uiso   1.00
H112   H     0.42375   0.29588   0.26204   0.00000  Uiso   1.00
C113   C     0.64421   0.12245   0.16705   0.00000  Uiso   1.00
O114   O     0.65349   0.13889   0.12275   0.00000  Uiso   1.00
O115   O     0.62862   0.08131   0.17439   0.00000  Uiso   1.00
H116   H     0.62598   0.06805   0.14014   0.00000  Uiso   1.00
C117   C     0.40507   0.11767   0.17072   0.00000  Uiso   1.00
O118   O     0.42341   0.12959   0.12385   0.00000  Uiso   1.00
O119   O     0.41468   0.07774   0.18430   0.00000  Uiso   1.00
H120   H     0.43925   0.06238   0.15253   0.00000  Uiso   1.00
H121   H     0.35391   0.20703   0.31910   0.00000  Uiso   1.00
H122   H     0.60354   0.20666   0.31950   0.00000  Uiso   1.00
H123   H     0.57355   0.07942   0.42267   0.00000  Uiso   1.00
H124   H     0.60106   0.08220   0.00007   0.00000  Uiso   1.00
C125   C     0.50746   0.22445   0.06826   0.00000  Uiso   1.00
O126   O     0.49806   0.24042   0.11365   0.00000  Uiso   1.00
O127   O     0.50857   0.24928   0.02440   0.00000  Uiso   1.00
H128   H     0.49990   0.27937   0.03576   0.00000  Uiso   1.00
H129   H     0.52057   0.10341   0.37720   0.00000  Uiso   1.00
H130   H     0.57338   0.29597   0.24862   0.00000  Uiso   1.00
C131   C     0.83310   0.24664   0.25088   0.00000  Uiso   1.00
C132   C     0.81277   0.16645   0.49134   0.00000  Uiso   1.00
C133   C     0.81793   0.15051   0.43908   0.00000  Uiso   1.00
C134   C     0.84886   0.15722   0.01325   0.00000  Uiso   1.00
C135   C     0.88118   0.12376   0.48980   0.00000  Uiso   1.00
C136   C     0.88228   0.10484   0.44103   0.00000  Uiso   1.00
C137   C     0.85195   0.11882   0.41510   0.00000  Uiso   1.00
C138   C     0.85336   0.17922   0.05841   0.00000  Uiso   1.00
C139   C     0.90634   0.12465   0.06764   0.00000  Uiso   1.00
C140   C     0.78888   0.16675   0.41180   0.00000  Uiso   1.00
C141   C     0.87390   0.31207   0.25156   0.00000  Uiso   1.00
C142   C     0.80644   0.16588   0.35226   0.00000  Uiso   1.00
C143   C     0.87361   0.02131   0.25248   0.00000  Uiso   1.00
C144   C     0.83199   0.04255   0.25473   0.00000  Uiso   1.00
C145   C     0.78965   0.02133   0.25990   0.00000  Uiso   1.00
C146   C     0.78989   0.31204   0.25895   0.00000  Uiso   1.00
C147   C     0.83233   0.29084   0.25361   0.00000  Uiso   1.00
C148   C     0.98798   0.14476   0.21102   0.00000  Uiso   1.00
C149   C     0.70233   0.14398   0.21162   0.00000  Uiso   1.00
C150   C     0.67877   0.18904   0.28834   0.00000  Uiso   1.00
C151   C     0.96428   0.18882   0.28855   0.00000  Uiso   1.00
C152   C     0.83289   0.08671   0.25140   0.00000  Uiso   1.00
C153   C     0.86014   0.16633   0.14784   0.00000  Uiso   1.00
C154   C     0.91089   0.10866   0.01648   0.00000  Uiso   1.00
C155   C     0.87698   0.15930   0.08922   0.00000  Uiso   1.00
C156   C     0.74788   0.19024   0.44078   0.00000  Uiso   1.00
C157   C     0.73780   0.19987   0.49580   0.00000  Uiso   1.00
C158   C     0.77044   0.18898   0.02075   0.00000  Uiso   1.00
H159   H     0.72473   0.20236   0.42046   0.00000  Uiso   1.00
H160   H     0.76169   0.19762   0.06329   0.00000  Uiso   1.00
H161   H     0.70580   0.21748   0.01850   0.00000  Uiso   1.00
N162   N     0.71426   0.16668   0.25001   0.00000  Uiso   1.00
N163   N     0.95239   0.16665   0.25000   0.00000  Uiso   1.00
O164   O     0.79512   0.22775   0.25000   0.00000  Uiso   1.00
O165   O     0.87157   0.22774   0.25000   0.00000  Uiso   1.00
O166   O     0.77613   0.16666   0.32681   0.00000  Uiso   1.00
O167   O     0.85258   0.16665   0.32681   0.00000  Uiso   1.00
O168   O     0.79510   0.10559   0.24999   0.00000  Uiso   1.00
O169   O     0.87154   0.10558   0.24999   0.00000  Uiso   1.00
O170   O     0.81409   0.16668   0.17319   0.00000  Uiso   1.00
O171   O     0.89053   0.16667   0.17319   0.00000  Uiso   1.00
Zn172  Zn    0.78229   0.16667   0.25000   0.00000  Uiso   1.00
Zn173  Zn    0.88438   0.16666   0.25000   0.00000  Uiso   1.00
H174   H     0.92339   0.10832   0.09161   0.00000  Uiso   1.00
H175   H     0.90606   0.03734   0.25083   0.00000  Uiso   1.00
H176   H     0.75656   0.03744   0.26429   0.00000  Uiso   1.00
H177   H     0.75709   0.29588   0.26204   0.00000  Uiso   1.00
C178   C     0.97755   0.12245   0.16705   0.00000  Uiso   1.00
O179   O     0.98682   0.13889   0.12275   0.00000  Uiso   1.00
O180   O     0.96195   0.08131   0.17439   0.00000  Uiso   1.00
H181   H     0.95931   0.06805   0.14014   0.00000  Uiso   1.00
C182   C     0.73840   0.11767   0.17072   0.00000  Uiso   1.00
O183   O     0.75674   0.12959   0.12385   0.00000  Uiso   1.00
O184   O     0.74801   0.07774   0.18430   0.00000  Uiso   1.00
H185   H     0.77258   0.06238   0.15253   0.00000  Uiso   1.00
H186   H     0.68724   0.20703   0.31910   0.00000  Uiso   1.00
H187   H     0.93687   0.20666   0.31950   0.00000  Uiso   1.00
H188   H     0.90688   0.07942   0.42267   0.00000  Uiso   1.00
H189   H     0.93440   0.08220   0.00007   0.00000  Uiso   1.00
C190   C     0.84079   0.22445   0.06826   0.00000  Uiso   1.00
O191   O     0.83139   0.24042   0.11365   0.00000  Uiso   1.00
O192   O     0.84191   0.24928   0.02440   0.00000  Uiso   1.00
H193   H     0.83323   0.27937   0.03576   0.00000  Uiso   1.00
H194   H     0.85390   0.10341   0.37720   0.00000  Uiso   1.00
H195   H     0.90671   0.29597   0.24862   0.00000  Uiso   1.00
C196   C     0.16643   0.57998   0.25088   0.00000  Uiso   1.00
C197   C     0.14610   0.49978   0.49134   0.00000  Uiso   1.00
C198   C     0.15126   0.48384   0.43908   0.00000  Uiso   1.00
C199   C     0.18219   0.49056   0.01325   0.00000  Uiso   1.00
C200   C     0.21452   0.45709   0.48980   0.00000  Uiso   1.00
C201   C     0.21561   0.43818   0.44103   0.00000  Uiso   1.00
C202   C     0.18528   0.45216   0.41510   0.00000  Uiso   1.00
C203   C     0.18669   0.51255   0.05841   0.00000  Uiso   1.00
C204   C     0.23967   0.45798   0.06764   0.00000  Uiso   1.00
C205   C     0.12221   0.50009   0.41180   0.00000  Uiso   1.00
C206   C     0.20723   0.64540   0.25156   0.00000  Uiso   1.00
C207   C     0.13977   0.49922   0.35226   0.00000  Uiso   1.00
C208   C     0.20694   0.35464   0.25248   0.00000  Uiso   1.00
C209   C     0.16532   0.37589   0.25473   0.00000  Uiso   1.00
C210   C     0.12299   0.35466   0.25990   0.00000  Uiso   1.00
C211   C     0.12323   0.64538   0.25895   0.00000  Uiso   1.00
C212   C     0.16566   0.62417   0.25361   0.00000  Uiso   1.00
C213   C     0.32131   0.47809   0.21102   0.00000  Uiso   1.00
C214   C     0.03566   0.47731   0.21162   0.00000  Uiso   1.00
C215   C     0.01210   0.52238   0.28834   0.00000  Uiso   1.00
C216   C     0.29761   0.52215   0.28855   0.00000  Uiso   1.00
C217   C     0.16622   0.42004   0.25140   0.00000  Uiso   1.00
C218   C     0.19347   0.49966   0.14784   0.00000  Uiso   1.00
C219   C     0.24422   0.44199   0.01648   0.00000  Uiso   1.00
C220   C     0.21032   0.49264   0.08922   0.00000  Uiso   1.00
C221   C     0.08122   0.52357   0.44078   0.00000  Uiso   1.00
C222   C     0.07114   0.53320   0.49580   0.00000  Uiso   1.00
C223   C     0.10377   0.52231   0.02075   0.00000  Uiso   1.00
H224   H     0.05806   0.53569   0.42046   0.00000  Uiso   1.00
H225   H     0.09502   0.53095   0.06329   0.00000  Uiso   1.00
H226   H     0.03914   0.55082   0.01850   0.00000  Uiso   1.00
N227   N     0.04760   0.50001   0.25001   0.00000  Uiso   1.00
N228   N     0.28573   0.49998   0.25000   0.00000  Uiso   1.00
O229   O     0.12846   0.56108   0.25000   0.00000  Uiso   1.00
O230   O     0.20490   0.56107   0.25000   0.00000  Uiso   1.00
O231   O     0.10947   0.50000   0.32681   0.00000  Uiso   1.00
O232   O     0.18591   0.49999   0.32681   0.00000  Uiso   1.00
O233   O     0.12843   0.43893   0.24999   0.00000  Uiso   1.00
O234   O     0.20488   0.43892   0.24999   0.00000  Uiso   1.00
O235   O     0.14742   0.50001   0.17319   0.00000  Uiso   1.00
O236   O     0.22387   0.50000   0.17319   0.00000  Uiso   1.00
Zn237  Zn    0.11562   0.50001   0.25000   0.00000  Uiso   1.00
Zn238  Zn    0.21771   0.49999   0.25000   0.00000  Uiso   1.00
H239   H     0.25672   0.44165   0.09161   0.00000  Uiso   1.00
H240   H     0.23939   0.37068   0.25083   0.00000  Uiso   1.00
H241   H     0.08989   0.37077   0.26429   0.00000  Uiso   1.00
H242   H     0.09042   0.62922   0.26204   0.00000  Uiso   1.00
C243   C     0.31088   0.45578   0.16705   0.00000  Uiso   1.00
O244   O     0.32015   0.47222   0.12275   0.00000  Uiso   1.00
O245   O     0.29528   0.41464   0.17439   0.00000  Uiso   1.00
H246   H     0.29264   0.40138   0.14014   0.00000  Uiso   1.00
C247   C     0.07174   0.45100   0.17072   0.00000  Uiso   1.00
O248   O     0.09008   0.46292   0.12385   0.00000  Uiso   1.00
O249   O     0.08135   0.41108   0.18430   0.00000  Uiso   1.00
H250   H     0.10592   0.39572   0.15253   0.00000  Uiso   1.00
H251   H     0.02057   0.54036   0.31910   0.00000  Uiso   1.00
H252   H     0.27021   0.53999   0.31950   0.00000  Uiso   1.00
H253   H     0.24022   0.41275   0.42267   0.00000  Uiso   1.00
H254   H     0.26773   0.41553   0.00007   0.00000  Uiso   1.00
C255   C     0.17412   0.55778   0.06826   0.00000  Uiso   1.00
O256   O     0.16472   0.57375   0.11365   0.00000  Uiso   1.00
O257   O     0.17524   0.58261   0.02440   0.00000  Uiso   1.00
H258   H     0.16656   0.61271   0.03576   0.00000  Uiso   1.00
H259   H     0.18724   0.43674   0.37720   0.00000  Uiso   1.00
H260   H     0.24005   0.62930   0.24862   0.00000  Uiso   1.00
C261   C     0.49976   0.57998   0.25088   0.00000  Uiso   1.00
C262   C     0.47944   0.49978   0.49134   0.00000  Uiso   1.00
C263   C     0.48460   0.48384   0.43908   0.00000  Uiso   1.00
C264   C     0.51553   0.49056   0.01325   0.00000  Uiso   1.00
C265   C     0.54785   0.45709   0.48980   0.00000  Uiso   1.00
C266   C     0.54895   0.43818   0.44103   0.00000  Uiso   1.00
C267   C     0.51861   0.45216   0.41510   0.00000  Uiso   1.00
C268   C     0.52003   0.51255   0.05841   0.00000  Uiso   1.00
C269   C     0.57301   0.45798   0.06764   0.00000  Uiso   1.00
C270   C     0.45555   0.50009   0.41180   0.00000  Uiso   1.00
C271   C     0.54056   0.64540   0.25156   0.00000  Uiso   1.00
C272   C     0.47310   0.49922   0.35226   0.00000  Uiso   1.00
C273   C     0.54028   0.35464   0.25248   0.00000  Uiso   1.00
C274   C     0.49865   0.37589   0.25473   0.00000  Uiso   1.00
C275   C     0.45632   0.35466   0.25990   0.00000  Uiso   1.00
C276   C     0.45656   0.64538   0.25895   0.00000  Uiso   1.00
C277   C     0.49900   0.62417   0.25361   0.00000  Uiso   1.00
C278   C     0.65464   0.47809   0.21102   0.00000  Uiso   1.00
C279   C     0.36899   0.47731   0.21162   0.00000  Uiso   1.00
C280   C     0.34543   0.52238   0.28834   0.00000  Uiso   1.00
C281   C     0.63095   0.52215   0.28855   0.00000  Uiso   1.00
C282   C     0.49956   0.42004   0.25140   0.00000  Uiso   1.00
C283   C     0.52680   0.49966   0.14784   0.00000  Uiso   1.00
C284   C     0.57755   0.44199   0.01648   0.00000  Uiso   1.00
C285   C     0.54365   0.49264   0.08922   0.00000  Uiso   1.00
C286   C     0.41455   0.52357   0.44078   0.00000  Uiso   1.00
C287   C     0.40447   0.53320   0.49580   0.00000  Uiso   1.00
C288   C     0.43711   0.52231   0.02075   0.00000  Uiso   1.00
H289   H     0.39139   0.53569   0.42046   0.00000  Uiso   1.00
H290   H     0.42835   0.53095   0.06329   0.00000  Uiso   1.00
H291   H     0.37247   0.55082   0.01850   0.00000  Uiso   1.00
N292   N     0.38093   0.50001   0.25001   0.00000  Uiso   1.00
N293   N     0.61906   0.49998   0.25000   0.00000  Uiso   1.00
O294   O     0.46179   0.56108   0.25000   0.00000  Uiso   1.00
O295   O     0.53823   0.56107   0.25000   0.00000  Uiso   1.00
O296   O     0.44280   0.50000   0.32681   0.00000  Uiso   1.00
O297   O     0.51924   0.49999   0.32681   0.00000  Uiso   1.00
O298   O     0.46177   0.43893   0.24999   0.00000  Uiso   1.00
O299   O     0.53821   0.43892   0.24999   0.00000  Uiso   1.00
O300   O     0.48076   0.50001   0.17319   0.00000  Uiso   1.00
O301   O     0.55720   0.50000   0.17319   0.00000  Uiso   1.00
Zn302  Zn    0.44896   0.50001   0.25000   0.00000  Uiso   1.00
Zn303  Zn    0.55104   0.49999   0.25000   0.00000  Uiso   1.00
H304   H     0.59005   0.44165   0.09161   0.00000  Uiso   1.00
H305   H     0.57272   0.37068   0.25083   0.00000  Uiso   1.00
H306   H     0.42322   0.37077   0.26429   0.00000  Uiso   1.00
H307   H     0.42375   0.62922   0.26204   0.00000  Uiso   1.00
C308   C     0.64421   0.45578   0.16705   0.00000  Uiso   1.00
O309   O     0.65349   0.47222   0.12275   0.00000  Uiso   1.00
O310   O     0.62862   0.41464   0.17439   0.00000  Uiso   1.00
H311   H     0.62598   0.40138   0.14014   0.00000  Uiso   1.00
C312   C     0.40507   0.45100   0.17072   0.00000  Uiso   1.00
O313   O     0.42341   0.46292   0.12385   0.00000  Uiso   1.00
O314   O     0.41468   0.41108   0.18430   0.00000  Uiso   1.00
H315   H     0.43925   0.39572   0.15253   0.00000  Uiso   1.00
H316   H     0.35391   0.54036   0.31910   0.00000  Uiso   1.00
H317   H     0.60354   0.53999   0.31950   0.00000  Uiso   1.00
H318   H     0.57355   0.41275   0.42267   0.00000  Uiso   1.00
H319   H     0.60106   0.41553   0.00007   0.00000  Uiso   1.00
C320   C     0.50746   0.55778   0.06826   0.00000  Uiso   1.00
O321   O     0.49806   0.57375   0.11365   0.00000  Uiso   1.00
O322   O     0.50857   0.58261   0.02440   0.00000  Uiso   1.00
H323   H     0.49990   0.61271   0.03576   0.00000  Uiso   1.00
H324   H     0.52057   0.43674   0.37720   0.00000  Uiso   1.00
H325   H     0.57338   0.62930   0.24862   0.00000  Uiso   1.00
C326   C     0.83310   0.57998   0.25088   0.00000  Uiso   1.00
C327   C     0.81277   0.49978   0.49134   0.00000  Uiso   1.00
C328   C     0.81793   0.48384   0.43908   0.00000  Uiso   1.00
C329   C     0.84886   0.49056   0.01325   0.00000  Uiso   1.00
C330   C     0.88118   0.45709   0.48980   0.00000  Uiso   1.00
C331   C     0.88228   0.43818   0.44103   0.00000  Uiso   1.00
C332   C     0.85195   0.45216   0.41510   0.00000  Uiso   1.00
C333   C     0.85336   0.51255   0.05841   0.00000  Uiso   1.00
C334   C     0.90634   0.45798   0.06764   0.00000  Uiso   1.00
C335   C     0.78888   0.50009   0.41180   0.00000  Uiso   1.00
C336   C     0.87390   0.64540   0.25156   0.00000  Uiso   1.00
C337   C     0.80644   0.49922   0.35226   0.00000  Uiso   1.00
C338   C     0.87361   0.35464   0.25248   0.00000  Uiso   1.00
C339   C     0.83199   0.37589   0.25473   0.00000  Uiso   1.00
C340   C     0.78965   0.35466   0.25990   0.00000  Uiso   1.00
C341   C     0.78989   0.64538   0.25895   0.00000  Uiso   1.00
C342   C     0.83233   0.62417   0.25361   0.00000  Uiso   1.00
C343   C     0.98798   0.47809   0.21102   0.00000  Uiso   1.00
C344   C     0.70233   0.47731   0.21162   0.00000  Uiso   1.00
C345   C     0.67877   0.52238   0.28834   0.00000  Uiso   1.00
C346   C     0.96428   0.52215   0.28855   0.00000  Uiso   1.00
C347   C     0.83289   0.42004   0.25140   0.00000  Uiso   1.00
C348   C     0.86014   0.49966   0.14784   0.00000  Uiso   1.00
C349   C     0.91089   0.44199   0.01648   0.00000  Uiso   1.00
C350   C     0.87698   0.49264   0.08922   0.00000  Uiso   1.00
C351   C     0.74788   0.52357   0.44078   0.00000  Uiso   1.00
C352   C     0.73780   0.53320   0.49580   0.00000  Uiso   1.00
C353   C     0.77044   0.52231   0.02075   0.00000  Uiso   1.00
H354   H     0.72473   0.53569   0.42046   0.00000  Uiso   1.00
H355   H     0.76169   0.53095   0.06329   0.00000  Uiso   1.00
H356   H     0.70580   0.55082   0.01850   0.00000  Uiso   1.00
N357   N     0.71426   0.50001   0.25001   0.00000  Uiso   1.00
N358   N     0.95239   0.49998   0.25000   0.00000  Uiso   1.00
O359   O     0.79512   0.56108   0.25000   0.00000  Uiso   1.00
O360   O     0.87157   0.56107   0.25000   0.00000  Uiso   1.00
O361   O     0.77613   0.50000   0.32681   0.00000  Uiso   1.00
O362   O     0.85258   0.49999   0.32681   0.00000  Uiso   1.00
O363   O     0.79510   0.43893   0.24999   0.00000  Uiso   1.00
O364   O     0.87154   0.43892   0.24999   0.00000  Uiso   1.00
O365   O     0.81409   0.50001   0.17319   0.00000  Uiso   1.00
O366   O     0.89053   0.50000   0.17319   0.00000  Uiso   1.00
Zn367  Zn    0.78229   0.50001   0.25000   0.00000  Uiso   1.00
Zn368  Zn    0.88438   0.49999   0.25000   0.00000  Uiso   1.00
H369   H     0.92339   0.44165   0.09161   0.00000  Uiso   1.00
H370   H     0.90606   0.37068   0.25083   0.00000  Uiso   1.00
H371   H     0.75656   0.37077   0.26429   0.00000  Uiso   1.00
H372   H     0.75709   0.62922   0.26204   0.00000  Uiso   1.00
C373   C     0.97755   0.45578   0.16705   0.00000  Uiso   1.00
O374   O     0.98682   0.47222   0.12275   0.00000  Uiso   1.00
O375   O     0.96195   0.41464   0.17439   0.00000  Uiso   1.00
H376   H     0.95931   0.40138   0.14014   0.00000  Uiso   1.00
C377   C     0.73840   0.45100   0.17072   0.00000  Uiso   1.00
O378   O     0.75674   0.46292   0.12385   0.00000  Uiso   1.00
O379   O     0.74801   0.41108   0.18430   0.00000  Uiso   1.00
H380   H     0.77258   0.39572   0.15253   0.00000  Uiso   1.00
H381   H     0.68724   0.54036   0.31910   0.00000  Uiso   1.00
H382   H     0.93687   0.53999   0.31950   0.00000  Uiso   1.00
H383   H     0.90688   0.41275   0.42267   0.00000  Uiso   1.00
H384   H     0.93440   0.41553   0.00007   0.00000  Uiso   1.00
C385   C     0.84079   0.55778   0.06826   0.00000  Uiso   1.00
O386   O     0.83139   0.57375   0.11365   0.00000  Uiso   1.00
O387   O     0.84191   0.58261   0.02440   0.00000  Uiso   1.00
H388   H     0.83323   0.61271   0.03576   0.00000  Uiso   1.00
H389   H     0.85390   0.43674   0.37720   0.00000  Uiso   1.00
H390   H     0.90671   0.62930   0.24862   0.00000  Uiso   1.00
C391   C     0.16643   0.91331   0.25088   0.00000  Uiso   1.00
C392   C     0.14610   0.83311   0.49134   0.00000  Uiso   1.00
C393   C     0.15126   0.81717   0.43908   0.00000  Uiso   1.00
C394   C     0.18219   0.82389   0.01325   0.00000  Uiso   1.00
C395   C     0.21452   0.79043   0.48980   0.00000  Uiso   1.00
C396   C     0.21561   0.77151   0.44103   0.00000  Uiso   1.00
C397   C     0.18528   0.78549   0.41510   0.00000  Uiso   1.00
C398   C     0.18669   0.84588   0.05841   0.00000  Uiso   1.00
C399   C     0.23967   0.79131   0.06764   0.00000  Uiso   1.00
C400   C     0.12221   0.83342   0.41180   0.00000  Uiso   1.00
C401   C     0.20723   0.97873   0.25156   0.00000  Uiso   1.00
C402   C     0.13977   0.83255   0.35226   0.00000  Uiso   1.00
C403   C     0.20694   0.68798   0.25248   0.00000  Uiso   1.00
C404   C     0.16532   0.70922   0.25473   0.00000  Uiso   1.00
C405   C     0.12299   0.68800   0.25990   0.00000  Uiso   1.00
C406   C     0.12323   0.97871   0.25895   0.00000  Uiso   1.00
C407   C     0.16566   0.95751   0.25361   0.00000  Uiso   1.00
C408   C     0.32131   0.81143   0.21102   0.00000  Uiso   1.00
C409   C     0.03566   0.81065   0.21162   0.00000  Uiso   1.00
C410   C     0.01210   0.85571   0.28834   0.00000  Uiso   1.00
C411   C     0.29761   0.85548   0.28855   0.00000  Uiso   1.00
C412   C     0.16622   0.75337   0.25140   0.00000  Uiso   1.00
C413   C     0.19347   0.83299   0.14784   0.00000  Uiso   1.00
C414   C     0.24422   0.77533   0.01648   0.00000  Uiso   1.00
C415   C     0.21032   0.82597   0.08922   0.00000  Uiso   1.00
C416   C     0.08122   0.85691   0.44078   0.00000  Uiso   1.00
C417   C     0.07114   0.86653   0.49580   0.00000  Uiso   1.00
C418   C     0.10377   0.85564   0.02075   0.00000  Uiso   1.00
H419   H     0.05806   0.86903   0.42046   0.00000  Uiso   1.00
H420   H     0.09502   0.86428   0.06329   0.00000  Uiso   1.00
H421   H     0.03914   0.88415   0.01850   0.00000  Uiso   1.00
N422   N     0.04760   0.83334   0.25001   0.00000  Uiso   1.00
N423   N     0.28573   0.83331   0.25000   0.00000  Uiso   1.00
O424   O     0.12846   0.89442   0.25000   0.00000  Uiso   1.00
O425   O     0.20490   0.89441   0.25000   0.00000  Uiso   1.00
O426   O     0.10947   0.83333   0.32681   0.00000  Uiso   1.00
O427   O     0.18591   0.83332   0.32681   0.00000  Uiso   1.00
O428   O     0.12843   0.77226   0.24999   0.00000  Uiso   1.00
O429   O     0.20488   0.77225   0.24999   0.00000  Uiso   1.00
O430   O     0.14742   0.83335   0.17319   0.00000  Uiso   1.00
O431   O     0.22387   0.83334   0.17319   0.00000  Uiso   1.00
Zn432  Zn    0.11562   0.83334   0.25000   0.00000  Uiso   1.00
Zn433  Zn    0.21771   0.83333   0.25000   0.00000  Uiso   1.00
H434   H     0.25672   0.77498   0.09161   0.00000  Uiso   1.00
H435   H     0.23939   0.70401   0.25083   0.00000  Uiso   1.00
H436   H     0.08989   0.70411   0.26429   0.00000  Uiso   1.00
H437   H     0.09042   0.96255   0.26204   0.00000  Uiso   1.00
C438   C     0.31088   0.78911   0.16705   0.00000  Uiso   1.00
O439   O     0.32015   0.80555   0.12275   0.00000  Uiso   1.00
O440   O     0.29528   0.74798   0.17439   0.00000  Uiso   1.00
H441   H     0.29264   0.73471   0.14014   0.00000  Uiso   1.00
C442   C     0.07174   0.78433   0.17072   0.00000  Uiso   1.00
O443   O     0.09008   0.79626   0.12385   0.00000  Uiso   1.00
O444   O     0.08135   0.74441   0.18430   0.00000  Uiso   1.00
H445   H     0.10592   0.72905   0.15253   0.00000  Uiso   1.00
H446   H     0.02057   0.87370   0.31910   0.00000  Uiso   1.00
H447   H     0.27021   0.87333   0.31950   0.00000  Uiso   1.00
H448   H     0.24022   0.74609   0.42267   0.00000  Uiso   1.00
H449   H     0.26773   0.74886   0.00007   0.00000  Uiso   1.00
C450   C     0.17412   0.89112   0.06826   0.00000  Uiso   1.00
O451   O     0.16472   0.90709   0.11365   0.00000  Uiso   1.00
O452   O     0.17524   0.91594   0.02440   0.00000  Uiso   1.00
H453   H     0.16656   0.94604   0.03576   0.00000  Uiso   1.00
H454   H     0.18724   0.77008   0.37720   0.00000  Uiso   1.00
H455   H     0.24005   0.96263   0.24862   0.00000  Uiso   1.00
C456   C     0.49976   0.91331   0.25088   0.00000  Uiso   1.00
C457   C     0.47944   0.83311   0.49134   0.00000  Uiso   1.00
C458   C     0.48460   0.81717   0.43908   0.00000  Uiso   1.00
C459   C     0.51553   0.82389   0.01325   0.00000  Uiso   1.00
C460   C     0.54785   0.79043   0.48980   0.00000  Uiso   1.00
C461   C     0.54895   0.77151   0.44103   0.00000  Uiso   1.00
C462   C     0.51861   0.78549   0.41510   0.00000  Uiso   1.00
C463   C     0.52003   0.84588   0.05841   0.00000  Uiso   1.00
C464   C     0.57301   0.79131   0.06764   0.00000  Uiso   1.00
C465   C     0.45555   0.83342   0.41180   0.00000  Uiso   1.00
C466   C     0.54056   0.97873   0.25156   0.00000  Uiso   1.00
C467   C     0.47310   0.83255   0.35226   0.00000  Uiso   1.00
C468   C     0.54028   0.68798   0.25248   0.00000  Uiso   1.00
C469   C     0.49865   0.70922   0.25473   0.00000  Uiso   1.00
C470   C     0.45632   0.68800   0.25990   0.00000  Uiso   1.00
C471   C     0.45656   0.97871   0.25895   0.00000  Uiso   1.00
C472   C     0.49900   0.95751   0.25361   0.00000  Uiso   1.00
C473   C     0.65464   0.81143   0.21102   0.00000  Uiso   1.00
C474   C     0.36899   0.81065   0.21162   0.00000  Uiso   1.00
C475   C     0.34543   0.85571   0.28834   0.00000  Uiso   1.00
C476   C     0.63095   0.85548   0.28855   0.00000  Uiso   1.00
C477   C     0.49956   0.75337   0.25140   0.00000  Uiso   1.00
C478   C     0.52680   0.83299   0.14784   0.00000  Uiso   1.00
C479   C     0.57755   0.77533   0.01648   0.00000  Uiso   1.00
C480   C     0.54365   0.82597   0.08922   0.00000  Uiso   1.00
C481   C     0.41455   0.85691   0.44078   0.00000  Uiso   1.00
C482   C     0.40447   0.86653   0.49580   0.00000  Uiso   1.00
C483   C     0.43711   0.85564   0.02075   0.00000  Uiso   1.00
H484   H     0.39139   0.86903   0.42046   0.00000  Uiso   1.00
H485   H     0.42835   0.86428   0.06329   0.00000  Uiso   1.00
H486   H     0.37247   0.88415   0.01850   0.00000  Uiso   1.00
N487   N     0.38093   0.83334   0.25001   0.00000  Uiso   1.00
N488   N     0.61906   0.83331   0.25000   0.00000  Uiso   1.00
O489   O     0.46179   0.89442   0.25000   0.00000  Uiso   1.00
O490   O     0.53823   0.89441   0.25000   0.00000  Uiso   1.00
O491   O     0.44280   0.83333   0.32681   0.00000  Uiso   1.00
O492   O     0.51924   0.83332   0.32681   0.00000  Uiso   1.00
O493   O     0.46177   0.77226   0.24999   0.00000  Uiso   1.00
O494   O     0.53821   0.77225   0.24999   0.00000  Uiso   1.00
O495   O     0.48076   0.83335   0.17319   0.00000  Uiso   1.00
O496   O     0.55720   0.83334   0.17319   0.00000  Uiso   1.00
Zn497  Zn    0.44896   0.83334   0.25000   0.00000  Uiso   1.00
Zn498  Zn    0.55104   0.83333   0.25000   0.00000  Uiso   1.00
H499   H     0.59005   0.77498   0.09161   0.00000  Uiso   1.00
H500   H     0.57272   0.70401   0.25083   0.00000  Uiso   1.00
H501   H     0.42322   0.70411   0.26429   0.00000  Uiso   1.00
H502   H     0.42375   0.96255   0.26204   0.00000  Uiso   1.00
C503   C     0.64421   0.78911   0.16705   0.00000  Uiso   1.00
O504   O     0.65349   0.80555   0.12275   0.00000  Uiso   1.00
O505   O     0.62862   0.74798   0.17439   0.00000  Uiso   1.00
H506   H     0.62598   0.73471   0.14014   0.00000  Uiso   1.00
C507   C     0.40507   0.78433   0.17072   0.00000  Uiso   1.00
O508   O     0.42341   0.79626   0.12385   0.00000  Uiso   1.00
O509   O     0.41468   0.74441   0.18430   0.00000  Uiso   1.00
H510   H     0.43925   0.72905   0.15253   0.00000  Uiso   1.00
H511   H     0.35391   0.87370   0.31910   0.00000  Uiso   1.00
H512   H     0.60354   0.87333   0.31950   0.00000  Uiso   1.00
H513   H     0.57355   0.74609   0.42267   0.00000  Uiso   1.00
H514   H     0.60106   0.74886   0.00007   0.00000  Uiso   1.00
C515   C     0.50746   0.89112   0.06826   0.00000  Uiso   1.00
O516   O     0.49806   0.90709   0.11365   0.00000  Uiso   1.00
O517   O     0.50857   0.91594   0.02440   0.00000  Uiso   1.00
H518   H     0.49990   0.94604   0.03576   0.00000  Uiso   1.00
H519   H     0.52057   0.77008   0.37720   0.00000  Uiso   1.00
H520   H     0.57338   0.96263   0.24862   0.00000  Uiso   1.00
C521   C     0.83310   0.91331   0.25088   0.00000  Uiso   1.00
C522   C     0.81277   0.83311   0.49134   0.00000  Uiso   1.00
C523   C     0.81793   0.81717   0.43908   0.00000  Uiso   1.00
C524   C     0.84886   0.82389   0.01325   0.00000  Uiso   1.00
C525   C     0.88118   0.79043   0.48980   0.00000  Uiso   1.00
C526   C     0.88228   0.77151   0.44103   0.00000  Uiso   1.00
C527   C     0.85195   0.78549   0.41510   0.00000  Uiso   1.00
C528   C     0.85336   0.84588   0.05841   0.00000  Uiso   1.00
C529   C     0.90634   0.79131   0.06764   0.00000  Uiso   1.00
C530   C     0.78888   0.83342   0.41180   0.00000  Uiso   1.00
C531   C     0.87390   0.97873   0.25156   0.00000  Uiso   1.00
C532   C     0.80644   0.83255   0.35226   0.00000  Uiso   1.00
C533   C     0.87361   0.68798   0.25248   0.00000  Uiso   1.00
C534   C     0.83199   0.70922   0.25473   0.00000  Uiso   1.00
C535   C     0.78965   0.68800   0.25990   0.00000  Uiso   1.00
C536   C     0.78989   0.97871   0.25895   0.00000  Uiso   1.00
C537   C     0.83233   0.95751   0.25361   0.00000  Uiso   1.00
C538   C     0.98798   0.81143   0.21102   0.00000  Uiso   1.00
C539   C     0.70233   0.81065   0.21162   0.00000  Uiso   1.00
C540   C     0.67877   0.85571   0.28834   0.00000  Uiso   1.00
C541   C     0.96428   0.85548   0.28855   0.00000  Uiso   1.00
C542   C     0.83289   0.75337   0.25140   0.00000  Uiso   1.00
C543   C     0.86014   0.83299   0.14784   0.00000  Uiso   1.00
C544   C     0.91089   0.77533   0.01648   0.00000  Uiso   1.00
C545   C     0.87698   0.82597   0.08922   0.00000  Uiso   1.00
C546   C     0.74788   0.85691   0.44078   0.00000  Uiso   1.00
C547   C     0.73780   0.86653   0.49580   0.00000  Uiso   1.00
C548   C     0.77044   0.85564   0.02075   0.00000  Uiso   1.00
H549   H     0.72473   0.86903   0.42046   0.00000  Uiso   1.00
H550   H     0.76169   0.86428   0.06329   0.00000  Uiso   1.00
H551   H     0.70580   0.88415   0.01850   0.00000  Uiso   1.00
N552   N     0.71426   0.83334   0.25001   0.00000  Uiso   1.00
N553   N     0.95239   0.83331   0.25000   0.00000  Uiso   1.00
O554   O     0.79512   0.89442   0.25000   0.00000  Uiso   1.00
O555   O     0.87157   0.89441   0.25000   0.00000  Uiso   1.00
O556   O     0.77613   0.83333   0.32681   0.00000  Uiso   1.00
O557   O     0.85258   0.83332   0.32681   0.00000  Uiso   1.00
O558   O     0.79510   0.77226   0.24999   0.00000  Uiso   1.00
O559   O     0.87154   0.77225   0.24999   0.00000  Uiso   1.00
O560   O     0.81409   0.83335   0.17319   0.00000  Uiso   1.00
O561   O     0.89053   0.83334   0.17319   0.00000  Uiso   1.00
Zn562  Zn    0.78229   0.83334   0.25000   0.00000  Uiso   1.00
Zn563  Zn    0.88438   0.83333   0.25000   0.00000  Uiso   1.00
H564   H     0.92339   0.77498   0.09161   0.00000  Uiso   1.00
H565   H     0.90606   0.70401   0.25083   0.00000  Uiso   1.00
H566   H     0.75656   0.70411   0.26429   0.00000  Uiso   1.00
H567   H     0.75709   0.96255   0.26204   0.00000  Uiso   1.00
C568   C     0.97755   0.78911   0.16705   0.00000  Uiso   1.00
O569   O     0.98682   0.80555   0.12275   0.00000  Uiso   1.00
O570   O     0.96195   0.74798   0.17439   0.00000  Uiso   1.00
H571   H     0.95931   0.73471   0.14014   0.00000  Uiso   1.00
C572   C     0.73840   0.78433   0.17072   0.00000  Uiso   1.00
O573   O     0.75674   0.79626   0.12385   0.00000  Uiso   1.00
O574   O     0.74801   0.74441   0.18430   0.00000  Uiso   1.00
H575   H     0.77258   0.72905   0.15253   0.00000  Uiso   1.00
H576   H     0.68724   0.87370   0.31910   0.00000  Uiso   1.00
H577   H     0.93687   0.87333   0.31950   0.00000  Uiso   1.00
H578   H     0.90688   0.74609   0.42267   0.00000  Uiso   1.00
H579   H     0.93440   0.74886   0.00007   0.00000  Uiso   1.00
C580   C     0.84079   0.89112   0.06826   0.00000  Uiso   1.00
O581   O     0.83139   0.90709   0.11365   0.00000  Uiso   1.00
O582   O     0.84191   0.91594   0.02440   0.00000  Uiso   1.00
H583   H     0.83323   0.94604   0.03576   0.00000  Uiso   1.00
H584   H     0.85390   0.77008   0.37720   0.00000  Uiso   1.00
H585   H     0.90671   0.96263   0.24862   0.00000  Uiso   1.00
C586   C     0.16643   0.24664   0.75088   0.00000  Uiso   1.00
C587   C     0.14610   0.16645   0.99134   0.00000  Uiso   1.00
C588   C     0.15126   0.15051   0.93908   0.00000  Uiso   1.00
C589   C     0.18219   0.15722   0.51325   0.00000  Uiso   1.00
C590   C     0.21452   0.12376   0.98980   0.00000  Uiso   1.00
C591   C     0.21561   0.10484   0.94103   0.00000  Uiso   1.00
C592   C     0.18528   0.11882   0.91510   0.00000  Uiso   1.00
C593   C     0.18669   0.17922   0.55841   0.00000  Uiso   1.00
C594   C     0.23967   0.12465   0.56764   0.00000  Uiso   1.00
C595   C     0.12221   0.16675   0.91180   0.00000  Uiso   1.00
C596   C     0.20723   0.31207   0.75156   0.00000  Uiso   1.00
C597   C     0.13977   0.16588   0.85226   0.00000  Uiso   1.00
C598   C     0.20694   0.02131   0.75248   0.00000  Uiso   1.00
C599   C     0.16532   0.04255   0.75473   0.00000  Uiso   1.00
C600   C     0.12299   0.02133   0.75990   0.00000  Uiso   1.00
C601   C     0.12323   0.31204   0.75895   0.00000  Uiso   1.00
C602   C     0.16566   0.29084   0.75361   0.00000  Uiso   1.00
C603   C     0.32131   0.14476   0.71102   0.00000  Uiso   1.00
C604   C     0.03566   0.14398   0.71162   0.00000  Uiso   1.00
C605   C     0.01210   0.18904   0.78834   0.00000  Uiso   1.00
C606   C     0.29761   0.18882   0.78855   0.00000  Uiso   1.00
C607   C     0.16622   0.08671   0.75140   0.00000  Uiso   1.00
C608   C     0.19347   0.16633   0.64784   0.00000  Uiso   1.00
C609   C     0.24422   0.10866   0.51648   0.00000  Uiso   1.00
C610   C     0.21032   0.15930   0.58922   0.00000  Uiso   1.00
C611   C     0.08122   0.19024   0.94078   0.00000  Uiso   1.00
C612   C     0.07114   0.19987   0.99580   0.00000  Uiso   1.00
C613   C     0.10377   0.18898   0.52075   0.00000  Uiso   1.00
H614   H     0.05806   0.20236   0.92046   0.00000  Uiso   1.00
H615   H     0.09502   0.19762   0.56329   0.00000  Uiso   1.00
H616   H     0.03914   0.21748   0.51850   0.00000  Uiso   1.00
N617   N     0.04760   0.16668   0.75001   0.00000  Uiso   1.00
N618   N     0.28573   0.16665   0.75000   0.00000  Uiso   1.00
O619   O     0.12846   0.22775   0.75000   0.00000  Uiso   1.00
O620   O     0.20490   0.22774   0.75000   0.00000  Uiso   1.00
O621   O     0.10947   0.16666   0.82681   0.00000  Uiso   1.00
O622   O     0.18591   0.16665   0.82681   0.00000  Uiso   1.00
O623   O     0.12843   0.10559   0.74999   0.00000  Uiso   1.00
O624   O     0.20488   0.10558   0.74999   0.00000  Uiso   1.00
O625   O     0.14742   0.16668   0.67319   0.00000  Uiso   1.00
O626   O     0.22387   0.16667   0.67319   0.00000  Uiso   1.00
Zn627  Zn    0.11562   0.16667   0.75000   0.00000  Uiso   1.00
Zn628  Zn    0.21771   0.16666   0.75000   0.00000  Uiso   1.00
H629   H     0.25672   0.10832   0.59161   0.00000  Uiso   1.00
H630   H     0.23939   0.03734   0.75083   0.00000  Uiso   1.00
H631   H     0.08989   0.03744   0.76429   0.00000  Uiso   1.00
H632   H     0.09042   0.29588   0.76204   0.00000  Uiso   1.00
C633   C     0.31088   0.12245   0.66705   0.00000  Uiso   1.00
O634   O     0.32015   0.13889   0.62275   0.00000  Uiso   1.00
O635   O     0.29528   0.08131   0.67439   0.00000  Uiso   1.00
H636   H     0.29264   0.06805   0.64014   0.00000  Uiso   1.00
C637   C     0.07174   0.11767   0.67072   0.00000  Uiso   1.00
O638   O     0.09008   0.12959   0.62385   0.00000  Uiso   1.00
O639   O     0.08135   0.07774   0.68430   0.00000  Uiso   1.00
H640   H     0.10592   0.06238   0.65253   0.00000  Uiso   1.00
H641   H     0.02057   0.20703   0.81910   0.00000  Uiso   1.00
H642   H     0.27021   0.20666   0.81950   0.00000  Uiso   1.00
H643   H     0.24022   0.07942   0.92267   0.00000  Uiso   1.00
H644   H     0.26773   0.08220   0.50007   0.00000  Uiso   1.00
C645   C     0.17412   0.22445   0.56826   0.00000  Uiso   1.00
O646   O     0.16472   0.24042   0.61365   0.00000  Uiso   1.00
O647   O     0.17524   0.24928   0.52440   0.00000  Uiso   1.00
H648   H     0.16656   0.27937   0.53576   0.00000  Uiso   1.00
H649   H     0.18724   0.10341   0.87720   0.00000  Uiso   1.00
H650   H     0.24005   0.29597   0.74862   0.00000  Uiso   1.00
C651   C     0.49976   0.24664   0.75088   0.00000  Uiso   1.00
C652   C     0.47944   0.16645   0.99134   0.00000  Uiso   1.00
C653   C     0.48460   0.15051   0.93908   0.00000  Uiso   1.00
C654   C     0.51553   0.15722   0.51325   0.00000  Uiso   1.00
C655   C     0.54785   0.12376   0.98980   0.00000  Uiso   1.00
C656   C     0.54895   0.10484   0.94103   0.00000  Uiso   1.00
C657   C     0.51861   0.11882   0.91510   0.00000  Uiso   1.00
C658   C     0.52003   0.17922   0.55841   0.00000  Uiso   1.00
C659   C     0.57301   0.12465   0.56764   0.00000  Uiso   1.00
C660   C     0.45555   0.16675   0.91180   0.00000  Uiso   1.00
C661   C     0.54056   0.31207   0.75156   0.00000  Uiso   1.00
C662   C     0.47310   0.16588   0.85226   0.00000  Uiso   1.00
C663   C     0.54028   0.02131   0.75248   0.00000  Uiso   1.00
C664   C     0.49865   0.04255   0.75473   0.00000  Uiso   1.00
C665   C     0.45632   0.02133   0.75990   0.00000  Uiso   1.00
C666   C     0.45656   0.31204   0.75895   0.00000  Uiso   1.00
C667   C     0.49900   0.29084   0.75361   0.00000  Uiso   1.00
C668   C     0.65464   0.14476   0.71102   0.00000  Uiso   1.00
C669   C     0.36899   0.14398   0.71162   0.00000  Uiso   1.00
C670   C     0.34543   0.18904   0.78834   0.00000  Uiso   1.00
C671   C     0.63095   0.18882   0.78855   0.00000  Uiso   1.00
C672   C     0.49956   0.08671   0.75140   0.00000  Uiso   1.00
C673   C     0.52680   0.16633   0.64784   0.00000  Uiso   1.00
C674   C     0.57755   0.10866   0.51648   0.00000  Uiso   1.00
C675   C     0.54365   0.15930   0.58922   0.00000  Uiso   1.00
C676   C     0.41455   0.19024   0.94078   0.00000  Uiso   1.00
C677   C     0.40447   0.19987   0.99580   0.00000  Uiso   1.00
C678   C     0.43711   0.18898   0.52075   0.00000  Uiso   1.00
H679   H     0.39139   0.20236   0.92046   0.00000  Uiso   1.00
H680   H     0.42835   0.19762   0.56329   0.00000  Uiso   1.00
H681   H     0.37247   0.21748   0.51850   0.00000  Uiso   1.00
N682   N     0.38093   0.16668   0.75001   0.00000  Uiso   1.00
N683   N     0.61906   0.16665   0.75000   0.00000  Uiso   1.00
O684   O     0.46179   0.22775   0.75000   0.00000  Uiso   1.00
O685   O     0.53823   0.22774   0.75000   0.00000  Uiso   1.00
O686   O     0.44280   0.16666   0.82681   0.00000  Uiso   1.00
O687   O     0.51924   0.16665   0.82681   0.00000  Uiso   1.00
O688   O     0.46177   0.10559   0.74999   0.00000  Uiso   1.00
O689   O     0.53821   0.10558   0.74999   0.00000  Uiso   1.00
O690   O     0.48076   0.16668   0.67319   0.00000  Uiso   1.00
O691   O     0.55720   0.16667   0.67319   0.00000  Uiso   1.00
Zn692  Zn    0.44896   0.16667   0.75000   0.00000  Uiso   1.00
Zn693  Zn    0.55104   0.16666   0.75000   0.00000  Uiso   1.00
H694   H     0.59005   0.10832   0.59161   0.00000  Uiso   1.00
H695   H     0.57272   0.03734   0.75083   0.00000  Uiso   1.00
H696   H     0.42322   0.03744   0.76429   0.00000  Uiso   1.00
H697   H     0.42375   0.29588   0.76204   0.00000  Uiso   1.00
C698   C     0.64421   0.12245   0.66705   0.00000  Uiso   1.00
O699   O     0.65349   0.13889   0.62275   0.00000  Uiso   1.00
O700   O     0.62862   0.08131   0.67439   0.00000  Uiso   1.00
H701   H     0.62598   0.06805   0.64014   0.00000  Uiso   1.00
C702   C     0.40507   0.11767   0.67072   0.00000  Uiso   1.00
O703   O     0.42341   0.12959   0.62385   0.00000  Uiso   1.00
O704   O     0.41468   0.07774   0.68430   0.00000  Uiso   1.00
H705   H     0.43925   0.06238   0.65253   0.00000  Uiso   1.00
H706   H     0.35391   0.20703   0.81910   0.00000  Uiso   1.00
H707   H     0.60354   0.20666   0.81950   0.00000  Uiso   1.00
H708   H     0.57355   0.07942   0.92267   0.00000  Uiso   1.00
H709   H     0.60106   0.08220   0.50007   0.00000  Uiso   1.00
C710   C     0.50746   0.22445   0.56826   0.00000  Uiso   1.00
O711   O     0.49806   0.24042   0.61365   0.00000  Uiso   1.00
O712   O     0.50857   0.24928   0.52440   0.00000  Uiso   1.00
H713   H     0.49990   0.27937   0.53576   0.00000  Uiso   1.00
H714   H     0.52057   0.10341   0.87720   0.00000  Uiso   1.00
H715   H     0.57338   0.29597   0.74862   0.00000  Uiso   1.00
C716   C     0.83310   0.24664   0.75088   0.00000  Uiso   1.00
C717   C     0.81277   0.16645   0.99134   0.00000  Uiso   1.00
C718   C     0.81793   0.15051   0.93908   0.00000  Uiso   1.00
C719   C     0.84886   0.15722   0.51325   0.00000  Uiso   1.00
C720   C     0.88118   0.12376   0.98980   0.00000  Uiso   1.00
C721   C     0.88228   0.10484   0.94103   0.00000  Uiso   1.00
C722   C     0.85195   0.11882   0.91510   0.00000  Uiso   1.00
C723   C     0.85336   0.17922   0.55841   0.00000  Uiso   1.00
C724   C     0.90634   0.12465   0.56764   0.00000  Uiso   1.00
C725   C     0.78888   0.16675   0.91180   0.00000  Uiso   1.00
C726   C     0.87390   0.31207   0.75156   0.00000  Uiso   1.00
C727   C     0.80644   0.16588   0.85226   0.00000  Uiso   1.00
C728   C     0.87361   0.02131   0.75248   0.00000  Uiso   1.00
C729   C     0.83199   0.04255   0.75473   0.00000  Uiso   1.00
C730   C     0.78965   0.02133   0.75990   0.00000  Uiso   1.00
C731   C     0.78989   0.31204   0.75895   0.00000  Uiso   1.00
C732   C     0.83233   0.29084   0.75361   0.00000  Uiso   1.00
C733   C     0.98798   0.14476   0.71102   0.00000  Uiso   1.00
C734   C     0.70233   0.14398   0.71162   0.00000  Uiso   1.00
C735   C     0.67877   0.18904   0.78834   0.00000  Uiso   1.00
C736   C     0.96428   0.18882   0.78855   0.00000  Uiso   1.00
C737   C     0.83289   0.08671   0.75140   0.00000  Uiso   1.00
C738   C     0.86014   0.16633   0.64784   0.00000  Uiso   1.00
C739   C     0.91089   0.10866   0.51648   0.00000  Uiso   1.00
C740   C     0.87698   0.15930   0.58922   0.00000  Uiso   1.00
C741   C     0.74788   0.19024   0.94078   0.00000  Uiso   1.00
C742   C     0.73780   0.19987   0.99580   0.00000  Uiso   1.00
C743   C     0.77044   0.18898   0.52075   0.00000  Uiso   1.00
H744   H     0.72473   0.20236   0.92046   0.00000  Uiso   1.00
H745   H     0.76169   0.19762   0.56329   0.00000  Uiso   1.00
H746   H     0.70580   0.21748   0.51850   0.00000  Uiso   1.00
N747   N     0.71426   0.16668   0.75001   0.00000  Uiso   1.00
N748   N     0.95239   0.16665   0.75000   0.00000  Uiso   1.00
O749   O     0.79512   0.22775   0.75000   0.00000  Uiso   1.00
O750   O     0.87157   0.22774   0.75000   0.00000  Uiso   1.00
O751   O     0.77613   0.16666   0.82681   0.00000  Uiso   1.00
O752   O     0.85258   0.16665   0.82681   0.00000  Uiso   1.00
O753   O     0.79510   0.10559   0.74999   0.00000  Uiso   1.00
O754   O     0.87154   0.10558   0.74999   0.00000  Uiso   1.00
O755   O     0.81409   0.16668   0.67319   0.00000  Uiso   1.00
O756   O     0.89053   0.16667   0.67319   0.00000  Uiso   1.00
Zn757  Zn    0.78229   0.16667   0.75000   0.00000  Uiso   1.00
Zn758  Zn    0.88438   0.16666   0.75000   0.00000  Uiso   1.00
H759   H     0.92339   0.10832   0.59161   0.00000  Uiso   1.00
H760   H     0.90606   0.03734   0.75083   0.00000  Uiso   1.00
H761   H     0.75656   0.03744   0.76429   0.00000  Uiso   1.00
H762   H     0.75709   0.29588   0.76204   0.00000  Uiso   1.00
C763   C     0.97755   0.12245   0.66705   0.00000  Uiso   1.00
O764   O     0.98682   0.13889   0.62275   0.00000  Uiso   1.00
O765   O     0.96195   0.08131   0.67439   0.00000  Uiso   1.00
H766   H     0.95931   0.06805   0.64014   0.00000  Uiso   1.00
C767   C     0.73840   0.11767   0.67072   0.00000  Uiso   1.00
O768   O     0.75674   0.12959   0.62385   0.00000  Uiso   1.00
O769   O     0.74801   0.07774   0.68430   0.00000  Uiso   1.00
H770   H     0.77258   0.06238   0.65253   0.00000  Uiso   1.00
H771   H     0.68724   0.20703   0.81910   0.00000  Uiso   1.00
H772   H     0.93687   0.20666   0.81950   0.00000  Uiso   1.00
H773   H     0.90688   0.07942   0.92267   0.00000  Uiso   1.00
H774   H     0.93440   0.08220   0.50007   0.00000  Uiso   1.00
C775   C     0.84079   0.22445   0.56826   0.00000  Uiso   1.00
O776   O     0.83139   0.24042   0.61365   0.00000  Uiso   1.00
O777   O     0.84191   0.24928   0.52440   0.00000  Uiso   1.00
H778   H     0.83323   0.27937   0.53576   0.00000  Uiso   1.00
H779   H     0.85390   0.10341   0.87720   0.00000  Uiso   1.00
H780   H     0.90671   0.29597   0.74862   0.00000  Uiso   1.00
C781   C     0.16643   0.57998   0.75088   0.00000  Uiso   1.00
C782   C     0.14610   0.49978   0.99134   0.00000  Uiso   1.00
C783   C     0.15126   0.48384   0.93908   0.00000  Uiso   1.00
C784   C     0.18219   0.49056   0.51325   0.00000  Uiso   1.00
C785   C     0.21452   0.45709   0.98980   0.00000  Uiso   1.00
C786   C     0.21561   0.43818   0.94103   0.00000  Uiso   1.00
C787   C     0.18528   0.45216   0.91510   0.00000  Uiso   1.00
C788   C     0.18669   0.51255   0.55841   0.00000  Uiso   1.00
C789   C     0.23967   0.45798   0.56764   0.00000  Uiso   1.00
C790   C     0.12221   0.50009   0.91180   0.00000  Uiso   1.00
C791   C     0.20723   0.64540   0.75156   0.00000  Uiso   1.00
C792   C     0.13977   0.49922   0.85226   0.00000  Uiso   1.00
C793   C     0.20694   0.35464   0.75248   0.00000  Uiso   1.00
C794   C     0.16532   0.37589   0.75473   0.00000  Uiso   1.00
C795   C     0.12299   0.35466   0.75990   0.00000  Uiso   1.00
C796   C     0.12323   0.64538   0.75895   0.00000  Uiso   1.00
C797   C     0.16566   0.62417   0.75361   0.00000  Uiso   1.00
C798   C     0.32131   0.47809   0.71102   0.00000  Uiso   1.00
C799   C     0.03566   0.47731   0.71162   0.00000  Uiso   1.00
C800   C     0.01210   0.52238   0.78834   0.00000  Uiso   1.00
C801   C     0.29761   0.52215   0.78855   0.00000  Uiso   1.00
C802   C     0.16622   0.42004   0.75140   0.00000  Uiso   1.00
C803   C     0.19347   0.49966   0.64784   0.00000  Uiso   1.00
C804   C     0.24422   0.44199   0.51648   0.00000  Uiso   1.00
C805   C     0.21032   0.49264   0.58922   0.00000  Uiso   1.00
C806   C     0.08122   0.52357   0.94078   0.00000  Uiso   1.00
C807   C     0.07114   0.53320   0.99580   0.00000  Uiso   1.00
C808   C     0.10377   0.52231   0.52075   0.00000  Uiso   1.00
H809   H     0.05806   0.53569   0.92046   0.00000  Uiso   1.00
H810   H     0.09502   0.53095   0.56329   0.00000  Uiso   1.00
H811   H     0.03914   0.55082   0.51850   0.00000  Uiso   1.00
N812   N     0.04760   0.50001   0.75001   0.00000  Uiso   1.00
N813   N     0.28573   0.49998   0.75000   0.00000  Uiso   1.00
O814   O     0.12846   0.56108   0.75000   0.00000  Uiso   1.00
O815   O     0.20490   0.56107   0.75000   0.00000  Uiso   1.00
O816   O     0.10947   0.50000   0.82681   0.00000  Uiso   1.00
O817   O     0.18591   0.49999   0.82681   0.00000  Uiso   1.00
O818   O     0.12843   0.43893   0.74999   0.00000  Uiso   1.00
O819   O     0.20488   0.43892   0.74999   0.00000  Uiso   1.00
O820   O     0.14742   0.50001   0.67319   0.00000  Uiso   1.00
O821   O     0.22387   0.50000   0.67319   0.00000  Uiso   1.00
Zn822  Zn    0.11562   0.50001   0.75000   0.00000  Uiso   1.00
Zn823  Zn    0.21771   0.49999   0.75000   0.00000  Uiso   1.00
H824   H     0.25672   0.44165   0.59161   0.00000  Uiso   1.00
H825   H     0.23939   0.37068   0.75083   0.00000  Uiso   1.00
H826   H     0.08989   0.37077   0.76429   0.00000  Uiso   1.00
H827   H     0.09042   0.62922   0.76204   0.00000  Uiso   1.00
C828   C     0.31088   0.45578   0.66705   0.00000  Uiso   1.00
O829   O     0.32015   0.47222   0.62275   0.00000  Uiso   1.00
O830   O     0.29528   0.41464   0.67439   0.00000  Uiso   1.00
H831   H     0.29264   0.40138   0.64014   0.00000  Uiso   1.00
C832   C     0.07174   0.45100   0.67072   0.00000  Uiso   1.00
O833   O     0.09008   0.46292   0.62385   0.00000  Uiso   1.00
O834   O     0.08135   0.41108   0.68430   0.00000  Uiso   1.00
H835   H     0.10592   0.39572   0.65253   0.00000  Uiso   1.00
H836   H     0.02057   0.54036   0.81910   0.00000  Uiso   1.00
H837   H     0.27021   0.53999   0.81950   0.00000  Uiso   1.00
H838   H     0.24022   0.41275   0.92267   0.00000  Uiso   1.00
H839   H     0.26773   0.41553   0.50007   0.00000  Uiso   1.00
C840   C     0.17412   0.55778   0.56826   0.00000  Uiso   1.00
O841   O     0.16472   0.57375   0.61365   0.00000  Uiso   1.00
O842   O     0.17524   0.58261   0.52440   0.00000  Uiso   1.00
H843   H     0.16656   0.61271   0.53576   0.00000  Uiso   1.00
H844   H     0.18724   0.43674   0.87720   0.00000  Uiso   1.00
H845   H     0.24005   0.62930   0.74862   0.00000  Uiso   1.00
C846   C     0.49976   0.57998   0.75088   0.00000  Uiso   1.00
C847   C     0.47944   0.49978   0.99134   0.00000  Uiso   1.00
C848   C     0.48460   0.48384   0.93908   0.00000  Uiso   1.00
C849   C     0.51553   0.49056   0.51325   0.00000  Uiso   1.00
C850   C     0.54785   0.45709   0.98980   0.00000  Uiso   1.00
C851   C     0.54895   0.43818   0.94103   0.00000  Uiso   1.00
C852   C     0.51861   0.45216   0.91510   0.00000  Uiso   1.00
C853   C     0.52003   0.51255   0.55841   0.00000  Uiso   1.00
C854   C     0.57301   0.45798   0.56764   0.00000  Uiso   1.00
C855   C     0.45555   0.50009   0.91180   0.00000  Uiso   1.00
C856   C     0.54056   0.64540   0.75156   0.00000  Uiso   1.00
C857   C     0.47310   0.49922   0.85226   0.00000  Uiso   1.00
C858   C     0.54028   0.35464   0.75248   0.00000  Uiso   1.00
C859   C     0.49865   0.37589   0.75473   0.00000  Uiso   1.00
C860   C     0.45632   0.35466   0.75990   0.00000  Uiso   1.00
C861   C     0.45656   0.64538   0.75895   0.00000  Uiso   1.00
C862   C     0.49900   0.62417   0.75361   0.00000  Uiso   1.00
C863   C     0.65464   0.47809   0.71102   0.00000  Uiso   1.00
C864   C     0.36899   0.47731   0.71162   0.00000  Uiso   1.00
C865   C     0.34543   0.52238   0.78834   0.00000  Uiso   1.00
C866   C     0.63095   0.52215   0.78855   0.00000  Uiso   1.00
C867   C     0.49956   0.42004   0.75140   0.00000  Uiso   1.00
C868   C     0.52680   0.49966   0.64784   0.00000  Uiso   1.00
C869   C     0.57755   0.44199   0.51648   0.00000  Uiso   1.00
C870   C     0.54365   0.49264   0.58922   0.00000  Uiso   1.00
C871   C     0.41455   0.52357   0.94078   0.00000  Uiso   1.00
C872   C     0.40447   0.53320   0.99580   0.00000  Uiso   1.00
C873   C     0.43711   0.52231   0.52075   0.00000  Uiso   1.00
H874   H     0.39139   0.53569   0.92046   0.00000  Uiso   1.00
H875   H     0.42835   0.53095   0.56329   0.00000  Uiso   1.00
H876   H     0.37247   0.55082   0.51850   0.00000  Uiso   1.00
N877   N     0.38093   0.50001   0.75001   0.00000  Uiso   1.00
N878   N     0.61906   0.49998   0.75000   0.00000  Uiso   1.00
O879   O     0.46179   0.56108   0.75000   0.00000  Uiso   1.00
O880   O     0.53823   0.56107   0.75000   0.00000  Uiso   1.00
O881   O     0.44280   0.50000   0.82681   0.00000  Uiso   1.00
O882   O     0.51924   0.49999   0.82681   0.00000  Uiso   1.00
O883   O     0.46177   0.43893   0.74999   0.00000  Uiso   1.00
O884   O     0.53821   0.43892   0.74999   0.00000  Uiso   1.00
O885   O     0.48076   0.50001   0.67319   0.00000  Uiso   1.00
O886   O     0.55720   0.50000   0.67319   0.00000  Uiso   1.00
Zn887  Zn    0.44896   0.50001   0.75000   0.00000  Uiso   1.00
Zn888  Zn    0.55104   0.49999   0.75000   0.00000  Uiso   1.00
H889   H     0.59005   0.44165   0.59161   0.00000  Uiso   1.00
H890   H     0.57272   0.37068   0.75083   0.00000  Uiso   1.00
H891   H     0.42322   0.37077   0.76429   0.00000  Uiso   1.00
H892   H     0.42375   0.62922   0.76204   0.00000  Uiso   1.00
C893   C     0.64421   0.45578   0.66705   0.00000  Uiso   1.00
O894   O     0.65349   0.47222   0.62275   0.00000  Uiso   1.00
O895   O     0.62862   0.41464   0.67439   0.00000  Uiso   1.00
H896   H     0.62598   0.40138   0.64014   0.00000  Uiso   1.00
C897   C     0.40507   0.45100   0.67072   0.00000  Uiso   1.00
O898   O     0.42341   0.46292   0.62385   0.00000  Uiso   1.00
O899   O     0.41468   0.41108   0.68430   0.00000  Uiso   1.00
H900   H     0.43925   0.39572   0.65253   0.00000  Uiso   1.00
H901   H     0.35391   0.54036   0.81910   0.00000  Uiso   1.00
H902   H     0.60354   0.53999   0.81950   0.00000  Uiso   1.00
H903   H     0.57355   0.41275   0.92267   0.00000  Uiso   1.00
H904   H     0.60106   0.41553   0.50007   0.00000  Uiso   1.00
C905   C     0.50746   0.55778   0.56826   0.00000  Uiso   1.00
O906   O     0.49806   0.57375   0.61365   0.00000  Uiso   1.00
O907   O     0.50857   0.58261   0.52440   0.00000  Uiso   1.00
H908   H     0.49990   0.61271   0.53576   0.00000  Uiso   1.00
H909   H     0.52057   0.43674   0.87720   0.00000  Uiso   1.00
H910   H     0.57338   0.62930   0.74862   0.00000  Uiso   1.00
C911   C     0.83310   0.57998   0.75088   0.00000  Uiso   1.00
C912   C     0.81277   0.49978   0.99134   0.00000  Uiso   1.00
C913   C     0.81793   0.48384   0.93908   0.00000  Uiso   1.00
C914   C     0.84886   0.49056   0.51325   0.00000  Uiso   1.00
C915   C     0.88118   0.45709   0.98980   0.00000  Uiso   1.00
C916   C     0.88228   0.43818   0.94103   0.00000  Uiso   1.00
C917   C     0.85195   0.45216   0.91510   0.00000  Uiso   1.00
C918   C     0.85336   0.51255   0.55841   0.00000  Uiso   1.00
C919   C     0.90634   0.45798   0.56764   0.00000  Uiso   1.00
C920   C     0.78888   0.50009   0.91180   0.00000  Uiso   1.00
C921   C     0.87390   0.64540   0.75156   0.00000  Uiso   1.00
C922   C     0.80644   0.49922   0.85226   0.00000  Uiso   1.00
C923   C     0.87361   0.35464   0.75248   0.00000  Uiso   1.00
C924   C     0.83199   0.37589   0.75473   0.00000  Uiso   1.00
C925   C     0.78965   0.35466   0.75990   0.00000  Uiso   1.00
C926   C     0.78989   0.64538   0.75895   0.00000  Uiso   1.00
C927   C     0.83233   0.62417   0.75361   0.00000  Uiso   1.00
C928   C     0.98798   0.47809   0.71102   0.00000  Uiso   1.00
C929   C     0.70233   0.47731   0.71162   0.00000  Uiso   1.00
C930   C     0.67877   0.52238   0.78834   0.00000  Uiso   1.00
C931   C     0.96428   0.52215   0.78855   0.00000  Uiso   1.00
C932   C     0.83289   0.42004   0.75140   0.00000  Uiso   1.00
C933   C     0.86014   0.49966   0.64784   0.00000  Uiso   1.00
C934   C     0.91089   0.44199   0.51648   0.00000  Uiso   1.00
C935   C     0.87698   0.49264   0.58922   0.00000  Uiso   1.00
C936   C     0.74788   0.52357   0.94078   0.00000  Uiso   1.00
C937   C     0.73780   0.53320   0.99580   0.00000  Uiso   1.00
C938   C     0.77044   0.52231   0.52075   0.00000  Uiso   1.00
H939   H     0.72473   0.53569   0.92046   0.00000  Uiso   1.00
H940   H     0.76169   0.53095   0.56329   0.00000  Uiso   1.00
H941   H     0.70580   0.55082   0.51850   0.00000  Uiso   1.00
N942   N     0.71426   0.50001   0.75001   0.00000  Uiso   1.00
N943   N     0.95239   0.49998   0.75000   0.00000  Uiso   1.00
O944   O     0.79512   0.56108   0.75000   0.00000  Uiso   1.00
O945   O     0.87157   0.56107   0.75000   0.00000  Uiso   1.00
O946   O     0.77613   0.50000   0.82681   0.00000  Uiso   1.00
O947   O     0.85258   0.49999   0.82681   0.00000  Uiso   1.00
O948   O     0.79510   0.43893   0.74999   0.00000  Uiso   1.00
O949   O     0.87154   0.43892   0.74999   0.00000  Uiso   1.00
O950   O     0.81409   0.50001   0.67319   0.00000  Uiso   1.00
O951   O     0.89053   0.50000   0.67319   0.00000  Uiso   1.00
Zn952  Zn    0.78229   0.50001   0.75000   0.00000  Uiso   1.00
Zn953  Zn    0.88438   0.49999   0.75000   0.00000  Uiso   1.00
H954   H     0.92339   0.44165   0.59161   0.00000  Uiso   1.00
H955   H     0.90606   0.37068   0.75083   0.00000  Uiso   1.00
H956   H     0.75656   0.37077   0.76429   0.00000  Uiso   1.00
H957   H     0.75709   0.62922   0.76204   0.00000  Uiso   1.00
C958   C     0.97755   0.45578   0.66705   0.00000  Uiso   1.00
O959   O     0.98682   0.47222   0.62275   0.00000  Uiso   1.00
O960   O     0.96195   0.41464   0.67439   0.00000  Uiso   1.00
H961   H     0.95931   0.40138   0.64014   0.00000  Uiso   1.00
C962   C     0.73840   0.45100   0.67072   0.00000  Uiso   1.00
O963   O     0.75674   0.46292   0.62385   0.00000  Uiso   1.00
O964   O     0.74801   0.41108   0.68430   0.00000  Uiso   1.00
H965   H     0.77258   0.39572   0.65253   0.00000  Uiso   1.00
H966   H     0.68724   0.54036   0.81910   0.00000  Uiso   1.00
H967   H     0.93687   0.53999   0.81950   0.00000  Uiso   1.00
H968   H     0.90688   0.41275   0.92267   0.00000  Uiso   1.00
H969   H     0.93440   0.41553   0.50007   0.00000  Uiso   1.00
C970   C     0.84079   0.55778   0.56826   0.00000  Uiso   1.00
O971   O     0.83139   0.57375   0.61365   0.00000  Uiso   1.00
O972   O     0.84191   0.58261   0.52440   0.00000  Uiso   1.00
H973   H     0.83323   0.61271   0.53576   0.00000  Uiso   1.00
H974   H     0.85390   0.43674   0.87720   0.00000  Uiso   1.00
H975   H     0.90671   0.62930   0.74862   0.00000  Uiso   1.00
C976   C     0.16643   0.91331   0.75088   0.00000  Uiso   1.00
C977   C     0.14610   0.83311   0.99134   0.00000  Uiso   1.00
C978   C     0.15126   0.81717   0.93908   0.00000  Uiso   1.00
C979   C     0.18219   0.82389   0.51325   0.00000  Uiso   1.00
C980   C     0.21452   0.79043   0.98980   0.00000  Uiso   1.00
C981   C     0.21561   0.77151   0.94103   0.00000  Uiso   1.00
C982   C     0.18528   0.78549   0.91510   0.00000  Uiso   1.00
C983   C     0.18669   0.84588   0.55841   0.00000  Uiso   1.00
C984   C     0.23967   0.79131   0.56764   0.00000  Uiso   1.00
C985   C     0.12221   0.83342   0.91180   0.00000  Uiso   1.00
C986   C     0.20723   0.97873   0.75156   0.00000  Uiso   1.00
C987   C     0.13977   0.83255   0.85226   0.00000  Uiso   1.00
C988   C     0.20694   0.68798   0.75248   0.00000  Uiso   1.00
C989   C     0.16532   0.70922   0.75473   0.00000  Uiso   1.00
C990   C     0.12299   0.68800   0.75990   0.00000  Uiso   1.00
C991   C     0.12323   0.97871   0.75895   0.00000  Uiso   1.00
C992   C     0.16566   0.95751   0.75361   0.00000  Uiso   1.00
C993   C     0.32131   0.81143   0.71102   0.00000  Uiso   1.00
C994   C     0.03566   0.81065   0.71162   0.00000  Uiso   1.00
C995   C     0.01210   0.85571   0.78834   0.00000  Uiso   1.00
C996   C     0.29761   0.85548   0.78855   0.00000  Uiso   1.00
C997   C     0.16622   0.75337   0.75140   0.00000  Uiso   1.00
C998   C     0.19347   0.83299   0.64784   0.00000  Uiso   1.00
C999   C     0.24422   0.77533   0.51648   0.00000  Uiso   1.00
C1000  C     0.21032   0.82597   0.58922   0.00000  Uiso   1.00
C1001  C     0.08122   0.85691   0.94078   0.00000  Uiso   1.00
C1002  C     0.07114   0.86653   0.99580   0.00000  Uiso   1.00
C1003  C     0.10377   0.85564   0.52075   0.00000  Uiso   1.00
H1004  H     0.05806   0.86903   0.92046   0.00000  Uiso   1.00
H1005  H     0.09502   0.86428   0.56329   0.00000  Uiso   1.00
H1006  H     0.03914   0.88415   0.51850   0.00000  Uiso   1.00
N1007  N     0.04760   0.83334   0.75001   0.00000  Uiso   1.00
N1008  N     0.28573   0.83331   0.75000   0.00000  Uiso   1.00
O1009  O     0.12846   0.89442   0.75000   0.00000  Uiso   1.00
O1010  O     0.20490   0.89441   0.75000   0.00000  Uiso   1.00
O1011  O     0.10947   0.83333   0.82681   0.00000  Uiso   1.00
O1012  O     0.18591   0.83332   0.82681   0.00000  Uiso   1.00
O1013  O     0.12843   0.77226   0.74999   0.00000  Uiso   1.00
O1014  O     0.20488   0.77225   0.74999   0.00000  Uiso   1.00
O1015  O     0.14742   0.83335   0.67319   0.00000  Uiso   1.00
O1016  O     0.22387   0.83334   0.67319   0.00000  Uiso   1.00
Zn1017 Zn    0.11562   0.83334   0.75000   0.00000  Uiso   1.00
Zn1018 Zn    0.21771   0.83333   0.75000   0.00000  Uiso   1.00
H1019  H     0.25672   0.77498   0.59161   0.00000  Uiso   1.00
H1020  H     0.23939   0.70401   0.75083   0.00000  Uiso   1.00
H1021  H     0.08989   0.70411   0.76429   0.00000  Uiso   1.00
H1022  H     0.09042   0.96255   0.76204   0.00000  Uiso   1.00
C1023  C     0.31088   0.78911   0.66705   0.00000  Uiso   1.00
O1024  O     0.32015   0.80555   0.62275   0.00000  Uiso   1.00
O1025  O     0.29528   0.74798   0.67439   0.00000  Uiso   1.00
H1026  H     0.29264   0.73471   0.64014   0.00000  Uiso   1.00
C1027  C     0.07174   0.78433   0.67072   0.00000  Uiso   1.00
O1028  O     0.09008   0.79626   0.62385   0.00000  Uiso   1.00
O1029  O     0.08135   0.74441   0.68430   0.00000  Uiso   1.00
H1030  H     0.10592   0.72905   0.65253   0.00000  Uiso   1.00
H1031  H     0.02057   0.87370   0.81910   0.00000  Uiso   1.00
H1032  H     0.27021   0.87333   0.81950   0.00000  Uiso   1.00
H1033  H     0.24022   0.74609   0.92267   0.00000  Uiso   1.00
H1034  H     0.26773   0.74886   0.50007   0.00000  Uiso   1.00
C1035  C     0.17412   0.89112   0.56826   0.00000  Uiso   1.00
O1036  O     0.16472   0.90709   0.61365   0.00000  Uiso   1.00
O1037  O     0.17524   0.91594   0.52440   0.00000  Uiso   1.00
H1038  H     0.16656   0.94604   0.53576   0.00000  Uiso   1.00
H1039  H     0.18724   0.77008   0.87720   0.00000  Uiso   1.00
H1040  H     0.24005   0.96263   0.74862   0.00000  Uiso   1.00
C1041  C     0.49976   0.91331   0.75088   0.00000  Uiso   1.00
C1042  C     0.47944   0.83311   0.99134   0.00000  Uiso   1.00
C1043  C     0.48460   0.81717   0.93908   0.00000  Uiso   1.00
C1044  C     0.51553   0.82389   0.51325   0.00000  Uiso   1.00
C1045  C     0.54785   0.79043   0.98980   0.00000  Uiso   1.00
C1046  C     0.54895   0.77151   0.94103   0.00000  Uiso   1.00
C1047  C     0.51861   0.78549   0.91510   0.00000  Uiso   1.00
C1048  C     0.52003   0.84588   0.55841   0.00000  Uiso   1.00
C1049  C     0.57301   0.79131   0.56764   0.00000  Uiso   1.00
C1050  C     0.45555   0.83342   0.91180   0.00000  Uiso   1.00
C1051  C     0.54056   0.97873   0.75156   0.00000  Uiso   1.00
C1052  C     0.47310   0.83255   0.85226   0.00000  Uiso   1.00
C1053  C     0.54028   0.68798   0.75248   0.00000  Uiso   1.00
C1054  C     0.49865   0.70922   0.75473   0.00000  Uiso   1.00
C1055  C     0.45632   0.68800   0.75990   0.00000  Uiso   1.00
C1056  C     0.45656   0.97871   0.75895   0.00000  Uiso   1.00
C1057  C     0.49900   0.95751   0.75361   0.00000  Uiso   1.00
C1058  C     0.65464   0.81143   0.71102   0.00000  Uiso   1.00
C1059  C     0.36899   0.81065   0.71162   0.00000  Uiso   1.00
C1060  C     0.34543   0.85571   0.78834   0.00000  Uiso   1.00
C1061  C     0.63095   0.85548   0.78855   0.00000  Uiso   1.00
C1062  C     0.49956   0.75337   0.75140   0.00000  Uiso   1.00
C1063  C     0.52680   0.83299   0.64784   0.00000  Uiso   1.00
C1064  C     0.57755   0.77533   0.51648   0.00000  Uiso   1.00
C1065  C     0.54365   0.82597   0.58922   0.00000  Uiso   1.00
C1066  C     0.41455   0.85691   0.94078   0.00000  Uiso   1.00
C1067  C     0.40447   0.86653   0.99580   0.00000  Uiso   1.00
C1068  C     0.43711   0.85564   0.52075   0.00000  Uiso   1.00
H1069  H     0.39139   0.86903   0.92046   0.00000  Uiso   1.00
H1070  H     0.42835   0.86428   0.56329   0.00000  Uiso   1.00
H1071  H     0.37247   0.88415   0.51850   0.00000  Uiso   1.00
N1072  N     0.38093   0.83334   0.75001   0.00000  Uiso   1.00
N1073  N     0.61906   0.83331   0.75000   0.00000  Uiso   1.00
O1074  O     0.46179   0.89442   0.75000   0.00000  Uiso   1.00
O1075  O     0.53823   0.89441   0.75000   0.00000  Uiso   1.00
O1076  O     0.44280   0.83333   0.82681   0.00000  Uiso   1.00
O1077  O     0.51924   0.83332   0.82681   0.00000  Uiso   1.00
O1078  O     0.46177   0.77226   0.74999   0.00000  Uiso   1.00
O1079  O     0.53821   0.77225   0.74999   0.00000  Uiso   1.00
O1080  O     0.48076   0.83335   0.67319   0.00000  Uiso   1.00
O1081  O     0.55720   0.83334   0.67319   0.00000  Uiso   1.00
Zn1082 Zn    0.44896   0.83334   0.75000   0.00000  Uiso   1.00
Zn1083 Zn    0.55104   0.83333   0.75000   0.00000  Uiso   1.00
H1084  H     0.59005   0.77498   0.59161   0.00000  Uiso   1.00
H1085  H     0.57272   0.70401   0.75083   0.00000  Uiso   1.00
H1086  H     0.42322   0.70411   0.76429   0.00000  Uiso   1.00
H1087  H     0.42375   0.96255   0.76204   0.00000  Uiso   1.00
C1088  C     0.64421   0.78911   0.66705   0.00000  Uiso   1.00
O1089  O     0.65349   0.80555   0.62275   0.00000  Uiso   1.00
O1090  O     0.62862   0.74798   0.67439   0.00000  Uiso   1.00
H1091  H     0.62598   0.73471   0.64014   0.00000  Uiso   1.00
C1092  C     0.40507   0.78433   0.67072   0.00000  Uiso   1.00
O1093  O     0.42341   0.79626   0.62385   0.00000  Uiso   1.00
O1094  O     0.41468   0.74441   0.68430   0.00000  Uiso   1.00
H1095  H     0.43925   0.72905   0.65253   0.00000  Uiso   1.00
H1096  H     0.35391   0.87370   0.81910   0.00000  Uiso   1.00
H1097  H     0.60354   0.87333   0.81950   0.00000  Uiso   1.00
H1098  H     0.57355   0.74609   0.92267   0.00000  Uiso   1.00
H1099  H     0.60106   0.74886   0.50007   0.00000  Uiso   1.00
C1100  C     0.50746   0.89112   0.56826   0.00000  Uiso   1.00
O1101  O     0.49806   0.90709   0.61365   0.00000  Uiso   1.00
O1102  O     0.50857   0.91594   0.52440   0.00000  Uiso   1.00
H1103  H     0.49990   0.94604   0.53576   0.00000  Uiso   1.00
H1104  H     0.52057   0.77008   0.87720   0.00000  Uiso   1.00
H1105  H     0.57338   0.96263   0.74862   0.00000  Uiso   1.00
C1106  C     0.83310   0.91331   0.75088   0.00000  Uiso   1.00
C1107  C     0.81277   0.83311   0.99134   0.00000  Uiso   1.00
C1108  C     0.81793   0.81717   0.93908   0.00000  Uiso   1.00
C1109  C     0.84886   0.82389   0.51325   0.00000  Uiso   1.00
C1110  C     0.88118   0.79043   0.98980   0.00000  Uiso   1.00
C1111  C     0.88228   0.77151   0.94103   0.00000  Uiso   1.00
C1112  C     0.85195   0.78549   0.91510   0.00000  Uiso   1.00
C1113  C     0.85336   0.84588   0.55841   0.00000  Uiso   1.00
C1114  C     0.90634   0.79131   0.56764   0.00000  Uiso   1.00
C1115  C     0.78888   0.83342   0.91180   0.00000  Uiso   1.00
C1116  C     0.87390   0.97873   0.75156   0.00000  Uiso   1.00
C1117  C     0.80644   0.83255   0.85226   0.00000  Uiso   1.00
C1118  C     0.87361   0.68798   0.75248   0.00000  Uiso   1.00
C1119  C     0.83199   0.70922   0.75473   0.00000  Uiso   1.00
C1120  C     0.78965   0.68800   0.75990   0.00000  Uiso   1.00
C1121  C     0.78989   0.97871   0.75895   0.00000  Uiso   1.00
C1122  C     0.83233   0.95751   0.75361   0.00000  Uiso   1.00
C1123  C     0.98798   0.81143   0.71102   0.00000  Uiso   1.00
C1124  C     0.70233   0.81065   0.71162   0.00000  Uiso   1.00
C1125  C     0.67877   0.85571   0.78834   0.00000  Uiso   1.00
C1126  C     0.96428   0.85548   0.78855   0.00000  Uiso   1.00
C1127  C     0.83289   0.75337   0.75140   0.00000  Uiso   1.00
C1128  C     0.86014   0.83299   0.64784   0.00000  Uiso   1.00
C1129  C     0.91089   0.77533   0.51648   0.00000  Uiso   1.00
C1130  C     0.87698   0.82597   0.58922   0.00000  Uiso   1.00
C1131  C     0.74788   0.85691   0.94078   0.00000  Uiso   1.00
C1132  C     0.73780   0.86653   0.99580   0.00000  Uiso   1.00
C1133  C     0.77044   0.85564   0.52075   0.00000  Uiso   1.00
H1134  H     0.72473   0.86903   0.92046   0.00000  Uiso   1.00
H1135  H     0.76169   0.86428   0.56329   0.00000  Uiso   1.00
H1136  H     0.70580   0.88415   0.51850   0.00000  Uiso   1.00
N1137  N     0.71426   0.83334   0.75001   0.00000  Uiso   1.00
N1138  N     0.95239   0.83331   0.75000   0.00000  Uiso   1.00
O1139  O     0.79512   0.89442   0.75000   0.00000  Uiso   1.00
O1140  O     0.87157   0.89441   0.75000   0.00000  Uiso   1.00
O1141  O     0.77613   0.83333   0.82681   0.00000  Uiso   1.00
O1142  O     0.85258   0.83332   0.82681   0.00000  Uiso   1.00
O1143  O     0.79510   0.77226   0.74999   0.00000  Uiso   1.00
O1144  O     0.87154   0.77225   0.74999   0.00000  Uiso   1.00
O1145  O     0.81409   0.83335   0.67319   0.00000  Uiso   1.00
O1146  O     0.89053   0.83334   0.67319   0.00000  Uiso   1.00
Zn1147 Zn    0.78229   0.83334   0.75000   0.00000  Uiso   1.00
Zn1148 Zn    0.88438   0.83333   0.75000   0.00000  Uiso   1.00
H1149  H     0.92339   0.77498   0.59161   0.00000  Uiso   1.00
H1150  H     0.90606   0.70401   0.75083   0.00000  Uiso   1.00
H1151  H     0.75656   0.70411   0.76429   0.00000  Uiso   1.00
H1152  H     0.75709   0.96255   0.76204   0.00000  Uiso   1.00
C1153  C     0.97755   0.78911   0.66705   0.00000  Uiso   1.00
O1154  O     0.98682   0.80555   0.62275   0.00000  Uiso   1.00
O1155  O     0.96195   0.74798   0.67439   0.00000  Uiso   1.00
H1156  H     0.95931   0.73471   0.64014   0.00000  Uiso   1.00
C1157  C     0.73840   0.78433   0.67072   0.00000  Uiso   1.00
O1158  O     0.75674   0.79626   0.62385   0.00000  Uiso   1.00
O1159  O     0.74801   0.74441   0.68430   0.00000  Uiso   1.00
H1160  H     0.77258   0.72905   0.65253   0.00000  Uiso   1.00
H1161  H     0.68724   0.87370   0.81910   0.00000  Uiso   1.00
H1162  H     0.93687   0.87333   0.81950   0.00000  Uiso   1.00
H1163  H     0.90688   0.74609   0.92267   0.00000  Uiso   1.00
H1164  H     0.93440   0.74886   0.50007   0.00000  Uiso   1.00
C1165  C     0.84079   0.89112   0.56826   0.00000  Uiso   1.00
O1166  O     0.83139   0.90709   0.61365   0.00000  Uiso   1.00
O1167  O     0.84191   0.91594   0.52440   0.00000  Uiso   1.00
H1168  H     0.83323   0.94604   0.53576   0.00000  Uiso   1.00
H1169  H     0.85390   0.77008   0.87720   0.00000  Uiso   1.00
H1170  H     0.90671   0.96263   0.74862   0.00000  Uiso   1.00
loop_
_geom_bond_atom_site_label_1
_geom_bond_atom_site_label_2
_geom_bond_distance
_geom_bond_site_symmetry_2
_ccdc_geom_bond_type
C1     C17     1.422   .     S
C1     O34     1.289   .     A
C1     O35     1.289   .     A
C2     C3      1.408   .     A
C2     C589    1.417   .     S
C2     C613    1.416   .     S
C3     C10     1.405   .     A
C3     C7      1.410   .     A
C4     C8      1.412   .     A
C4     C587    1.417   1_554 S
C4     C590    1.422   1_554 S
C5     C6      1.393   .     A
C5     C589    1.422   .     S
C5     C609    1.396   .     S
C6     C7      1.385   .     A
C6     H58     1.084   .     S
C7     H64     1.083   .     S
C8     C60     1.497   .     S
C8     C25     1.403   .     A
C9     C24     1.386   .     A
C9     C25     1.399   .     A
C9     H44     1.077   .     S
C10    C26     1.402   .     A
C10    C12     1.457   .     S
C11    H65     1.084   .     S
C11    C17     1.397   .     A
C11    C208    1.369   .     S
C12    O36     1.295   .     A
C12    O37     1.299   .     A
C13    C14     1.397   .     A
C13    H45     1.082   .     S
C13    C401    1.369   1_545 S
C14    C22     1.424   .     S
C14    C15     1.397   .     A
C15    H46     1.082   .     S
C15    C406    1.370   1_545 S
C16    H47     1.084   .     S
C16    C17     1.397   .     A
C16    C210    1.370   .     S
C18    N33     1.369   .     A
C18    C48     1.467   .     S
C18    C84     1.424   .     S
C19    N32     1.375   .     A
C19    C52     1.475   .     S
C19    C148    1.424   1_455 S
C20    H56     1.082   .     S
C20    N32     1.367   .     A
C20    C151    1.421   1_455 S
C21    H57     1.082   .     S
C21    N33     1.369   .     A
C21    C85     1.421   .     S
C22    O39     1.289   .     A
C22    O38     1.291   .     A
C23    O41     1.295   .     A
C23    C25     1.449   .     S
C23    O40     1.295   .     A
C24    H59     1.084   .     S
C24    C590    1.396   1_554 S
C26    C27     1.391   .     A
C26    H29     1.083   .     S
C27    C613    1.394   .     S
C27    H616    1.083   .     S
C28    H30     1.081   .     S
C28    C612    1.394   1_554 S
C28    C587    1.416   1_554 S
H31    C612    1.083   1_554 S
N32    Zn42    2.024   .     S
N33    Zn43    2.023   .     S
O34    Zn42    2.000   .     S
O35    Zn43    2.001   .     S
O36    Zn42    1.951   .     S
O37    Zn43    1.895   .     S
O38    Zn42    2.001   .     S
O39    Zn43    2.000   .     S
O40    Zn42    1.895   .     S
O41    Zn43    1.951   .     S
C48    O50     1.395   .     S
C48    O49     1.222   .     D
O50    H51     1.013   .     S
C52    O53     1.221   .     D
C52    O54     1.394   .     S
O54    H55     1.014   .     S
C60    O62     1.399   .     S
C60    O61     1.223   .     D
O62    H63     1.014   .     S
C66    C82     1.422   .     S
C66    O99     1.289   .     A
C66    O100    1.289   .     A
C67    C68     1.408   .     A
C67    C654    1.417   .     S
C67    C678    1.416   .     S
C68    C75     1.405   .     A
C68    C72     1.410   .     A
C69    C73     1.412   .     A
C69    C652    1.417   1_554 S
C69    C655    1.422   1_554 S
C70    C71     1.393   .     A
C70    C654    1.422   .     S
C70    C674    1.396   .     S
C71    C72     1.385   .     A
C71    H123    1.084   .     S
C72    H129    1.083   .     S
C73    C125    1.497   .     S
C73    C90     1.403   .     A
C74    C89     1.386   .     A
C74    C90     1.399   .     A
C74    H109    1.077   .     S
C75    C91     1.402   .     A
C75    C77     1.457   .     S
C76    H130    1.084   .     S
C76    C82     1.397   .     A
C76    C273    1.369   .     S
C77    O101    1.295   .     A
C77    O102    1.299   .     A
C78    C79     1.397   .     A
C78    H110    1.082   .     S
C78    C466    1.369   1_545 S
C79    C87     1.424   .     S
C79    C80     1.397   .     A
C80    H111    1.082   .     S
C80    C471    1.370   1_545 S
C81    H112    1.084   .     S
C81    C82     1.397   .     A
C81    C275    1.370   .     S
C83    N98     1.369   .     A
C83    C113    1.467   .     S
C83    C149    1.424   .     S
C84    N97     1.375   .     A
C84    C117    1.475   .     S
C85    H121    1.082   .     S
C85    N97     1.367   .     A
C86    H122    1.082   .     S
C86    N98     1.369   .     A
C86    C150    1.421   .     S
C87    O104    1.289   .     A
C87    O103    1.291   .     A
C88    O106    1.295   .     A
C88    C90     1.449   .     S
C88    O105    1.295   .     A
C89    H124    1.084   .     S
C89    C655    1.396   1_554 S
C91    C92     1.391   .     A
C91    H94     1.083   .     S
C92    C678    1.394   .     S
C92    H681    1.083   .     S
C93    H95     1.081   .     S
C93    C677    1.394   1_554 S
C93    C652    1.416   1_554 S
H96    C677    1.083   1_554 S
N97    Zn107   2.024   .     S
N98    Zn108   2.023   .     S
O99    Zn107   2.000   .     S
O100   Zn108   2.001   .     S
O101   Zn107   1.951   .     S
O102   Zn108   1.895   .     S
O103   Zn107   2.001   .     S
O104   Zn108   2.000   .     S
O105   Zn107   1.895   .     S
O106   Zn108   1.951   .     S
C113   O115    1.395   .     S
C113   O114    1.222   .     D
O115   H116    1.013   .     S
C117   O118    1.221   .     D
C117   O119    1.394   .     S
O119   H120    1.014   .     S
C125   O127    1.399   .     S
C125   O126    1.223   .     D
O127   H128    1.014   .     S
C131   C147    1.422   .     S
C131   O164    1.289   .     A
C131   O165    1.289   .     A
C132   C133    1.408   .     A
C132   C719    1.417   .     S
C132   C743    1.416   .     S
C133   C140    1.405   .     A
C133   C137    1.410   .     A
C134   C138    1.412   .     A
C134   C717    1.417   1_554 S
C134   C720    1.422   1_554 S
C135   C136    1.393   .     A
C135   C719    1.422   .     S
C135   C739    1.396   .     S
C136   C137    1.385   .     A
C136   H188    1.084   .     S
C137   H194    1.083   .     S
C138   C190    1.497   .     S
C138   C155    1.403   .     A
C139   C154    1.386   .     A
C139   C155    1.399   .     A
C139   H174    1.077   .     S
C140   C156    1.402   .     A
C140   C142    1.457   .     S
C141   H195    1.084   .     S
C141   C147    1.397   .     A
C141   C338    1.369   .     S
C142   O166    1.295   .     A
C142   O167    1.299   .     A
C143   C144    1.397   .     A
C143   H175    1.082   .     S
C143   C531    1.369   1_545 S
C144   C152    1.424   .     S
C144   C145    1.397   .     A
C145   H176    1.082   .     S
C145   C536    1.370   1_545 S
C146   H177    1.084   .     S
C146   C147    1.397   .     A
C146   C340    1.370   .     S
C148   N163    1.369   .     A
C148   C178    1.467   .     S
C148   C19     1.424   1_655 S
C149   N162    1.375   .     A
C149   C182    1.475   .     S
C150   H186    1.082   .     S
C150   N162    1.367   .     A
C151   H187    1.082   .     S
C151   N163    1.369   .     A
C151   C20     1.421   1_655 S
C152   O169    1.289   .     A
C152   O168    1.291   .     A
C153   O171    1.295   .     A
C153   C155    1.449   .     S
C153   O170    1.295   .     A
C154   H189    1.084   .     S
C154   C720    1.396   1_554 S
C156   C157    1.391   .     A
C156   H159    1.083   .     S
C157   C743    1.394   .     S
C157   H746    1.083   .     S
C158   H160    1.081   .     S
C158   C742    1.394   1_554 S
C158   C717    1.416   1_554 S
H161   C742    1.083   1_554 S
N162   Zn172   2.024   .     S
N163   Zn173   2.023   .     S
O164   Zn172   2.000   .     S
O165   Zn173   2.001   .     S
O166   Zn172   1.951   .     S
O167   Zn173   1.895   .     S
O168   Zn172   2.001   .     S
O169   Zn173   2.000   .     S
O170   Zn172   1.895   .     S
O171   Zn173   1.951   .     S
C178   O180    1.395   .     S
C178   O179    1.222   .     D
O180   H181    1.013   .     S
C182   O183    1.221   .     D
C182   O184    1.394   .     S
O184   H185    1.014   .     S
C190   O192    1.399   .     S
C190   O191    1.223   .     D
O192   H193    1.014   .     S
C196   C212    1.422   .     S
C196   O229    1.289   .     A
C196   O230    1.289   .     A
C197   C198    1.408   .     A
C197   C784    1.417   .     S
C197   C808    1.416   .     S
C198   C205    1.405   .     A
C198   C202    1.410   .     A
C199   C203    1.412   .     A
C199   C782    1.417   1_554 S
C199   C785    1.422   1_554 S
C200   C201    1.393   .     A
C200   C784    1.422   .     S
C200   C804    1.396   .     S
C201   C202    1.385   .     A
C201   H253    1.084   .     S
C202   H259    1.083   .     S
C203   C255    1.497   .     S
C203   C220    1.403   .     A
C204   C219    1.386   .     A
C204   C220    1.399   .     A
C204   H239    1.077   .     S
C205   C221    1.402   .     A
C205   C207    1.457   .     S
C206   H260    1.084   .     S
C206   C212    1.397   .     A
C206   C403    1.369   .     S
C207   O231    1.295   .     A
C207   O232    1.299   .     A
C208   C209    1.397   .     A
C208   H240    1.082   .     S
C209   C217    1.424   .     S
C209   C210    1.397   .     A
C210   H241    1.082   .     S
C211   H242    1.084   .     S
C211   C212    1.397   .     A
C211   C405    1.370   .     S
C213   N228    1.369   .     A
C213   C243    1.467   .     S
C213   C279    1.424   .     S
C214   N227    1.375   .     A
C214   C247    1.475   .     S
C214   C343    1.424   1_455 S
C215   H251    1.082   .     S
C215   N227    1.367   .     A
C215   C346    1.421   1_455 S
C216   H252    1.082   .     S
C216   N228    1.369   .     A
C216   C280    1.421   .     S
C217   O234    1.289   .     A
C217   O233    1.291   .     A
C218   O236    1.295   .     A
C218   C220    1.449   .     S
C218   O235    1.295   .     A
C219   H254    1.084   .     S
C219   C785    1.396   1_554 S
C221   C222    1.391   .     A
C221   H224    1.083   .     S
C222   C808    1.394   .     S
C222   H811    1.083   .     S
C223   H225    1.081   .     S
C223   C807    1.394   1_554 S
C223   C782    1.416   1_554 S
H226   C807    1.083   1_554 S
N227   Zn237   2.024   .     S
N228   Zn238   2.023   .     S
O229   Zn237   2.000   .     S
O230   Zn238   2.001   .     S
O231   Zn237   1.951   .     S
O232   Zn238   1.895   .     S
O233   Zn237   2.001   .     S
O234   Zn238   2.000   .     S
O235   Zn237   1.895   .     S
O236   Zn238   1.951   .     S
C243   O245    1.395   .     S
C243   O244    1.222   .     D
O245   H246    1.013   .     S
C247   O248    1.221   .     D
C247   O249    1.394   .     S
O249   H250    1.014   .     S
C255   O257    1.399   .     S
C255   O256    1.223   .     D
O257   H258    1.014   .     S
C261   C277    1.422   .     S
C261   O294    1.289   .     A
C261   O295    1.289   .     A
C262   C263    1.408   .     A
C262   C849    1.417   .     S
C262   C873    1.416   .     S
C263   C270    1.405   .     A
C263   C267    1.410   .     A
C264   C268    1.412   .     A
C264   C847    1.417   1_554 S
C264   C850    1.422   1_554 S
C265   C266    1.393   .     A
C265   C849    1.422   .     S
C265   C869    1.396   .     S
C266   C267    1.385   .     A
C266   H318    1.084   .     S
C267   H324    1.083   .     S
C268   C320    1.497   .     S
C268   C285    1.403   .     A
C269   C284    1.386   .     A
C269   C285    1.399   .     A
C269   H304    1.077   .     S
C270   C286    1.402   .     A
C270   C272    1.457   .     S
C271   H325    1.084   .     S
C271   C277    1.397   .     A
C271   C468    1.369   .     S
C272   O296    1.295   .     A
C272   O297    1.299   .     A
C273   C274    1.397   .     A
C273   H305    1.082   .     S
C274   C282    1.424   .     S
C274   C275    1.397   .     A
C275   H306    1.082   .     S
C276   H307    1.084   .     S
C276   C277    1.397   .     A
C276   C470    1.370   .     S
C278   N293    1.369   .     A
C278   C308    1.467   .     S
C278   C344    1.424   .     S
C279   N292    1.375   .     A
C279   C312    1.475   .     S
C280   H316    1.082   .     S
C280   N292    1.367   .     A
C281   H317    1.082   .     S
C281   N293    1.369   .     A
C281   C345    1.421   .     S
C282   O299    1.289   .     A
C282   O298    1.291   .     A
C283   O301    1.295   .     A
C283   C285    1.449   .     S
C283   O300    1.295   .     A
C284   H319    1.084   .     S
C284   C850    1.396   1_554 S
C286   C287    1.391   .     A
C286   H289    1.083   .     S
C287   C873    1.394   .     S
C287   H876    1.083   .     S
C288   H290    1.081   .     S
C288   C872    1.394   1_554 S
C288   C847    1.416   1_554 S
H291   C872    1.083   1_554 S
N292   Zn302   2.024   .     S
N293   Zn303   2.023   .     S
O294   Zn302   2.000   .     S
O295   Zn303   2.001   .     S
O296   Zn302   1.951   .     S
O297   Zn303   1.895   .     S
O298   Zn302   2.001   .     S
O299   Zn303   2.000   .     S
O300   Zn302   1.895   .     S
O301   Zn303   1.951   .     S
C308   O310    1.395   .     S
C308   O309    1.222   .     D
O310   H311    1.013   .     S
C312   O313    1.221   .     D
C312   O314    1.394   .     S
O314   H315    1.014   .     S
C320   O322    1.399   .     S
C320   O321    1.223   .     D
O322   H323    1.014   .     S
C326   C342    1.422   .     S
C326   O359    1.289   .     A
C326   O360    1.289   .     A
C327   C328    1.408   .     A
C327   C914    1.417   .     S
C327   C938    1.416   .     S
C328   C335    1.405   .     A
C328   C332    1.410   .     A
C329   C333    1.412   .     A
C329   C912    1.417   1_554 S
C329   C915    1.422   1_554 S
C330   C331    1.393   .     A
C330   C914    1.422   .     S
C330   C934    1.396   .     S
C331   C332    1.385   .     A
C331   H383    1.084   .     S
C332   H389    1.083   .     S
C333   C385    1.497   .     S
C333   C350    1.403   .     A
C334   C349    1.386   .     A
C334   C350    1.399   .     A
C334   H369    1.077   .     S
C335   C351    1.402   .     A
C335   C337    1.457   .     S
C336   H390    1.084   .     S
C336   C342    1.397   .     A
C336   C533    1.369   .     S
C337   O361    1.295   .     A
C337   O362    1.299   .     A
C338   C339    1.397   .     A
C338   H370    1.082   .     S
C339   C347    1.424   .     S
C339   C340    1.397   .     A
C340   H371    1.082   .     S
C341   H372    1.084   .     S
C341   C342    1.397   .     A
C341   C535    1.370   .     S
C343   N358    1.369   .     A
C343   C373    1.467   .     S
C343   C214    1.424   1_655 S
C344   N357    1.375   .     A
C344   C377    1.475   .     S
C345   H381    1.082   .     S
C345   N357    1.367   .     A
C346   H382    1.082   .     S
C346   N358    1.369   .     A
C346   C215    1.421   1_655 S
C347   O364    1.289   .     A
C347   O363    1.291   .     A
C348   O366    1.295   .     A
C348   C350    1.449   .     S
C348   O365    1.295   .     A
C349   H384    1.084   .     S
C349   C915    1.396   1_554 S
C351   C352    1.391   .     A
C351   H354    1.083   .     S
C352   C938    1.394   .     S
C352   H941    1.083   .     S
C353   H355    1.081   .     S
C353   C937    1.394   1_554 S
C353   C912    1.416   1_554 S
H356   C937    1.083   1_554 S
N357   Zn367   2.024   .     S
N358   Zn368   2.023   .     S
O359   Zn367   2.000   .     S
O360   Zn368   2.001   .     S
O361   Zn367   1.951   .     S
O362   Zn368   1.895   .     S
O363   Zn367   2.001   .     S
O364   Zn368   2.000   .     S
O365   Zn367   1.895   .     S
O366   Zn368   1.951   .     S
C373   O375    1.395   .     S
C373   O374    1.222   .     D
O375   H376    1.013   .     S
C377   O378    1.221   .     D
C377   O379    1.394   .     S
O379   H380    1.014   .     S
C385   O387    1.399   .     S
C385   O386    1.223   .     D
O387   H388    1.014   .     S
C391   C407    1.422   .     S
C391   O424    1.289   .     A
C391   O425    1.289   .     A
C392   C393    1.408   .     A
C392   C979    1.417   .     S
C392   C1003   1.416   .     S
C393   C400    1.405   .     A
C393   C397    1.410   .     A
C394   C398    1.412   .     A
C394   C977    1.417   1_554 S
C394   C980    1.422   1_554 S
C395   C396    1.393   .     A
C395   C979    1.422   .     S
C395   C999    1.396   .     S
C396   C397    1.385   .     A
C396   H448    1.084   .     S
C397   H454    1.083   .     S
C398   C450    1.497   .     S
C398   C415    1.403   .     A
C399   C414    1.386   .     A
C399   C415    1.399   .     A
C399   H434    1.077   .     S
C400   C416    1.402   .     A
C400   C402    1.457   .     S
C401   H455    1.084   .     S
C401   C407    1.397   .     A
C401   C13     1.369   1_565 S
C402   O426    1.295   .     A
C402   O427    1.299   .     A
C403   C404    1.397   .     A
C403   H435    1.082   .     S
C404   C412    1.424   .     S
C404   C405    1.397   .     A
C405   H436    1.082   .     S
C406   H437    1.084   .     S
C406   C407    1.397   .     A
C406   C15     1.370   1_565 S
C408   N423    1.369   .     A
C408   C438    1.467   .     S
C408   C474    1.424   .     S
C409   N422    1.375   .     A
C409   C442    1.475   .     S
C409   C538    1.424   1_455 S
C410   H446    1.082   .     S
C410   N422    1.367   .     A
C410   C541    1.421   1_455 S
C411   H447    1.082   .     S
C411   N423    1.369   .     A
C411   C475    1.421   .     S
C412   O429    1.289   .     A
C412   O428    1.291   .     A
C413   O431    1.295   .     A
C413   C415    1.449   .     S
C413   O430    1.295   .     A
C414   H449    1.084   .     S
C414   C980    1.396   1_554 S
C416   C417    1.391   .     A
C416   H419    1.083   .     S
C417   C1003   1.394   .     S
C417   H1006   1.083   .     S
C418   H420    1.081   .     S
C418   C1002   1.394   1_554 S
C418   C977    1.416   1_554 S
H421   C1002   1.083   1_554 S
N422   Zn432   2.024   .     S
N423   Zn433   2.023   .     S
O424   Zn432   2.000   .     S
O425   Zn433   2.001   .     S
O426   Zn432   1.951   .     S
O427   Zn433   1.895   .     S
O428   Zn432   2.001   .     S
O429   Zn433   2.000   .     S
O430   Zn432   1.895   .     S
O431   Zn433   1.951   .     S
C438   O440    1.395   .     S
C438   O439    1.222   .     D
O440   H441    1.013   .     S
C442   O443    1.221   .     D
C442   O444    1.394   .     S
O444   H445    1.014   .     S
C450   O452    1.399   .     S
C450   O451    1.223   .     D
O452   H453    1.014   .     S
C456   C472    1.422   .     S
C456   O489    1.289   .     A
C456   O490    1.289   .     A
C457   C458    1.408   .     A
C457   C1044   1.417   .     S
C457   C1068   1.416   .     S
C458   C465    1.405   .     A
C458   C462    1.410   .     A
C459   C463    1.412   .     A
C459   C1042   1.417   1_554 S
C459   C1045   1.422   1_554 S
C460   C461    1.393   .     A
C460   C1044   1.422   .     S
C460   C1064   1.396   .     S
C461   C462    1.385   .     A
C461   H513    1.084   .     S
C462   H519    1.083   .     S
C463   C515    1.497   .     S
C463   C480    1.403   .     A
C464   C479    1.386   .     A
C464   C480    1.399   .     A
C464   H499    1.077   .     S
C465   C481    1.402   .     A
C465   C467    1.457   .     S
C466   H520    1.084   .     S
C466   C472    1.397   .     A
C466   C78     1.369   1_565 S
C467   O491    1.295   .     A
C467   O492    1.299   .     A
C468   C469    1.397   .     A
C468   H500    1.082   .     S
C469   C477    1.424   .     S
C469   C470    1.397   .     A
C470   H501    1.082   .     S
C471   H502    1.084   .     S
C471   C472    1.397   .     A
C471   C80     1.370   1_565 S
C473   N488    1.369   .     A
C473   C503    1.467   .     S
C473   C539    1.424   .     S
C474   N487    1.375   .     A
C474   C507    1.475   .     S
C475   H511    1.082   .     S
C475   N487    1.367   .     A
C476   H512    1.082   .     S
C476   N488    1.369   .     A
C476   C540    1.421   .     S
C477   O494    1.289   .     A
C477   O493    1.291   .     A
C478   O496    1.295   .     A
C478   C480    1.449   .     S
C478   O495    1.295   .     A
C479   H514    1.084   .     S
C479   C1045   1.396   1_554 S
C481   C482    1.391   .     A
C481   H484    1.083   .     S
C482   C1068   1.394   .     S
C482   H1071   1.083   .     S
C483   H485    1.081   .     S
C483   C1067   1.394   1_554 S
C483   C1042   1.416   1_554 S
H486   C1067   1.083   1_554 S
N487   Zn497   2.024   .     S
N488   Zn498   2.023   .     S
O489   Zn497   2.000   .     S
O490   Zn498   2.001   .     S
O491   Zn497   1.951   .     S
O492   Zn498   1.895   .     S
O493   Zn497   2.001   .     S
O494   Zn498   2.000   .     S
O495   Zn497   1.895   .     S
O496   Zn498   1.951   .     S
C503   O505    1.395   .     S
C503   O504    1.222   .     D
O505   H506    1.013   .     S
C507   O508    1.221   .     D
C507   O509    1.394   .     S
O509   H510    1.014   .     S
C515   O517    1.399   .     S
C515   O516    1.223   .     D
O517   H518    1.014   .     S
C521   C537    1.422   .     S
C521   O554    1.289   .     A
C521   O555    1.289   .     A
C522   C523    1.408   .     A
C522   C1109   1.417   .     S
C522   C1133   1.416   .     S
C523   C530    1.405   .     A
C523   C527    1.410   .     A
C524   C528    1.412   .     A
C524   C1107   1.417   1_554 S
C524   C1110   1.422   1_554 S
C525   C526    1.393   .     A
C525   C1109   1.422   .     S
C525   C1129   1.396   .     S
C526   C527    1.385   .     A
C526   H578    1.084   .     S
C527   H584    1.083   .     S
C528   C580    1.497   .     S
C528   C545    1.403   .     A
C529   C544    1.386   .     A
C529   C545    1.399   .     A
C529   H564    1.077   .     S
C530   C546    1.402   .     A
C530   C532    1.457   .     S
C531   H585    1.084   .     S
C531   C537    1.397   .     A
C531   C143    1.369   1_565 S
C532   O556    1.295   .     A
C532   O557    1.299   .     A
C533   C534    1.397   .     A
C533   H565    1.082   .     S
C534   C542    1.424   .     S
C534   C535    1.397   .     A
C535   H566    1.082   .     S
C536   H567    1.084   .     S
C536   C537    1.397   .     A
C536   C145    1.370   1_565 S
C538   N553    1.369   .     A
C538   C568    1.467   .     S
C538   C409    1.424   1_655 S
C539   N552    1.375   .     A
C539   C572    1.475   .     S
C540   H576    1.082   .     S
C540   N552    1.367   .     A
C541   H577    1.082   .     S
C541   N553    1.369   .     A
C541   C410    1.421   1_655 S
C542   O559    1.289   .     A
C542   O558    1.291   .     A
C543   O561    1.295   .     A
C543   C545    1.449   .     S
C543   O560    1.295   .     A
C544   H579    1.084   .     S
C544   C1110   1.396   1_554 S
C546   C547    1.391   .     A
C546   H549    1.083   .     S
C547   C1133   1.394   .     S
C547   H1136   1.083   .     S
C548   H550    1.081   .     S
C548   C1132   1.394   1_554 S
C548   C1107   1.416   1_554 S
H551   C1132   1.083   1_554 S
N552   Zn562   2.024   .     S
N553   Zn563   2.023   .     S
O554   Zn562   2.000   .     S
O555   Zn563   2.001   .     S
O556   Zn562   1.951   .     S
O557   Zn563   1.895   .     S
O558   Zn562   2.001   .     S
O559   Zn563   2.000   .     S
O560   Zn562   1.895   .     S
O561   Zn563   1.951   .     S
C568   O570    1.395   .     S
C568   O569    1.222   .     D
O570   H571    1.013   .     S
C572   O573    1.221   .     D
C572   O574    1.394   .     S
O574   H575    1.014   .     S
C580   O582    1.399   .     S
C580   O581    1.223   .     D
O582   H583    1.014   .     S
C586   C602    1.422   .     S
C586   O619    1.289   .     A
C586   O620    1.289   .     A
C587   C588    1.408   .     A
C587   C4      1.417   1_556 S
C587   C28     1.416   1_556 S
C588   C595    1.405   .     A
C588   C592    1.410   .     A
C589   C593    1.412   .     A
C590   C591    1.393   .     A
C590   C4      1.422   1_556 S
C590   C24     1.396   1_556 S
C591   C592    1.385   .     A
C591   H643    1.084   .     S
C592   H649    1.083   .     S
C593   C645    1.497   .     S
C593   C610    1.403   .     A
C594   C609    1.386   .     A
C594   C610    1.399   .     A
C594   H629    1.077   .     S
C595   C611    1.402   .     A
C595   C597    1.457   .     S
C596   H650    1.084   .     S
C596   C602    1.397   .     A
C596   C793    1.369   .     S
C597   O621    1.295   .     A
C597   O622    1.299   .     A
C598   C599    1.397   .     A
C598   H630    1.082   .     S
C598   C986    1.369   1_545 S
C599   C607    1.424   .     S
C599   C600    1.397   .     A
C600   H631    1.082   .     S
C600   C991    1.370   1_545 S
C601   H632    1.084   .     S
C601   C602    1.397   .     A
C601   C795    1.370   .     S
C603   N618    1.369   .     A
C603   C633    1.467   .     S
C603   C669    1.424   .     S
C604   N617    1.375   .     A
C604   C637    1.475   .     S
C604   C733    1.424   1_455 S
C605   H641    1.082   .     S
C605   N617    1.367   .     A
C605   C736    1.421   1_455 S
C606   H642    1.082   .     S
C606   N618    1.369   .     A
C606   C670    1.421   .     S
C607   O624    1.289   .     A
C607   O623    1.291   .     A
C608   O626    1.295   .     A
C608   C610    1.449   .     S
C608   O625    1.295   .     A
C609   H644    1.084   .     S
C611   C612    1.391   .     A
C611   H614    1.083   .     S
C612   C28     1.394   1_556 S
C612   H31     1.083   1_556 S
C613   H615    1.081   .     S
N617   Zn627   2.024   .     S
N618   Zn628   2.023   .     S
O619   Zn627   2.000   .     S
O620   Zn628   2.001   .     S
O621   Zn627   1.951   .     S
O622   Zn628   1.895   .     S
O623   Zn627   2.001   .     S
O624   Zn628   2.000   .     S
O625   Zn627   1.895   .     S
O626   Zn628   1.951   .     S
C633   O635    1.395   .     S
C633   O634    1.222   .     D
O635   H636    1.013   .     S
C637   O638    1.221   .     D
C637   O639    1.394   .     S
O639   H640    1.014   .     S
C645   O647    1.399   .     S
C645   O646    1.223   .     D
O647   H648    1.014   .     S
C651   C667    1.422   .     S
C651   O684    1.289   .     A
C651   O685    1.289   .     A
C652   C653    1.408   .     A
C652   C69     1.417   1_556 S
C652   C93     1.416   1_556 S
C653   C660    1.405   .     A
C653   C657    1.410   .     A
C654   C658    1.412   .     A
C655   C656    1.393   .     A
C655   C69     1.422   1_556 S
C655   C89     1.396   1_556 S
C656   C657    1.385   .     A
C656   H708    1.084   .     S
C657   H714    1.083   .     S
C658   C710    1.497   .     S
C658   C675    1.403   .     A
C659   C674    1.386   .     A
C659   C675    1.399   .     A
C659   H694    1.077   .     S
C660   C676    1.402   .     A
C660   C662    1.457   .     S
C661   H715    1.084   .     S
C661   C667    1.397   .     A
C661   C858    1.369   .     S
C662   O686    1.295   .     A
C662   O687    1.299   .     A
C663   C664    1.397   .     A
C663   H695    1.082   .     S
C663   C1051   1.369   1_545 S
C664   C672    1.424   .     S
C664   C665    1.397   .     A
C665   H696    1.082   .     S
C665   C1056   1.370   1_545 S
C666   H697    1.084   .     S
C666   C667    1.397   .     A
C666   C860    1.370   .     S
C668   N683    1.369   .     A
C668   C698    1.467   .     S
C668   C734    1.424   .     S
C669   N682    1.375   .     A
C669   C702    1.475   .     S
C670   H706    1.082   .     S
C670   N682    1.367   .     A
C671   H707    1.082   .     S
C671   N683    1.369   .     A
C671   C735    1.421   .     S
C672   O689    1.289   .     A
C672   O688    1.291   .     A
C673   O691    1.295   .     A
C673   C675    1.449   .     S
C673   O690    1.295   .     A
C674   H709    1.084   .     S
C676   C677    1.391   .     A
C676   H679    1.083   .     S
C677   C93     1.394   1_556 S
C677   H96     1.083   1_556 S
C678   H680    1.081   .     S
N682   Zn692   2.024   .     S
N683   Zn693   2.023   .     S
O684   Zn692   2.000   .     S
O685   Zn693   2.001   .     S
O686   Zn692   1.951   .     S
O687   Zn693   1.895   .     S
O688   Zn692   2.001   .     S
O689   Zn693   2.000   .     S
O690   Zn692   1.895   .     S
O691   Zn693   1.951   .     S
C698   O700    1.395   .     S
C698   O699    1.222   .     D
O700   H701    1.013   .     S
C702   O703    1.221   .     D
C702   O704    1.394   .     S
O704   H705    1.014   .     S
C710   O712    1.399   .     S
C710   O711    1.223   .     D
O712   H713    1.014   .     S
C716   C732    1.422   .     S
C716   O749    1.289   .     A
C716   O750    1.289   .     A
C717   C718    1.408   .     A
C717   C134    1.417   1_556 S
C717   C158    1.416   1_556 S
C718   C725    1.405   .     A
C718   C722    1.410   .     A
C719   C723    1.412   .     A
C720   C721    1.393   .     A
C720   C134    1.422   1_556 S
C720   C154    1.396   1_556 S
C721   C722    1.385   .     A
C721   H773    1.084   .     S
C722   H779    1.083   .     S
C723   C775    1.497   .     S
C723   C740    1.403   .     A
C724   C739    1.386   .     A
C724   C740    1.399   .     A
C724   H759    1.077   .     S
C725   C741    1.402   .     A
C725   C727    1.457   .     S
C726   H780    1.084   .     S
C726   C732    1.397   .     A
C726   C923    1.369   .     S
C727   O751    1.295   .     A
C727   O752    1.299   .     A
C728   C729    1.397   .     A
C728   H760    1.082   .     S
C728   C1116   1.369   1_545 S
C729   C737    1.424   .     S
C729   C730    1.397   .     A
C730   H761    1.082   .     S
C730   C1121   1.370   1_545 S
C731   H762    1.084   .     S
C731   C732    1.397   .     A
C731   C925    1.370   .     S
C733   N748    1.369   .     A
C733   C763    1.467   .     S
C733   C604    1.424   1_655 S
C734   N747    1.375   .     A
C734   C767    1.475   .     S
C735   H771    1.082   .     S
C735   N747    1.367   .     A
C736   H772    1.082   .     S
C736   N748    1.369   .     A
C736   C605    1.421   1_655 S
C737   O754    1.289   .     A
C737   O753    1.291   .     A
C738   O756    1.295   .     A
C738   C740    1.449   .     S
C738   O755    1.295   .     A
C739   H774    1.084   .     S
C741   C742    1.391   .     A
C741   H744    1.083   .     S
C742   C158    1.394   1_556 S
C742   H161    1.083   1_556 S
C743   H745    1.081   .     S
N747   Zn757   2.024   .     S
N748   Zn758   2.023   .     S
O749   Zn757   2.000   .     S
O750   Zn758   2.001   .     S
O751   Zn757   1.951   .     S
O752   Zn758   1.895   .     S
O753   Zn757   2.001   .     S
O754   Zn758   2.000   .     S
O755   Zn757   1.895   .     S
O756   Zn758   1.951   .     S
C763   O765    1.395   .     S
C763   O764    1.222   .     D
O765   H766    1.013   .     S
C767   O768    1.221   .     D
C767   O769    1.394   .     S
O769   H770    1.014   .     S
C775   O777    1.399   .     S
C775   O776    1.223   .     D
O777   H778    1.014   .     S
C781   C797    1.422   .     S
C781   O814    1.289   .     A
C781   O815    1.289   .     A
C782   C783    1.408   .     A
C782   C199    1.417   1_556 S
C782   C223    1.416   1_556 S
C783   C790    1.405   .     A
C783   C787    1.410   .     A
C784   C788    1.412   .     A
C785   C786    1.393   .     A
C785   C199    1.422   1_556 S
C785   C219    1.396   1_556 S
C786   C787    1.385   .     A
C786   H838    1.084   .     S
C787   H844    1.083   .     S
C788   C840    1.497   .     S
C788   C805    1.403   .     A
C789   C804    1.386   .     A
C789   C805    1.399   .     A
C789   H824    1.077   .     S
C790   C806    1.402   .     A
C790   C792    1.457   .     S
C791   H845    1.084   .     S
C791   C797    1.397   .     A
C791   C988    1.369   .     S
C792   O816    1.295   .     A
C792   O817    1.299   .     A
C793   C794    1.397   .     A
C793   H825    1.082   .     S
C794   C802    1.424   .     S
C794   C795    1.397   .     A
C795   H826    1.082   .     S
C796   H827    1.084   .     S
C796   C797    1.397   .     A
C796   C990    1.370   .     S
C798   N813    1.369   .     A
C798   C828    1.467   .     S
C798   C864    1.424   .     S
C799   N812    1.375   .     A
C799   C832    1.475   .     S
C799   C928    1.424   1_455 S
C800   H836    1.082   .     S
C800   N812    1.367   .     A
C800   C931    1.421   1_455 S
C801   H837    1.082   .     S
C801   N813    1.369   .     A
C801   C865    1.421   .     S
C802   O819    1.289   .     A
C802   O818    1.291   .     A
C803   O821    1.295   .     A
C803   C805    1.449   .     S
C803   O820    1.295   .     A
C804   H839    1.084   .     S
C806   C807    1.391   .     A
C806   H809    1.083   .     S
C807   C223    1.394   1_556 S
C807   H226    1.083   1_556 S
C808   H810    1.081   .     S
N812   Zn822   2.024   .     S
N813   Zn823   2.023   .     S
O814   Zn822   2.000   .     S
O815   Zn823   2.001   .     S
O816   Zn822   1.951   .     S
O817   Zn823   1.895   .     S
O818   Zn822   2.001   .     S
O819   Zn823   2.000   .     S
O820   Zn822   1.895   .     S
O821   Zn823   1.951   .     S
C828   O830    1.395   .     S
C828   O829    1.222   .     D
O830   H831    1.013   .     S
C832   O833    1.221   .     D
C832   O834    1.394   .     S
O834   H835    1.014   .     S
C840   O842    1.399   .     S
C840   O841    1.223   .     D
O842   H843    1.014   .     S
C846   C862    1.422   .     S
C846   O879    1.289   .     A
C846   O880    1.289   .     A
C847   C848    1.408   .     A
C847   C264    1.417   1_556 S
C847   C288    1.416   1_556 S
C848   C855    1.405   .     A
C848   C852    1.410   .     A
C849   C853    1.412   .     A
C850   C851    1.393   .     A
C850   C264    1.422   1_556 S
C850   C284    1.396   1_556 S
C851   C852    1.385   .     A
C851   H903    1.084   .     S
C852   H909    1.083   .     S
C853   C905    1.497   .     S
C853   C870    1.403   .     A
C854   C869    1.386   .     A
C854   C870    1.399   .     A
C854   H889    1.077   .     S
C855   C871    1.402   .     A
C855   C857    1.457   .     S
C856   H910    1.084   .     S
C856   C862    1.397   .     A
C856   C1053   1.369   .     S
C857   O881    1.295   .     A
C857   O882    1.299   .     A
C858   C859    1.397   .     A
C858   H890    1.082   .     S
C859   C867    1.424   .     S
C859   C860    1.397   .     A
C860   H891    1.082   .     S
C861   H892    1.084   .     S
C861   C862    1.397   .     A
C861   C1055   1.370   .     S
C863   N878    1.369   .     A
C863   C893    1.467   .     S
C863   C929    1.424   .     S
C864   N877    1.375   .     A
C864   C897    1.475   .     S
C865   H901    1.082   .     S
C865   N877    1.367   .     A
C866   H902    1.082   .     S
C866   N878    1.369   .     A
C866   C930    1.421   .     S
C867   O884    1.289   .     A
C867   O883    1.291   .     A
C868   O886    1.295   .     A
C868   C870    1.449   .     S
C868   O885    1.295   .     A
C869   H904    1.084   .     S
C871   C872    1.391   .     A
C871   H874    1.083   .     S
C872   C288    1.394   1_556 S
C872   H291    1.083   1_556 S
C873   H875    1.081   .     S
N877   Zn887   2.024   .     S
N878   Zn888   2.023   .     S
O879   Zn887   2.000   .     S
O880   Zn888   2.001   .     S
O881   Zn887   1.951   .     S
O882   Zn888   1.895   .     S
O883   Zn887   2.001   .     S
O884   Zn888   2.000   .     S
O885   Zn887   1.895   .     S
O886   Zn888   1.951   .     S
C893   O895    1.395   .     S
C893   O894    1.222   .     D
O895   H896    1.013   .     S
C897   O898    1.221   .     D
C897   O899    1.394   .     S
O899   H900    1.014   .     S
C905   O907    1.399   .     S
C905   O906    1.223   .     D
O907   H908    1.014   .     S
C911   C927    1.422   .     S
C911   O944    1.289   .     A
C911   O945    1.289   .     A
C912   C913    1.408   .     A
C912   C329    1.417   1_556 S
C912   C353    1.416   1_556 S
C913   C920    1.405   .     A
C913   C917    1.410   .     A
C914   C918    1.412   .     A
C915   C916    1.393   .     A
C915   C329    1.422   1_556 S
C915   C349    1.396   1_556 S
C916   C917    1.385   .     A
C916   H968    1.084   .     S
C917   H974    1.083   .     S
C918   C970    1.497   .     S
C918   C935    1.403   .     A
C919   C934    1.386   .     A
C919   C935    1.399   .     A
C919   H954    1.077   .     S
C920   C936    1.402   .     A
C920   C922    1.457   .     S
C921   H975    1.084   .     S
C921   C927    1.397   .     A
C921   C1118   1.369   .     S
C922   O946    1.295   .     A
C922   O947    1.299   .     A
C923   C924    1.397   .     A
C923   H955    1.082   .     S
C924   C932    1.424   .     S
C924   C925    1.397   .     A
C925   H956    1.082   .     S
C926   H957    1.084   .     S
C926   C927    1.397   .     A
C926   C1120   1.370   .     S
C928   N943    1.369   .     A
C928   C958    1.467   .     S
C928   C799    1.424   1_655 S
C929   N942    1.375   .     A
C929   C962    1.475   .     S
C930   H966    1.082   .     S
C930   N942    1.367   .     A
C931   H967    1.082   .     S
C931   N943    1.369   .     A
C931   C800    1.421   1_655 S
C932   O949    1.289   .     A
C932   O948    1.291   .     A
C933   O951    1.295   .     A
C933   C935    1.449   .     S
C933   O950    1.295   .     A
C934   H969    1.084   .     S
C936   C937    1.391   .     A
C936   H939    1.083   .     S
C937   C353    1.394   1_556 S
C937   H356    1.083   1_556 S
C938   H940    1.081   .     S
N942   Zn952   2.024   .     S
N943   Zn953   2.023   .     S
O944   Zn952   2.000   .     S
O945   Zn953   2.001   .     S
O946   Zn952   1.951   .     S
O947   Zn953   1.895   .     S
O948   Zn952   2.001   .     S
O949   Zn953   2.000   .     S
O950   Zn952   1.895   .     S
O951   Zn953   1.951   .     S
C958   O960    1.395   .     S
C958   O959    1.222   .     D
O960   H961    1.013   .     S
C962   O963    1.221   .     D
C962   O964    1.394   .     S
O964   H965    1.014   .     S
C970   O972    1.399   .     S
C970   O971    1.223   .     D
O972   H973    1.014   .     S
C976   C992    1.422   .     S
C976   O1009   1.289   .     A
C976   O1010   1.289   .     A
C977   C978    1.408   .     A
C977   C394    1.417   1_556 S
C977   C418    1.416   1_556 S
C978   C985    1.405   .     A
C978   C982    1.410   .     A
C979   C983    1.412   .     A
C980   C981    1.393   .     A
C980   C394    1.422   1_556 S
C980   C414    1.396   1_556 S
C981   C982    1.385   .     A
C981   H1033   1.084   .     S
C982   H1039   1.083   .     S
C983   C1035   1.497   .     S
C983   C1000   1.403   .     A
C984   C999    1.386   .     A
C984   C1000   1.399   .     A
C984   H1019   1.077   .     S
C985   C1001   1.402   .     A
C985   C987    1.457   .     S
C986   H1040   1.084   .     S
C986   C992    1.397   .     A
C986   C598    1.369   1_565 S
C987   O1011   1.295   .     A
C987   O1012   1.299   .     A
C988   C989    1.397   .     A
C988   H1020   1.082   .     S
C989   C997    1.424   .     S
C989   C990    1.397   .     A
C990   H1021   1.082   .     S
C991   H1022   1.084   .     S
C991   C992    1.397   .     A
C991   C600    1.370   1_565 S
C993   N1008   1.369   .     A
C993   C1023   1.467   .     S
C993   C1059   1.424   .     S
C994   N1007   1.375   .     A
C994   C1027   1.475   .     S
C994   C1123   1.424   1_455 S
C995   H1031   1.082   .     S
C995   N1007   1.367   .     A
C995   C1126   1.421   1_455 S
C996   H1032   1.082   .     S
C996   N1008   1.369   .     A
C996   C1060   1.421   .     S
C997   O1014   1.289   .     A
C997   O1013   1.291   .     A
C998   O1016   1.295   .     A
C998   C1000   1.449   .     S
C998   O1015   1.295   .     A
C999   H1034   1.084   .     S
C1001  C1002   1.391   .     A
C1001  H1004   1.083   .     S
C1002  C418    1.394   1_556 S
C1002  H421    1.083   1_556 S
C1003  H1005   1.081   .     S
N1007  Zn1017  2.024   .     S
N1008  Zn1018  2.023   .     S
O1009  Zn1017  2.000   .     S
O1010  Zn1018  2.001   .     S
O1011  Zn1017  1.951   .     S
O1012  Zn1018  1.895   .     S
O1013  Zn1017  2.001   .     S
O1014  Zn1018  2.000   .     S
O1015  Zn1017  1.895   .     S
O1016  Zn1018  1.951   .     S
C1023  O1025   1.395   .     S
C1023  O1024   1.222   .     D
O1025  H1026   1.013   .     S
C1027  O1028   1.221   .     D
C1027  O1029   1.394   .     S
O1029  H1030   1.014   .     S
C1035  O1037   1.399   .     S
C1035  O1036   1.223   .     D
O1037  H1038   1.014   .     S
C1041  C1057   1.422   .     S
C1041  O1074   1.289   .     A
C1041  O1075   1.289   .     A
C1042  C1043   1.408   .     A
C1042  C459    1.417   1_556 S
C1042  C483    1.416   1_556 S
C1043  C1050   1.405   .     A
C1043  C1047   1.410   .     A
C1044  C1048   1.412   .     A
C1045  C1046   1.393   .     A
C1045  C459    1.422   1_556 S
C1045  C479    1.396   1_556 S
C1046  C1047   1.385   .     A
C1046  H1098   1.084   .     S
C1047  H1104   1.083   .     S
C1048  C1100   1.497   .     S
C1048  C1065   1.403   .     A
C1049  C1064   1.386   .     A
C1049  C1065   1.399   .     A
C1049  H1084   1.077   .     S
C1050  C1066   1.402   .     A
C1050  C1052   1.457   .     S
C1051  H1105   1.084   .     S
C1051  C1057   1.397   .     A
C1051  C663    1.369   1_565 S
C1052  O1076   1.295   .     A
C1052  O1077   1.299   .     A
C1053  C1054   1.397   .     A
C1053  H1085   1.082   .     S
C1054  C1062   1.424   .     S
C1054  C1055   1.397   .     A
C1055  H1086   1.082   .     S
C1056  H1087   1.084   .     S
C1056  C1057   1.397   .     A
C1056  C665    1.370   1_565 S
C1058  N1073   1.369   .     A
C1058  C1088   1.467   .     S
C1058  C1124   1.424   .     S
C1059  N1072   1.375   .     A
C1059  C1092   1.475   .     S
C1060  H1096   1.082   .     S
C1060  N1072   1.367   .     A
C1061  H1097   1.082   .     S
C1061  N1073   1.369   .     A
C1061  C1125   1.421   .     S
C1062  O1079   1.289   .     A
C1062  O1078   1.291   .     A
C1063  O1081   1.295   .     A
C1063  C1065   1.449   .     S
C1063  O1080   1.295   .     A
C1064  H1099   1.084   .     S
C1066  C1067   1.391   .     A
C1066  H1069   1.083   .     S
C1067  C483    1.394   1_556 S
C1067  H486    1.083   1_556 S
C1068  H1070   1.081   .     S
N1072  Zn1082  2.024   .     S
N1073  Zn1083  2.023   .     S
O1074  Zn1082  2.000   .     S
O1075  Zn1083  2.001   .     S
O1076  Zn1082  1.951   .     S
O1077  Zn1083  1.895   .     S
O1078  Zn1082  2.001   .     S
O1079  Zn1083  2.000   .     S
O1080  Zn1082  1.895   .     S
O1081  Zn1083  1.951   .     S
C1088  O1090   1.395   .     S
C1088  O1089   1.222   .     D
O1090  H1091   1.013   .     S
C1092  O1093   1.221   .     D
C1092  O1094   1.394   .     S
O1094  H1095   1.014   .     S
C1100  O1102   1.399   .     S
C1100  O1101   1.223   .     D
O1102  H1103   1.014   .     S
C1106  C1122   1.422   .     S
C1106  O1139   1.289   .     A
C1106  O1140   1.289   .     A
C1107  C1108   1.408   .     A
C1107  C524    1.417   1_556 S
C1107  C548    1.416   1_556 S
C1108  C1115   1.405   .     A
C1108  C1112   1.410   .     A
C1109  C1113   1.412   .     A
C1110  C1111   1.393   .     A
C1110  C524    1.422   1_556 S
C1110  C544    1.396   1_556 S
C1111  C1112   1.385   .     A
C1111  H1163   1.084   .     S
C1112  H1169   1.083   .     S
C1113  C1165   1.497   .     S
C1113  C1130   1.403   .     A
C1114  C1129   1.386   .     A
C1114  C1130   1.399   .     A
C1114  H1149   1.077   .     S
C1115  C1131   1.402   .     A
C1115  C1117   1.457   .     S
C1116  H1170   1.084   .     S
C1116  C1122   1.397   .     A
C1116  C728    1.369   1_565 S
C1117  O1141   1.295   .     A
C1117  O1142   1.299   .     A
C1118  C1119   1.397   .     A
C1118  H1150   1.082   .     S
C1119  C1127   1.424   .     S
C1119  C1120   1.397   .     A
C1120  H1151   1.082   .     S
C1121  H1152   1.084   .     S
C1121  C1122   1.397   .     A
C1121  C730    1.370   1_565 S
C1123  N1138   1.369   .     A
C1123  C1153   1.467   .     S
C1123  C994    1.424   1_655 S
C1124  N1137   1.375   .     A
C1124  C1157   1.475   .     S
C1125  H1161   1.082   .     S
C1125  N1137   1.367   .     A
C1126  H1162   1.082   .     S
C1126  N1138   1.369   .     A
C1126  C995    1.421   1_655 S
C1127  O1144   1.289   .     A
C1127  O1143   1.291   .     A
C1128  O1146   1.295   .     A
C1128  C1130   1.449   .     S
C1128  O1145   1.295   .     A
C1129  H1164   1.084   .     S
C1131  C1132   1.391   .     A
C1131  H1134   1.083   .     S
C1132  C548    1.394   1_556 S
C1132  H551    1.083   1_556 S
C1133  H1135   1.081   .     S
N1137  Zn1147  2.024   .     S
N1138  Zn1148  2.023   .     S
O1139  Zn1147  2.000   .     S
O1140  Zn1148  2.001   .     S
O1141  Zn1147  1.951   .     S
O1142  Zn1148  1.895   .     S
O1143  Zn1147  2.001   .     S
O1144  Zn1148  2.000   .     S
O1145  Zn1147  1.895   .     S
O1146  Zn1148  1.951   .     S
C1153  O1155   1.395   .     S
C1153  O1154   1.222   .     D
O1155  H1156   1.013   .     S
C1157  O1158   1.221   .     D
C1157  O1159   1.394   .     S
O1159  H1160   1.014   .     S
C1165  O1167   1.399   .     S
C1165  O1166   1.223   .     D
O1167  H1168   1.014   .     S
