data_str_m2_o2_o5_pcu_sym.25
_audit_creation_date              2020-01-03
_audit_creation_method            'Materials Studio'
_symmetry_space_group_name_H-M    'P1'
_symmetry_Int_Tables_number       1
_symmetry_cell_setting            triclinic
loop_
_symmetry_equiv_pos_as_xyz
  x,y,z
_cell_length_a                    30.2854
_cell_length_b                    28.0134
_cell_length_c                    27.2124
_cell_angle_alpha                 90.0000
_cell_angle_beta                  92.0614
_cell_angle_gamma                 90.0000
loop_
_atom_site_label
_atom_site_type_symbol
_atom_site_fract_x
_atom_site_fract_y
_atom_site_fract_z
_atom_site_U_iso_or_equiv
_atom_site_adp_type
_atom_site_occupancy
Br1    Br    0.31568   0.13422   0.24695   0.00000  Uiso   1.00
Br2    Br    0.17963   0.36551   0.09155   0.00000  Uiso   1.00
Br3    Br    0.18432   0.13422   0.08638   0.00000  Uiso   1.00
Br4    Br    0.32037   0.36551   0.24179   0.00000  Uiso   1.00
C5     C     0.16505   0.25002   0.16668   0.00000  Uiso   1.00
C6     C     0.28001   0.44598   0.19634   0.00000  Uiso   1.00
C7     C     0.24995   0.25000   0.07362   0.00000  Uiso   1.00
C8     C     0.25005   0.25000   0.25972   0.00000  Uiso   1.00
C9     C     0.25000   0.02725   0.16667   0.00000  Uiso   1.00
C10    C     0.25000   0.47269   0.16667   0.00000  Uiso   1.00
C11    C     0.24998   0.25000   0.02187   0.00000  Uiso   1.00
C12    C     0.25002   0.25000   0.31147   0.00000  Uiso   1.00
C13    C     0.04822   0.29141   0.18106   0.00000  Uiso   1.00
C14    C     0.45291   0.20948   0.18110   0.00000  Uiso   1.00
C15    C     0.45178   0.29141   0.15227   0.00000  Uiso   1.00
C16    C     0.33495   0.25002   0.16665   0.00000  Uiso   1.00
C17    C     0.04709   0.20948   0.15223   0.00000  Uiso   1.00
C18    C     0.09412   0.29136   0.18073   0.00000  Uiso   1.00
C19    C     0.40702   0.20916   0.18053   0.00000  Uiso   1.00
C20    C     0.40588   0.29136   0.15260   0.00000  Uiso   1.00
C21    C     0.09298   0.20916   0.15281   0.00000  Uiso   1.00
C22    C     0.11678   0.25016   0.16676   0.00000  Uiso   1.00
C23    C     0.38322   0.25016   0.16657   0.00000  Uiso   1.00
C24    C     0.02430   0.25051   0.16662   0.00000  Uiso   1.00
C25    C     0.47570   0.25051   0.16671   0.00000  Uiso   1.00
C26    C     0.27624   0.10413   0.19985   0.00000  Uiso   1.00
C27    C     0.22085   0.39581   0.13662   0.00000  Uiso   1.00
C28    C     0.22376   0.10413   0.13349   0.00000  Uiso   1.00
C29    C     0.27915   0.39581   0.19671   0.00000  Uiso   1.00
C30    C     0.27587   0.05396   0.20080   0.00000  Uiso   1.00
C31    C     0.21999   0.44598   0.13699   0.00000  Uiso   1.00
C32    C     0.22413   0.05396   0.13254   0.00000  Uiso   1.00
Cu33   Cu    0.25000   0.29822   0.16667   0.00000  Uiso   1.00
Cu34   Cu    0.25000   0.20179   0.16667   0.00000  Uiso   1.00
H35    H     0.03153   0.32325   0.19322   0.00000  Uiso   1.00
H36    H     0.19525   0.46307   0.11363   0.00000  Uiso   1.00
H37    H     0.20380   0.03686   0.10442   0.00000  Uiso   1.00
H38    H     0.30474   0.46307   0.21970   0.00000  Uiso   1.00
H39    H     0.47050   0.17774   0.19331   0.00000  Uiso   1.00
H40    H     0.46847   0.32325   0.14012   0.00000  Uiso   1.00
H41    H     0.02950   0.17774   0.14003   0.00000  Uiso   1.00
H42    H     0.11186   0.32331   0.19208   0.00000  Uiso   1.00
H43    H     0.39028   0.17701   0.19160   0.00000  Uiso   1.00
H44    H     0.38814   0.32331   0.14125   0.00000  Uiso   1.00
H45    H     0.10972   0.17701   0.14173   0.00000  Uiso   1.00
H46    H     0.29620   0.03686   0.22891   0.00000  Uiso   1.00
N47    N     0.25000   0.12935   0.16667   0.00000  Uiso   1.00
N48    N     0.25000   0.37066   0.16667   0.00000  Uiso   1.00
O49    O     0.18573   0.29072   0.16667   0.00000  Uiso   1.00
O50    O     0.31427   0.20929   0.16666   0.00000  Uiso   1.00
O51    O     0.31427   0.29072   0.16666   0.00000  Uiso   1.00
O52    O     0.18573   0.20929   0.16667   0.00000  Uiso   1.00
O53    O     0.25000   0.29071   0.09613   0.00000  Uiso   1.00
O54    O     0.25000   0.20929   0.23720   0.00000  Uiso   1.00
O55    O     0.25000   0.29071   0.23720   0.00000  Uiso   1.00
O56    O     0.25000   0.20929   0.09613   0.00000  Uiso   1.00
Br57   Br    0.81568   0.13422   0.24695   0.00000  Uiso   1.00
Br58   Br    0.67963   0.36551   0.09155   0.00000  Uiso   1.00
Br59   Br    0.68432   0.13422   0.08638   0.00000  Uiso   1.00
Br60   Br    0.82037   0.36551   0.24179   0.00000  Uiso   1.00
C61    C     0.66505   0.25002   0.16668   0.00000  Uiso   1.00
C62    C     0.78001   0.44598   0.19634   0.00000  Uiso   1.00
C63    C     0.74995   0.25000   0.07362   0.00000  Uiso   1.00
C64    C     0.75005   0.25000   0.25972   0.00000  Uiso   1.00
C65    C     0.75000   0.02725   0.16667   0.00000  Uiso   1.00
C66    C     0.75000   0.47269   0.16667   0.00000  Uiso   1.00
C67    C     0.74998   0.25000   0.02187   0.00000  Uiso   1.00
C68    C     0.75002   0.25000   0.31147   0.00000  Uiso   1.00
C69    C     0.54822   0.29141   0.18106   0.00000  Uiso   1.00
C70    C     0.95291   0.20948   0.18110   0.00000  Uiso   1.00
C71    C     0.95178   0.29141   0.15227   0.00000  Uiso   1.00
C72    C     0.83495   0.25002   0.16665   0.00000  Uiso   1.00
C73    C     0.54709   0.20948   0.15223   0.00000  Uiso   1.00
C74    C     0.59412   0.29136   0.18073   0.00000  Uiso   1.00
C75    C     0.90702   0.20916   0.18053   0.00000  Uiso   1.00
C76    C     0.90588   0.29136   0.15260   0.00000  Uiso   1.00
C77    C     0.59298   0.20916   0.15281   0.00000  Uiso   1.00
C78    C     0.61678   0.25016   0.16676   0.00000  Uiso   1.00
C79    C     0.88322   0.25016   0.16657   0.00000  Uiso   1.00
C80    C     0.52430   0.25051   0.16662   0.00000  Uiso   1.00
C81    C     0.97570   0.25051   0.16671   0.00000  Uiso   1.00
C82    C     0.77624   0.10413   0.19985   0.00000  Uiso   1.00
C83    C     0.72085   0.39581   0.13662   0.00000  Uiso   1.00
C84    C     0.72376   0.10413   0.13349   0.00000  Uiso   1.00
C85    C     0.77915   0.39581   0.19671   0.00000  Uiso   1.00
C86    C     0.77587   0.05396   0.20080   0.00000  Uiso   1.00
C87    C     0.71999   0.44598   0.13699   0.00000  Uiso   1.00
C88    C     0.72413   0.05396   0.13254   0.00000  Uiso   1.00
Cu89   Cu    0.75000   0.29822   0.16667   0.00000  Uiso   1.00
Cu90   Cu    0.75000   0.20179   0.16667   0.00000  Uiso   1.00
H91    H     0.53153   0.32325   0.19322   0.00000  Uiso   1.00
H92    H     0.69525   0.46307   0.11363   0.00000  Uiso   1.00
H93    H     0.70380   0.03686   0.10442   0.00000  Uiso   1.00
H94    H     0.80474   0.46307   0.21970   0.00000  Uiso   1.00
H95    H     0.97050   0.17774   0.19331   0.00000  Uiso   1.00
H96    H     0.96847   0.32325   0.14012   0.00000  Uiso   1.00
H97    H     0.52950   0.17774   0.14003   0.00000  Uiso   1.00
H98    H     0.61186   0.32331   0.19208   0.00000  Uiso   1.00
H99    H     0.89028   0.17701   0.19160   0.00000  Uiso   1.00
H100   H     0.88814   0.32331   0.14125   0.00000  Uiso   1.00
H101   H     0.60972   0.17701   0.14173   0.00000  Uiso   1.00
H102   H     0.79620   0.03686   0.22891   0.00000  Uiso   1.00
N103   N     0.75000   0.12935   0.16667   0.00000  Uiso   1.00
N104   N     0.75000   0.37066   0.16667   0.00000  Uiso   1.00
O105   O     0.68573   0.29072   0.16667   0.00000  Uiso   1.00
O106   O     0.81427   0.20929   0.16666   0.00000  Uiso   1.00
O107   O     0.81427   0.29072   0.16666   0.00000  Uiso   1.00
O108   O     0.68573   0.20929   0.16667   0.00000  Uiso   1.00
O109   O     0.75000   0.29071   0.09613   0.00000  Uiso   1.00
O110   O     0.75000   0.20929   0.23720   0.00000  Uiso   1.00
O111   O     0.75000   0.29071   0.23720   0.00000  Uiso   1.00
O112   O     0.75000   0.20929   0.09613   0.00000  Uiso   1.00
Br113  Br    0.31568   0.63422   0.24695   0.00000  Uiso   1.00
Br114  Br    0.17963   0.86551   0.09155   0.00000  Uiso   1.00
Br115  Br    0.18432   0.63422   0.08638   0.00000  Uiso   1.00
Br116  Br    0.32037   0.86551   0.24179   0.00000  Uiso   1.00
C117   C     0.16505   0.75002   0.16668   0.00000  Uiso   1.00
C118   C     0.28001   0.94598   0.19634   0.00000  Uiso   1.00
C119   C     0.24995   0.75000   0.07362   0.00000  Uiso   1.00
C120   C     0.25005   0.75000   0.25972   0.00000  Uiso   1.00
C121   C     0.25000   0.52725   0.16667   0.00000  Uiso   1.00
C122   C     0.25000   0.97269   0.16667   0.00000  Uiso   1.00
C123   C     0.24998   0.75000   0.02187   0.00000  Uiso   1.00
C124   C     0.25002   0.75000   0.31147   0.00000  Uiso   1.00
C125   C     0.04822   0.79141   0.18106   0.00000  Uiso   1.00
C126   C     0.45291   0.70948   0.18110   0.00000  Uiso   1.00
C127   C     0.45178   0.79141   0.15227   0.00000  Uiso   1.00
C128   C     0.33495   0.75002   0.16665   0.00000  Uiso   1.00
C129   C     0.04709   0.70948   0.15223   0.00000  Uiso   1.00
C130   C     0.09412   0.79136   0.18073   0.00000  Uiso   1.00
C131   C     0.40702   0.70916   0.18053   0.00000  Uiso   1.00
C132   C     0.40588   0.79136   0.15260   0.00000  Uiso   1.00
C133   C     0.09298   0.70916   0.15281   0.00000  Uiso   1.00
C134   C     0.11678   0.75016   0.16676   0.00000  Uiso   1.00
C135   C     0.38322   0.75016   0.16657   0.00000  Uiso   1.00
C136   C     0.02430   0.75051   0.16662   0.00000  Uiso   1.00
C137   C     0.47570   0.75051   0.16671   0.00000  Uiso   1.00
C138   C     0.27624   0.60413   0.19985   0.00000  Uiso   1.00
C139   C     0.22085   0.89581   0.13662   0.00000  Uiso   1.00
C140   C     0.22376   0.60413   0.13349   0.00000  Uiso   1.00
C141   C     0.27915   0.89581   0.19671   0.00000  Uiso   1.00
C142   C     0.27587   0.55396   0.20080   0.00000  Uiso   1.00
C143   C     0.21999   0.94598   0.13699   0.00000  Uiso   1.00
C144   C     0.22413   0.55396   0.13254   0.00000  Uiso   1.00
Cu145  Cu    0.25000   0.79822   0.16667   0.00000  Uiso   1.00
Cu146  Cu    0.25000   0.70179   0.16667   0.00000  Uiso   1.00
H147   H     0.03153   0.82325   0.19322   0.00000  Uiso   1.00
H148   H     0.19525   0.96307   0.11363   0.00000  Uiso   1.00
H149   H     0.20380   0.53686   0.10442   0.00000  Uiso   1.00
H150   H     0.30474   0.96307   0.21970   0.00000  Uiso   1.00
H151   H     0.47050   0.67774   0.19331   0.00000  Uiso   1.00
H152   H     0.46847   0.82325   0.14012   0.00000  Uiso   1.00
H153   H     0.02950   0.67774   0.14003   0.00000  Uiso   1.00
H154   H     0.11186   0.82331   0.19208   0.00000  Uiso   1.00
H155   H     0.39028   0.67701   0.19160   0.00000  Uiso   1.00
H156   H     0.38814   0.82331   0.14125   0.00000  Uiso   1.00
H157   H     0.10972   0.67701   0.14173   0.00000  Uiso   1.00
H158   H     0.29620   0.53686   0.22891   0.00000  Uiso   1.00
N159   N     0.25000   0.62935   0.16667   0.00000  Uiso   1.00
N160   N     0.25000   0.87066   0.16667   0.00000  Uiso   1.00
O161   O     0.18573   0.79072   0.16667   0.00000  Uiso   1.00
O162   O     0.31427   0.70929   0.16666   0.00000  Uiso   1.00
O163   O     0.31427   0.79072   0.16666   0.00000  Uiso   1.00
O164   O     0.18573   0.70929   0.16667   0.00000  Uiso   1.00
O165   O     0.25000   0.79071   0.09613   0.00000  Uiso   1.00
O166   O     0.25000   0.70929   0.23720   0.00000  Uiso   1.00
O167   O     0.25000   0.79071   0.23720   0.00000  Uiso   1.00
O168   O     0.25000   0.70929   0.09613   0.00000  Uiso   1.00
Br169  Br    0.81568   0.63422   0.24695   0.00000  Uiso   1.00
Br170  Br    0.67963   0.86551   0.09155   0.00000  Uiso   1.00
Br171  Br    0.68432   0.63422   0.08638   0.00000  Uiso   1.00
Br172  Br    0.82037   0.86551   0.24179   0.00000  Uiso   1.00
C173   C     0.66505   0.75002   0.16668   0.00000  Uiso   1.00
C174   C     0.78001   0.94598   0.19634   0.00000  Uiso   1.00
C175   C     0.74995   0.75000   0.07362   0.00000  Uiso   1.00
C176   C     0.75005   0.75000   0.25972   0.00000  Uiso   1.00
C177   C     0.75000   0.52725   0.16667   0.00000  Uiso   1.00
C178   C     0.75000   0.97269   0.16667   0.00000  Uiso   1.00
C179   C     0.74998   0.75000   0.02187   0.00000  Uiso   1.00
C180   C     0.75002   0.75000   0.31147   0.00000  Uiso   1.00
C181   C     0.54822   0.79141   0.18106   0.00000  Uiso   1.00
C182   C     0.95291   0.70948   0.18110   0.00000  Uiso   1.00
C183   C     0.95178   0.79141   0.15227   0.00000  Uiso   1.00
C184   C     0.83495   0.75002   0.16665   0.00000  Uiso   1.00
C185   C     0.54709   0.70948   0.15223   0.00000  Uiso   1.00
C186   C     0.59412   0.79136   0.18073   0.00000  Uiso   1.00
C187   C     0.90702   0.70916   0.18053   0.00000  Uiso   1.00
C188   C     0.90588   0.79136   0.15260   0.00000  Uiso   1.00
C189   C     0.59298   0.70916   0.15281   0.00000  Uiso   1.00
C190   C     0.61678   0.75016   0.16676   0.00000  Uiso   1.00
C191   C     0.88322   0.75016   0.16657   0.00000  Uiso   1.00
C192   C     0.52430   0.75051   0.16662   0.00000  Uiso   1.00
C193   C     0.97570   0.75051   0.16671   0.00000  Uiso   1.00
C194   C     0.77624   0.60413   0.19985   0.00000  Uiso   1.00
C195   C     0.72085   0.89581   0.13662   0.00000  Uiso   1.00
C196   C     0.72376   0.60413   0.13349   0.00000  Uiso   1.00
C197   C     0.77915   0.89581   0.19671   0.00000  Uiso   1.00
C198   C     0.77587   0.55396   0.20080   0.00000  Uiso   1.00
C199   C     0.71999   0.94598   0.13699   0.00000  Uiso   1.00
C200   C     0.72413   0.55396   0.13254   0.00000  Uiso   1.00
Cu201  Cu    0.75000   0.79822   0.16667   0.00000  Uiso   1.00
Cu202  Cu    0.75000   0.70179   0.16667   0.00000  Uiso   1.00
H203   H     0.53153   0.82325   0.19322   0.00000  Uiso   1.00
H204   H     0.69525   0.96307   0.11363   0.00000  Uiso   1.00
H205   H     0.70380   0.53686   0.10442   0.00000  Uiso   1.00
H206   H     0.80474   0.96307   0.21970   0.00000  Uiso   1.00
H207   H     0.97050   0.67774   0.19331   0.00000  Uiso   1.00
H208   H     0.96847   0.82325   0.14012   0.00000  Uiso   1.00
H209   H     0.52950   0.67774   0.14003   0.00000  Uiso   1.00
H210   H     0.61186   0.82331   0.19208   0.00000  Uiso   1.00
H211   H     0.89028   0.67701   0.19160   0.00000  Uiso   1.00
H212   H     0.88814   0.82331   0.14125   0.00000  Uiso   1.00
H213   H     0.60972   0.67701   0.14173   0.00000  Uiso   1.00
H214   H     0.79620   0.53686   0.22891   0.00000  Uiso   1.00
N215   N     0.75000   0.62935   0.16667   0.00000  Uiso   1.00
N216   N     0.75000   0.87066   0.16667   0.00000  Uiso   1.00
O217   O     0.68573   0.79072   0.16667   0.00000  Uiso   1.00
O218   O     0.81427   0.70929   0.16666   0.00000  Uiso   1.00
O219   O     0.81427   0.79072   0.16666   0.00000  Uiso   1.00
O220   O     0.68573   0.70929   0.16667   0.00000  Uiso   1.00
O221   O     0.75000   0.79071   0.09613   0.00000  Uiso   1.00
O222   O     0.75000   0.70929   0.23720   0.00000  Uiso   1.00
O223   O     0.75000   0.79071   0.23720   0.00000  Uiso   1.00
O224   O     0.75000   0.70929   0.09613   0.00000  Uiso   1.00
Br225  Br    0.31568   0.13422   0.58028   0.00000  Uiso   1.00
Br226  Br    0.17963   0.36551   0.42488   0.00000  Uiso   1.00
Br227  Br    0.18432   0.13422   0.41972   0.00000  Uiso   1.00
Br228  Br    0.32037   0.36551   0.57512   0.00000  Uiso   1.00
C229   C     0.16505   0.25002   0.50001   0.00000  Uiso   1.00
C230   C     0.28001   0.44598   0.52967   0.00000  Uiso   1.00
C231   C     0.24995   0.25000   0.40695   0.00000  Uiso   1.00
C232   C     0.25005   0.25000   0.59305   0.00000  Uiso   1.00
C233   C     0.25000   0.02725   0.50000   0.00000  Uiso   1.00
C234   C     0.25000   0.47269   0.50000   0.00000  Uiso   1.00
C235   C     0.24998   0.25000   0.35520   0.00000  Uiso   1.00
C236   C     0.25002   0.25000   0.64480   0.00000  Uiso   1.00
C237   C     0.04822   0.29141   0.51440   0.00000  Uiso   1.00
C238   C     0.45291   0.20948   0.51443   0.00000  Uiso   1.00
C239   C     0.45178   0.29141   0.48560   0.00000  Uiso   1.00
C240   C     0.33495   0.25002   0.49999   0.00000  Uiso   1.00
C241   C     0.04709   0.20948   0.48557   0.00000  Uiso   1.00
C242   C     0.09412   0.29136   0.51407   0.00000  Uiso   1.00
C243   C     0.40702   0.20916   0.51386   0.00000  Uiso   1.00
C244   C     0.40588   0.29136   0.48594   0.00000  Uiso   1.00
C245   C     0.09298   0.20916   0.48614   0.00000  Uiso   1.00
C246   C     0.11678   0.25016   0.50010   0.00000  Uiso   1.00
C247   C     0.38322   0.25016   0.49990   0.00000  Uiso   1.00
C248   C     0.02430   0.25051   0.49996   0.00000  Uiso   1.00
C249   C     0.47570   0.25051   0.50005   0.00000  Uiso   1.00
C250   C     0.27624   0.10413   0.53318   0.00000  Uiso   1.00
C251   C     0.22085   0.39581   0.46996   0.00000  Uiso   1.00
C252   C     0.22376   0.10413   0.46682   0.00000  Uiso   1.00
C253   C     0.27915   0.39581   0.53004   0.00000  Uiso   1.00
C254   C     0.27587   0.05396   0.53413   0.00000  Uiso   1.00
C255   C     0.21999   0.44598   0.47033   0.00000  Uiso   1.00
C256   C     0.22413   0.05396   0.46587   0.00000  Uiso   1.00
Cu257  Cu    0.25000   0.29822   0.50000   0.00000  Uiso   1.00
Cu258  Cu    0.25000   0.20179   0.50000   0.00000  Uiso   1.00
H259   H     0.03153   0.32325   0.52655   0.00000  Uiso   1.00
H260   H     0.19525   0.46307   0.44697   0.00000  Uiso   1.00
H261   H     0.20380   0.03686   0.43776   0.00000  Uiso   1.00
H262   H     0.30474   0.46307   0.55303   0.00000  Uiso   1.00
H263   H     0.47050   0.17774   0.52664   0.00000  Uiso   1.00
H264   H     0.46847   0.32325   0.47345   0.00000  Uiso   1.00
H265   H     0.02950   0.17774   0.47336   0.00000  Uiso   1.00
H266   H     0.11186   0.32331   0.52541   0.00000  Uiso   1.00
H267   H     0.39028   0.17701   0.52494   0.00000  Uiso   1.00
H268   H     0.38814   0.32331   0.47459   0.00000  Uiso   1.00
H269   H     0.10972   0.17701   0.47506   0.00000  Uiso   1.00
H270   H     0.29620   0.03686   0.56224   0.00000  Uiso   1.00
N271   N     0.25000   0.12935   0.50000   0.00000  Uiso   1.00
N272   N     0.25000   0.37066   0.50000   0.00000  Uiso   1.00
O273   O     0.18573   0.29072   0.50000   0.00000  Uiso   1.00
O274   O     0.31427   0.20929   0.50000   0.00000  Uiso   1.00
O275   O     0.31427   0.29072   0.50000   0.00000  Uiso   1.00
O276   O     0.18573   0.20929   0.50000   0.00000  Uiso   1.00
O277   O     0.25000   0.29071   0.42946   0.00000  Uiso   1.00
O278   O     0.25000   0.20929   0.57054   0.00000  Uiso   1.00
O279   O     0.25000   0.29071   0.57054   0.00000  Uiso   1.00
O280   O     0.25000   0.20929   0.42946   0.00000  Uiso   1.00
Br281  Br    0.81568   0.13422   0.58028   0.00000  Uiso   1.00
Br282  Br    0.67963   0.36551   0.42488   0.00000  Uiso   1.00
Br283  Br    0.68432   0.13422   0.41972   0.00000  Uiso   1.00
Br284  Br    0.82037   0.36551   0.57512   0.00000  Uiso   1.00
C285   C     0.66505   0.25002   0.50001   0.00000  Uiso   1.00
C286   C     0.78001   0.44598   0.52967   0.00000  Uiso   1.00
C287   C     0.74995   0.25000   0.40695   0.00000  Uiso   1.00
C288   C     0.75005   0.25000   0.59305   0.00000  Uiso   1.00
C289   C     0.75000   0.02725   0.50000   0.00000  Uiso   1.00
C290   C     0.75000   0.47269   0.50000   0.00000  Uiso   1.00
C291   C     0.74998   0.25000   0.35520   0.00000  Uiso   1.00
C292   C     0.75002   0.25000   0.64480   0.00000  Uiso   1.00
C293   C     0.54822   0.29141   0.51440   0.00000  Uiso   1.00
C294   C     0.95291   0.20948   0.51443   0.00000  Uiso   1.00
C295   C     0.95178   0.29141   0.48560   0.00000  Uiso   1.00
C296   C     0.83495   0.25002   0.49999   0.00000  Uiso   1.00
C297   C     0.54709   0.20948   0.48557   0.00000  Uiso   1.00
C298   C     0.59412   0.29136   0.51407   0.00000  Uiso   1.00
C299   C     0.90702   0.20916   0.51386   0.00000  Uiso   1.00
C300   C     0.90588   0.29136   0.48594   0.00000  Uiso   1.00
C301   C     0.59298   0.20916   0.48614   0.00000  Uiso   1.00
C302   C     0.61678   0.25016   0.50010   0.00000  Uiso   1.00
C303   C     0.88322   0.25016   0.49990   0.00000  Uiso   1.00
C304   C     0.52430   0.25051   0.49996   0.00000  Uiso   1.00
C305   C     0.97570   0.25051   0.50005   0.00000  Uiso   1.00
C306   C     0.77624   0.10413   0.53318   0.00000  Uiso   1.00
C307   C     0.72085   0.39581   0.46996   0.00000  Uiso   1.00
C308   C     0.72376   0.10413   0.46682   0.00000  Uiso   1.00
C309   C     0.77915   0.39581   0.53004   0.00000  Uiso   1.00
C310   C     0.77587   0.05396   0.53413   0.00000  Uiso   1.00
C311   C     0.71999   0.44598   0.47033   0.00000  Uiso   1.00
C312   C     0.72413   0.05396   0.46587   0.00000  Uiso   1.00
Cu313  Cu    0.75000   0.29822   0.50000   0.00000  Uiso   1.00
Cu314  Cu    0.75000   0.20179   0.50000   0.00000  Uiso   1.00
H315   H     0.53153   0.32325   0.52655   0.00000  Uiso   1.00
H316   H     0.69525   0.46307   0.44697   0.00000  Uiso   1.00
H317   H     0.70380   0.03686   0.43776   0.00000  Uiso   1.00
H318   H     0.80474   0.46307   0.55303   0.00000  Uiso   1.00
H319   H     0.97050   0.17774   0.52664   0.00000  Uiso   1.00
H320   H     0.96847   0.32325   0.47345   0.00000  Uiso   1.00
H321   H     0.52950   0.17774   0.47336   0.00000  Uiso   1.00
H322   H     0.61186   0.32331   0.52541   0.00000  Uiso   1.00
H323   H     0.89028   0.17701   0.52494   0.00000  Uiso   1.00
H324   H     0.88814   0.32331   0.47459   0.00000  Uiso   1.00
H325   H     0.60972   0.17701   0.47506   0.00000  Uiso   1.00
H326   H     0.79620   0.03686   0.56224   0.00000  Uiso   1.00
N327   N     0.75000   0.12935   0.50000   0.00000  Uiso   1.00
N328   N     0.75000   0.37066   0.50000   0.00000  Uiso   1.00
O329   O     0.68573   0.29072   0.50000   0.00000  Uiso   1.00
O330   O     0.81427   0.20929   0.50000   0.00000  Uiso   1.00
O331   O     0.81427   0.29072   0.50000   0.00000  Uiso   1.00
O332   O     0.68573   0.20929   0.50000   0.00000  Uiso   1.00
O333   O     0.75000   0.29071   0.42946   0.00000  Uiso   1.00
O334   O     0.75000   0.20929   0.57054   0.00000  Uiso   1.00
O335   O     0.75000   0.29071   0.57054   0.00000  Uiso   1.00
O336   O     0.75000   0.20929   0.42946   0.00000  Uiso   1.00
Br337  Br    0.31568   0.63422   0.58028   0.00000  Uiso   1.00
Br338  Br    0.17963   0.86551   0.42488   0.00000  Uiso   1.00
Br339  Br    0.18432   0.63422   0.41972   0.00000  Uiso   1.00
Br340  Br    0.32037   0.86551   0.57512   0.00000  Uiso   1.00
C341   C     0.16505   0.75002   0.50001   0.00000  Uiso   1.00
C342   C     0.28001   0.94598   0.52967   0.00000  Uiso   1.00
C343   C     0.24995   0.75000   0.40695   0.00000  Uiso   1.00
C344   C     0.25005   0.75000   0.59305   0.00000  Uiso   1.00
C345   C     0.25000   0.52725   0.50000   0.00000  Uiso   1.00
C346   C     0.25000   0.97269   0.50000   0.00000  Uiso   1.00
C347   C     0.24998   0.75000   0.35520   0.00000  Uiso   1.00
C348   C     0.25002   0.75000   0.64480   0.00000  Uiso   1.00
C349   C     0.04822   0.79141   0.51440   0.00000  Uiso   1.00
C350   C     0.45291   0.70948   0.51443   0.00000  Uiso   1.00
C351   C     0.45178   0.79141   0.48560   0.00000  Uiso   1.00
C352   C     0.33495   0.75002   0.49999   0.00000  Uiso   1.00
C353   C     0.04709   0.70948   0.48557   0.00000  Uiso   1.00
C354   C     0.09412   0.79136   0.51407   0.00000  Uiso   1.00
C355   C     0.40702   0.70916   0.51386   0.00000  Uiso   1.00
C356   C     0.40588   0.79136   0.48594   0.00000  Uiso   1.00
C357   C     0.09298   0.70916   0.48614   0.00000  Uiso   1.00
C358   C     0.11678   0.75016   0.50010   0.00000  Uiso   1.00
C359   C     0.38322   0.75016   0.49990   0.00000  Uiso   1.00
C360   C     0.02430   0.75051   0.49996   0.00000  Uiso   1.00
C361   C     0.47570   0.75051   0.50005   0.00000  Uiso   1.00
C362   C     0.27624   0.60413   0.53318   0.00000  Uiso   1.00
C363   C     0.22085   0.89581   0.46996   0.00000  Uiso   1.00
C364   C     0.22376   0.60413   0.46682   0.00000  Uiso   1.00
C365   C     0.27915   0.89581   0.53004   0.00000  Uiso   1.00
C366   C     0.27587   0.55396   0.53413   0.00000  Uiso   1.00
C367   C     0.21999   0.94598   0.47033   0.00000  Uiso   1.00
C368   C     0.22413   0.55396   0.46587   0.00000  Uiso   1.00
Cu369  Cu    0.25000   0.79822   0.50000   0.00000  Uiso   1.00
Cu370  Cu    0.25000   0.70179   0.50000   0.00000  Uiso   1.00
H371   H     0.03153   0.82325   0.52655   0.00000  Uiso   1.00
H372   H     0.19525   0.96307   0.44697   0.00000  Uiso   1.00
H373   H     0.20380   0.53686   0.43776   0.00000  Uiso   1.00
H374   H     0.30474   0.96307   0.55303   0.00000  Uiso   1.00
H375   H     0.47050   0.67774   0.52664   0.00000  Uiso   1.00
H376   H     0.46847   0.82325   0.47345   0.00000  Uiso   1.00
H377   H     0.02950   0.67774   0.47336   0.00000  Uiso   1.00
H378   H     0.11186   0.82331   0.52541   0.00000  Uiso   1.00
H379   H     0.39028   0.67701   0.52494   0.00000  Uiso   1.00
H380   H     0.38814   0.82331   0.47459   0.00000  Uiso   1.00
H381   H     0.10972   0.67701   0.47506   0.00000  Uiso   1.00
H382   H     0.29620   0.53686   0.56224   0.00000  Uiso   1.00
N383   N     0.25000   0.62935   0.50000   0.00000  Uiso   1.00
N384   N     0.25000   0.87066   0.50000   0.00000  Uiso   1.00
O385   O     0.18573   0.79072   0.50000   0.00000  Uiso   1.00
O386   O     0.31427   0.70929   0.50000   0.00000  Uiso   1.00
O387   O     0.31427   0.79072   0.50000   0.00000  Uiso   1.00
O388   O     0.18573   0.70929   0.50000   0.00000  Uiso   1.00
O389   O     0.25000   0.79071   0.42946   0.00000  Uiso   1.00
O390   O     0.25000   0.70929   0.57054   0.00000  Uiso   1.00
O391   O     0.25000   0.79071   0.57054   0.00000  Uiso   1.00
O392   O     0.25000   0.70929   0.42946   0.00000  Uiso   1.00
Br393  Br    0.81568   0.63422   0.58028   0.00000  Uiso   1.00
Br394  Br    0.67963   0.86551   0.42488   0.00000  Uiso   1.00
Br395  Br    0.68432   0.63422   0.41972   0.00000  Uiso   1.00
Br396  Br    0.82037   0.86551   0.57512   0.00000  Uiso   1.00
C397   C     0.66505   0.75002   0.50001   0.00000  Uiso   1.00
C398   C     0.78001   0.94598   0.52967   0.00000  Uiso   1.00
C399   C     0.74995   0.75000   0.40695   0.00000  Uiso   1.00
C400   C     0.75005   0.75000   0.59305   0.00000  Uiso   1.00
C401   C     0.75000   0.52725   0.50000   0.00000  Uiso   1.00
C402   C     0.75000   0.97269   0.50000   0.00000  Uiso   1.00
C403   C     0.74998   0.75000   0.35520   0.00000  Uiso   1.00
C404   C     0.75002   0.75000   0.64480   0.00000  Uiso   1.00
C405   C     0.54822   0.79141   0.51440   0.00000  Uiso   1.00
C406   C     0.95291   0.70948   0.51443   0.00000  Uiso   1.00
C407   C     0.95178   0.79141   0.48560   0.00000  Uiso   1.00
C408   C     0.83495   0.75002   0.49999   0.00000  Uiso   1.00
C409   C     0.54709   0.70948   0.48557   0.00000  Uiso   1.00
C410   C     0.59412   0.79136   0.51407   0.00000  Uiso   1.00
C411   C     0.90702   0.70916   0.51386   0.00000  Uiso   1.00
C412   C     0.90588   0.79136   0.48594   0.00000  Uiso   1.00
C413   C     0.59298   0.70916   0.48614   0.00000  Uiso   1.00
C414   C     0.61678   0.75016   0.50010   0.00000  Uiso   1.00
C415   C     0.88322   0.75016   0.49990   0.00000  Uiso   1.00
C416   C     0.52430   0.75051   0.49996   0.00000  Uiso   1.00
C417   C     0.97570   0.75051   0.50005   0.00000  Uiso   1.00
C418   C     0.77624   0.60413   0.53318   0.00000  Uiso   1.00
C419   C     0.72085   0.89581   0.46996   0.00000  Uiso   1.00
C420   C     0.72376   0.60413   0.46682   0.00000  Uiso   1.00
C421   C     0.77915   0.89581   0.53004   0.00000  Uiso   1.00
C422   C     0.77587   0.55396   0.53413   0.00000  Uiso   1.00
C423   C     0.71999   0.94598   0.47033   0.00000  Uiso   1.00
C424   C     0.72413   0.55396   0.46587   0.00000  Uiso   1.00
Cu425  Cu    0.75000   0.79822   0.50000   0.00000  Uiso   1.00
Cu426  Cu    0.75000   0.70179   0.50000   0.00000  Uiso   1.00
H427   H     0.53153   0.82325   0.52655   0.00000  Uiso   1.00
H428   H     0.69525   0.96307   0.44697   0.00000  Uiso   1.00
H429   H     0.70380   0.53686   0.43776   0.00000  Uiso   1.00
H430   H     0.80474   0.96307   0.55303   0.00000  Uiso   1.00
H431   H     0.97050   0.67774   0.52664   0.00000  Uiso   1.00
H432   H     0.96847   0.82325   0.47345   0.00000  Uiso   1.00
H433   H     0.52950   0.67774   0.47336   0.00000  Uiso   1.00
H434   H     0.61186   0.82331   0.52541   0.00000  Uiso   1.00
H435   H     0.89028   0.67701   0.52494   0.00000  Uiso   1.00
H436   H     0.88814   0.82331   0.47459   0.00000  Uiso   1.00
H437   H     0.60972   0.67701   0.47506   0.00000  Uiso   1.00
H438   H     0.79620   0.53686   0.56224   0.00000  Uiso   1.00
N439   N     0.75000   0.62935   0.50000   0.00000  Uiso   1.00
N440   N     0.75000   0.87066   0.50000   0.00000  Uiso   1.00
O441   O     0.68573   0.79072   0.50000   0.00000  Uiso   1.00
O442   O     0.81427   0.70929   0.50000   0.00000  Uiso   1.00
O443   O     0.81427   0.79072   0.50000   0.00000  Uiso   1.00
O444   O     0.68573   0.70929   0.50000   0.00000  Uiso   1.00
O445   O     0.75000   0.79071   0.42946   0.00000  Uiso   1.00
O446   O     0.75000   0.70929   0.57054   0.00000  Uiso   1.00
O447   O     0.75000   0.79071   0.57054   0.00000  Uiso   1.00
O448   O     0.75000   0.70929   0.42946   0.00000  Uiso   1.00
Br449  Br    0.31568   0.13422   0.91362   0.00000  Uiso   1.00
Br450  Br    0.17963   0.36551   0.75821   0.00000  Uiso   1.00
Br451  Br    0.18432   0.13422   0.75305   0.00000  Uiso   1.00
Br452  Br    0.32037   0.36551   0.90846   0.00000  Uiso   1.00
C453   C     0.16505   0.25002   0.83335   0.00000  Uiso   1.00
C454   C     0.28001   0.44598   0.86301   0.00000  Uiso   1.00
C455   C     0.24995   0.25000   0.74028   0.00000  Uiso   1.00
C456   C     0.25005   0.25000   0.92638   0.00000  Uiso   1.00
C457   C     0.25000   0.02725   0.83333   0.00000  Uiso   1.00
C458   C     0.25000   0.47269   0.83333   0.00000  Uiso   1.00
C459   C     0.24998   0.25000   0.68853   0.00000  Uiso   1.00
C460   C     0.25002   0.25000   0.97813   0.00000  Uiso   1.00
C461   C     0.04822   0.29141   0.84773   0.00000  Uiso   1.00
C462   C     0.45291   0.20948   0.84777   0.00000  Uiso   1.00
C463   C     0.45178   0.29141   0.81894   0.00000  Uiso   1.00
C464   C     0.33495   0.25002   0.83332   0.00000  Uiso   1.00
C465   C     0.04709   0.20948   0.81890   0.00000  Uiso   1.00
C466   C     0.09412   0.29136   0.84740   0.00000  Uiso   1.00
C467   C     0.40702   0.20916   0.84719   0.00000  Uiso   1.00
C468   C     0.40588   0.29136   0.81927   0.00000  Uiso   1.00
C469   C     0.09298   0.20916   0.81947   0.00000  Uiso   1.00
C470   C     0.11678   0.25016   0.83343   0.00000  Uiso   1.00
C471   C     0.38322   0.25016   0.83324   0.00000  Uiso   1.00
C472   C     0.02430   0.25051   0.83329   0.00000  Uiso   1.00
C473   C     0.47570   0.25051   0.83338   0.00000  Uiso   1.00
C474   C     0.27624   0.10413   0.86651   0.00000  Uiso   1.00
C475   C     0.22085   0.39581   0.80329   0.00000  Uiso   1.00
C476   C     0.22376   0.10413   0.80016   0.00000  Uiso   1.00
C477   C     0.27915   0.39581   0.86338   0.00000  Uiso   1.00
C478   C     0.27587   0.05396   0.86746   0.00000  Uiso   1.00
C479   C     0.21999   0.44598   0.80366   0.00000  Uiso   1.00
C480   C     0.22413   0.05396   0.79920   0.00000  Uiso   1.00
Cu481  Cu    0.25000   0.29822   0.83333   0.00000  Uiso   1.00
Cu482  Cu    0.25000   0.20179   0.83333   0.00000  Uiso   1.00
H483   H     0.03153   0.32325   0.85988   0.00000  Uiso   1.00
H484   H     0.19525   0.46307   0.78030   0.00000  Uiso   1.00
H485   H     0.20380   0.03686   0.77109   0.00000  Uiso   1.00
H486   H     0.30474   0.46307   0.88637   0.00000  Uiso   1.00
H487   H     0.47050   0.17774   0.85997   0.00000  Uiso   1.00
H488   H     0.46847   0.32325   0.80678   0.00000  Uiso   1.00
H489   H     0.02950   0.17774   0.80669   0.00000  Uiso   1.00
H490   H     0.11186   0.32331   0.85875   0.00000  Uiso   1.00
H491   H     0.39028   0.17701   0.85827   0.00000  Uiso   1.00
H492   H     0.38814   0.32331   0.80792   0.00000  Uiso   1.00
H493   H     0.10972   0.17701   0.80840   0.00000  Uiso   1.00
H494   H     0.29620   0.03686   0.89558   0.00000  Uiso   1.00
N495   N     0.25000   0.12935   0.83333   0.00000  Uiso   1.00
N496   N     0.25000   0.37066   0.83333   0.00000  Uiso   1.00
O497   O     0.18573   0.29072   0.83334   0.00000  Uiso   1.00
O498   O     0.31427   0.20929   0.83333   0.00000  Uiso   1.00
O499   O     0.31427   0.29072   0.83333   0.00000  Uiso   1.00
O500   O     0.18573   0.20929   0.83334   0.00000  Uiso   1.00
O501   O     0.25000   0.29071   0.76280   0.00000  Uiso   1.00
O502   O     0.25000   0.20929   0.90387   0.00000  Uiso   1.00
O503   O     0.25000   0.29071   0.90387   0.00000  Uiso   1.00
O504   O     0.25000   0.20929   0.76280   0.00000  Uiso   1.00
Br505  Br    0.81568   0.13422   0.91362   0.00000  Uiso   1.00
Br506  Br    0.67963   0.36551   0.75821   0.00000  Uiso   1.00
Br507  Br    0.68432   0.13422   0.75305   0.00000  Uiso   1.00
Br508  Br    0.82037   0.36551   0.90846   0.00000  Uiso   1.00
C509   C     0.66505   0.25002   0.83335   0.00000  Uiso   1.00
C510   C     0.78001   0.44598   0.86301   0.00000  Uiso   1.00
C511   C     0.74995   0.25000   0.74028   0.00000  Uiso   1.00
C512   C     0.75005   0.25000   0.92638   0.00000  Uiso   1.00
C513   C     0.75000   0.02725   0.83333   0.00000  Uiso   1.00
C514   C     0.75000   0.47269   0.83333   0.00000  Uiso   1.00
C515   C     0.74998   0.25000   0.68853   0.00000  Uiso   1.00
C516   C     0.75002   0.25000   0.97813   0.00000  Uiso   1.00
C517   C     0.54822   0.29141   0.84773   0.00000  Uiso   1.00
C518   C     0.95291   0.20948   0.84777   0.00000  Uiso   1.00
C519   C     0.95178   0.29141   0.81894   0.00000  Uiso   1.00
C520   C     0.83495   0.25002   0.83332   0.00000  Uiso   1.00
C521   C     0.54709   0.20948   0.81890   0.00000  Uiso   1.00
C522   C     0.59412   0.29136   0.84740   0.00000  Uiso   1.00
C523   C     0.90702   0.20916   0.84719   0.00000  Uiso   1.00
C524   C     0.90588   0.29136   0.81927   0.00000  Uiso   1.00
C525   C     0.59298   0.20916   0.81947   0.00000  Uiso   1.00
C526   C     0.61678   0.25016   0.83343   0.00000  Uiso   1.00
C527   C     0.88322   0.25016   0.83324   0.00000  Uiso   1.00
C528   C     0.52430   0.25051   0.83329   0.00000  Uiso   1.00
C529   C     0.97570   0.25051   0.83338   0.00000  Uiso   1.00
C530   C     0.77624   0.10413   0.86651   0.00000  Uiso   1.00
C531   C     0.72085   0.39581   0.80329   0.00000  Uiso   1.00
C532   C     0.72376   0.10413   0.80016   0.00000  Uiso   1.00
C533   C     0.77915   0.39581   0.86338   0.00000  Uiso   1.00
C534   C     0.77587   0.05396   0.86746   0.00000  Uiso   1.00
C535   C     0.71999   0.44598   0.80366   0.00000  Uiso   1.00
C536   C     0.72413   0.05396   0.79920   0.00000  Uiso   1.00
Cu537  Cu    0.75000   0.29822   0.83333   0.00000  Uiso   1.00
Cu538  Cu    0.75000   0.20179   0.83333   0.00000  Uiso   1.00
H539   H     0.53153   0.32325   0.85988   0.00000  Uiso   1.00
H540   H     0.69525   0.46307   0.78030   0.00000  Uiso   1.00
H541   H     0.70380   0.03686   0.77109   0.00000  Uiso   1.00
H542   H     0.80474   0.46307   0.88637   0.00000  Uiso   1.00
H543   H     0.97050   0.17774   0.85997   0.00000  Uiso   1.00
H544   H     0.96847   0.32325   0.80678   0.00000  Uiso   1.00
H545   H     0.52950   0.17774   0.80669   0.00000  Uiso   1.00
H546   H     0.61186   0.32331   0.85875   0.00000  Uiso   1.00
H547   H     0.89028   0.17701   0.85827   0.00000  Uiso   1.00
H548   H     0.88814   0.32331   0.80792   0.00000  Uiso   1.00
H549   H     0.60972   0.17701   0.80840   0.00000  Uiso   1.00
H550   H     0.79620   0.03686   0.89558   0.00000  Uiso   1.00
N551   N     0.75000   0.12935   0.83333   0.00000  Uiso   1.00
N552   N     0.75000   0.37066   0.83333   0.00000  Uiso   1.00
O553   O     0.68573   0.29072   0.83334   0.00000  Uiso   1.00
O554   O     0.81427   0.20929   0.83333   0.00000  Uiso   1.00
O555   O     0.81427   0.29072   0.83333   0.00000  Uiso   1.00
O556   O     0.68573   0.20929   0.83334   0.00000  Uiso   1.00
O557   O     0.75000   0.29071   0.76280   0.00000  Uiso   1.00
O558   O     0.75000   0.20929   0.90387   0.00000  Uiso   1.00
O559   O     0.75000   0.29071   0.90387   0.00000  Uiso   1.00
O560   O     0.75000   0.20929   0.76280   0.00000  Uiso   1.00
Br561  Br    0.31568   0.63422   0.91362   0.00000  Uiso   1.00
Br562  Br    0.17963   0.86551   0.75821   0.00000  Uiso   1.00
Br563  Br    0.18432   0.63422   0.75305   0.00000  Uiso   1.00
Br564  Br    0.32037   0.86551   0.90846   0.00000  Uiso   1.00
C565   C     0.16505   0.75002   0.83335   0.00000  Uiso   1.00
C566   C     0.28001   0.94598   0.86301   0.00000  Uiso   1.00
C567   C     0.24995   0.75000   0.74028   0.00000  Uiso   1.00
C568   C     0.25005   0.75000   0.92638   0.00000  Uiso   1.00
C569   C     0.25000   0.52725   0.83333   0.00000  Uiso   1.00
C570   C     0.25000   0.97269   0.83333   0.00000  Uiso   1.00
C571   C     0.24998   0.75000   0.68853   0.00000  Uiso   1.00
C572   C     0.25002   0.75000   0.97813   0.00000  Uiso   1.00
C573   C     0.04822   0.79141   0.84773   0.00000  Uiso   1.00
C574   C     0.45291   0.70948   0.84777   0.00000  Uiso   1.00
C575   C     0.45178   0.79141   0.81894   0.00000  Uiso   1.00
C576   C     0.33495   0.75002   0.83332   0.00000  Uiso   1.00
C577   C     0.04709   0.70948   0.81890   0.00000  Uiso   1.00
C578   C     0.09412   0.79136   0.84740   0.00000  Uiso   1.00
C579   C     0.40702   0.70916   0.84719   0.00000  Uiso   1.00
C580   C     0.40588   0.79136   0.81927   0.00000  Uiso   1.00
C581   C     0.09298   0.70916   0.81947   0.00000  Uiso   1.00
C582   C     0.11678   0.75016   0.83343   0.00000  Uiso   1.00
C583   C     0.38322   0.75016   0.83324   0.00000  Uiso   1.00
C584   C     0.02430   0.75051   0.83329   0.00000  Uiso   1.00
C585   C     0.47570   0.75051   0.83338   0.00000  Uiso   1.00
C586   C     0.27624   0.60413   0.86651   0.00000  Uiso   1.00
C587   C     0.22085   0.89581   0.80329   0.00000  Uiso   1.00
C588   C     0.22376   0.60413   0.80016   0.00000  Uiso   1.00
C589   C     0.27915   0.89581   0.86338   0.00000  Uiso   1.00
C590   C     0.27587   0.55396   0.86746   0.00000  Uiso   1.00
C591   C     0.21999   0.94598   0.80366   0.00000  Uiso   1.00
C592   C     0.22413   0.55396   0.79920   0.00000  Uiso   1.00
Cu593  Cu    0.25000   0.79822   0.83333   0.00000  Uiso   1.00
Cu594  Cu    0.25000   0.70179   0.83333   0.00000  Uiso   1.00
H595   H     0.03153   0.82325   0.85988   0.00000  Uiso   1.00
H596   H     0.19525   0.96307   0.78030   0.00000  Uiso   1.00
H597   H     0.20380   0.53686   0.77109   0.00000  Uiso   1.00
H598   H     0.30474   0.96307   0.88637   0.00000  Uiso   1.00
H599   H     0.47050   0.67774   0.85997   0.00000  Uiso   1.00
H600   H     0.46847   0.82325   0.80678   0.00000  Uiso   1.00
H601   H     0.02950   0.67774   0.80669   0.00000  Uiso   1.00
H602   H     0.11186   0.82331   0.85875   0.00000  Uiso   1.00
H603   H     0.39028   0.67701   0.85827   0.00000  Uiso   1.00
H604   H     0.38814   0.82331   0.80792   0.00000  Uiso   1.00
H605   H     0.10972   0.67701   0.80840   0.00000  Uiso   1.00
H606   H     0.29620   0.53686   0.89558   0.00000  Uiso   1.00
N607   N     0.25000   0.62935   0.83333   0.00000  Uiso   1.00
N608   N     0.25000   0.87066   0.83333   0.00000  Uiso   1.00
O609   O     0.18573   0.79072   0.83334   0.00000  Uiso   1.00
O610   O     0.31427   0.70929   0.83333   0.00000  Uiso   1.00
O611   O     0.31427   0.79072   0.83333   0.00000  Uiso   1.00
O612   O     0.18573   0.70929   0.83334   0.00000  Uiso   1.00
O613   O     0.25000   0.79071   0.76280   0.00000  Uiso   1.00
O614   O     0.25000   0.70929   0.90387   0.00000  Uiso   1.00
O615   O     0.25000   0.79071   0.90387   0.00000  Uiso   1.00
O616   O     0.25000   0.70929   0.76280   0.00000  Uiso   1.00
Br617  Br    0.81568   0.63422   0.91362   0.00000  Uiso   1.00
Br618  Br    0.67963   0.86551   0.75821   0.00000  Uiso   1.00
Br619  Br    0.68432   0.63422   0.75305   0.00000  Uiso   1.00
Br620  Br    0.82037   0.86551   0.90846   0.00000  Uiso   1.00
C621   C     0.66505   0.75002   0.83335   0.00000  Uiso   1.00
C622   C     0.78001   0.94598   0.86301   0.00000  Uiso   1.00
C623   C     0.74995   0.75000   0.74028   0.00000  Uiso   1.00
C624   C     0.75005   0.75000   0.92638   0.00000  Uiso   1.00
C625   C     0.75000   0.52725   0.83333   0.00000  Uiso   1.00
C626   C     0.75000   0.97269   0.83333   0.00000  Uiso   1.00
C627   C     0.74998   0.75000   0.68853   0.00000  Uiso   1.00
C628   C     0.75002   0.75000   0.97813   0.00000  Uiso   1.00
C629   C     0.54822   0.79141   0.84773   0.00000  Uiso   1.00
C630   C     0.95291   0.70948   0.84777   0.00000  Uiso   1.00
C631   C     0.95178   0.79141   0.81894   0.00000  Uiso   1.00
C632   C     0.83495   0.75002   0.83332   0.00000  Uiso   1.00
C633   C     0.54709   0.70948   0.81890   0.00000  Uiso   1.00
C634   C     0.59412   0.79136   0.84740   0.00000  Uiso   1.00
C635   C     0.90702   0.70916   0.84719   0.00000  Uiso   1.00
C636   C     0.90588   0.79136   0.81927   0.00000  Uiso   1.00
C637   C     0.59298   0.70916   0.81947   0.00000  Uiso   1.00
C638   C     0.61678   0.75016   0.83343   0.00000  Uiso   1.00
C639   C     0.88322   0.75016   0.83324   0.00000  Uiso   1.00
C640   C     0.52430   0.75051   0.83329   0.00000  Uiso   1.00
C641   C     0.97570   0.75051   0.83338   0.00000  Uiso   1.00
C642   C     0.77624   0.60413   0.86651   0.00000  Uiso   1.00
C643   C     0.72085   0.89581   0.80329   0.00000  Uiso   1.00
C644   C     0.72376   0.60413   0.80016   0.00000  Uiso   1.00
C645   C     0.77915   0.89581   0.86338   0.00000  Uiso   1.00
C646   C     0.77587   0.55396   0.86746   0.00000  Uiso   1.00
C647   C     0.71999   0.94598   0.80366   0.00000  Uiso   1.00
C648   C     0.72413   0.55396   0.79920   0.00000  Uiso   1.00
Cu649  Cu    0.75000   0.79822   0.83333   0.00000  Uiso   1.00
Cu650  Cu    0.75000   0.70179   0.83333   0.00000  Uiso   1.00
H651   H     0.53153   0.82325   0.85988   0.00000  Uiso   1.00
H652   H     0.69525   0.96307   0.78030   0.00000  Uiso   1.00
H653   H     0.70380   0.53686   0.77109   0.00000  Uiso   1.00
H654   H     0.80474   0.96307   0.88637   0.00000  Uiso   1.00
H655   H     0.97050   0.67774   0.85997   0.00000  Uiso   1.00
H656   H     0.96847   0.82325   0.80678   0.00000  Uiso   1.00
H657   H     0.52950   0.67774   0.80669   0.00000  Uiso   1.00
H658   H     0.61186   0.82331   0.85875   0.00000  Uiso   1.00
H659   H     0.89028   0.67701   0.85827   0.00000  Uiso   1.00
H660   H     0.88814   0.82331   0.80792   0.00000  Uiso   1.00
H661   H     0.60972   0.67701   0.80840   0.00000  Uiso   1.00
H662   H     0.79620   0.53686   0.89558   0.00000  Uiso   1.00
N663   N     0.75000   0.62935   0.83333   0.00000  Uiso   1.00
N664   N     0.75000   0.87066   0.83333   0.00000  Uiso   1.00
O665   O     0.68573   0.79072   0.83334   0.00000  Uiso   1.00
O666   O     0.81427   0.70929   0.83333   0.00000  Uiso   1.00
O667   O     0.81427   0.79072   0.83333   0.00000  Uiso   1.00
O668   O     0.68573   0.70929   0.83334   0.00000  Uiso   1.00
O669   O     0.75000   0.79071   0.76280   0.00000  Uiso   1.00
O670   O     0.75000   0.70929   0.90387   0.00000  Uiso   1.00
O671   O     0.75000   0.79071   0.90387   0.00000  Uiso   1.00
O672   O     0.75000   0.70929   0.76280   0.00000  Uiso   1.00
loop_
_geom_bond_atom_site_label_1
_geom_bond_atom_site_label_2
_geom_bond_distance
_geom_bond_site_symmetry_2
_ccdc_geom_bond_type
Br1    C26     1.916   .     S
Br2    C27     1.917   .     S
Br3    C28     1.916   .     S
Br4    C29     1.917   .     S
C5     O52     1.302   .     A
C5     O49     1.301   .     A
C5     C22     1.462   .     S
C6     H38     1.077   .     S
C6     C10     1.409   .     A
C6     C29     1.406   .     A
C7     C11     1.408   .     S
C7     O56     1.295   .     A
C7     O53     1.294   .     A
C8     C12     1.408   .     S
C8     O55     1.294   .     A
C8     O54     1.295   .     A
C9     C30     1.408   .     A
C9     C32     1.408   .     A
C9     C122    1.528   1_545 S
C10    C31     1.409   .     A
C10    C121    1.528   .     S
C11    C460    1.190   1_554 S
C12    C235    1.190   .     S
C13    C18     1.391   .     A
C13    H35     1.083   .     S
C13    C24     1.404   .     A
C14    C25     1.404   .     A
C14    H39     1.083   .     S
C14    C19     1.389   .     A
C15    C20     1.391   .     A
C15    H40     1.083   .     S
C15    C25     1.404   .     A
C16    C23     1.462   .     S
C16    O51     1.301   .     A
C16    O50     1.302   .     A
C17    H41     1.083   .     S
C17    C24     1.404   .     A
C17    C21     1.389   .     A
C18    H42     1.083   .     S
C18    C22     1.402   .     A
C19    C23     1.401   .     A
C19    H43     1.082   .     S
C20    C23     1.402   .     A
C20    H44     1.083   .     S
C21    C22     1.401   .     A
C21    H45     1.082   .     S
C24    C81     1.472   1_455 S
C25    C80     1.472   .     S
C26    N47     1.376   .     A
C26    C30     1.406   .     A
C27    N48     1.376   .     A
C27    C31     1.406   .     A
C28    N47     1.376   .     A
C28    C32     1.406   .     A
C29    N48     1.376   .     A
C30    H46     1.077   .     S
C31    H36     1.077   .     S
C32    H37     1.077   .     S
Cu33   O55     1.931   .     S
Cu33   O51     1.958   .     S
Cu33   Cu34    2.701   .     S
Cu33   O53     1.931   .     S
Cu33   O49     1.958   .     S
Cu33   N48     2.029   .     S
Cu34   O56     1.931   .     S
Cu34   O52     1.958   .     S
Cu34   O54     1.931   .     S
Cu34   O50     1.958   .     S
Cu34   N47     2.029   .     S
Br57   C82     1.916   .     S
Br58   C83     1.917   .     S
Br59   C84     1.916   .     S
Br60   C85     1.917   .     S
C61    O108    1.302   .     A
C61    O105    1.301   .     A
C61    C78     1.462   .     S
C62    H94     1.077   .     S
C62    C66     1.409   .     A
C62    C85     1.406   .     A
C63    C67     1.408   .     S
C63    O112    1.295   .     A
C63    O109    1.294   .     A
C64    C68     1.408   .     S
C64    O111    1.294   .     A
C64    O110    1.295   .     A
C65    C86     1.408   .     A
C65    C88     1.408   .     A
C65    C178    1.528   1_545 S
C66    C87     1.409   .     A
C66    C177    1.528   .     S
C67    C516    1.190   1_554 S
C68    C291    1.190   .     S
C69    C74     1.391   .     A
C69    H91     1.083   .     S
C69    C80     1.404   .     A
C70    C81     1.404   .     A
C70    H95     1.083   .     S
C70    C75     1.389   .     A
C71    C76     1.391   .     A
C71    H96     1.083   .     S
C71    C81     1.404   .     A
C72    C79     1.462   .     S
C72    O107    1.301   .     A
C72    O106    1.302   .     A
C73    H97     1.083   .     S
C73    C80     1.404   .     A
C73    C77     1.389   .     A
C74    H98     1.083   .     S
C74    C78     1.402   .     A
C75    C79     1.401   .     A
C75    H99     1.082   .     S
C76    C79     1.402   .     A
C76    H100    1.083   .     S
C77    C78     1.401   .     A
C77    H101    1.082   .     S
C81    C24     1.472   1_655 S
C82    N103    1.376   .     A
C82    C86     1.406   .     A
C83    N104    1.376   .     A
C83    C87     1.406   .     A
C84    N103    1.376   .     A
C84    C88     1.406   .     A
C85    N104    1.376   .     A
C86    H102    1.077   .     S
C87    H92     1.077   .     S
C88    H93     1.077   .     S
Cu89   O111    1.931   .     S
Cu89   O107    1.958   .     S
Cu89   Cu90    2.701   .     S
Cu89   O109    1.931   .     S
Cu89   O105    1.958   .     S
Cu89   N104    2.029   .     S
Cu90   O112    1.931   .     S
Cu90   O108    1.958   .     S
Cu90   O110    1.931   .     S
Cu90   O106    1.958   .     S
Cu90   N103    2.029   .     S
Br113  C138    1.916   .     S
Br114  C139    1.917   .     S
Br115  C140    1.916   .     S
Br116  C141    1.917   .     S
C117   O164    1.302   .     A
C117   O161    1.301   .     A
C117   C134    1.462   .     S
C118   H150    1.077   .     S
C118   C122    1.409   .     A
C118   C141    1.406   .     A
C119   C123    1.408   .     S
C119   O168    1.295   .     A
C119   O165    1.294   .     A
C120   C124    1.408   .     S
C120   O167    1.294   .     A
C120   O166    1.295   .     A
C121   C142    1.408   .     A
C121   C144    1.408   .     A
C122   C143    1.409   .     A
C122   C9      1.528   1_565 S
C123   C572    1.190   1_554 S
C124   C347    1.190   .     S
C125   C130    1.391   .     A
C125   H147    1.083   .     S
C125   C136    1.404   .     A
C126   C137    1.404   .     A
C126   H151    1.083   .     S
C126   C131    1.389   .     A
C127   C132    1.391   .     A
C127   H152    1.083   .     S
C127   C137    1.404   .     A
C128   C135    1.462   .     S
C128   O163    1.301   .     A
C128   O162    1.302   .     A
C129   H153    1.083   .     S
C129   C136    1.404   .     A
C129   C133    1.389   .     A
C130   H154    1.083   .     S
C130   C134    1.402   .     A
C131   C135    1.401   .     A
C131   H155    1.082   .     S
C132   C135    1.402   .     A
C132   H156    1.083   .     S
C133   C134    1.401   .     A
C133   H157    1.082   .     S
C136   C193    1.472   1_455 S
C137   C192    1.472   .     S
C138   N159    1.376   .     A
C138   C142    1.406   .     A
C139   N160    1.376   .     A
C139   C143    1.406   .     A
C140   N159    1.376   .     A
C140   C144    1.406   .     A
C141   N160    1.376   .     A
C142   H158    1.077   .     S
C143   H148    1.077   .     S
C144   H149    1.077   .     S
Cu145  O167    1.931   .     S
Cu145  O163    1.958   .     S
Cu145  Cu146   2.701   .     S
Cu145  O165    1.931   .     S
Cu145  O161    1.958   .     S
Cu145  N160    2.029   .     S
Cu146  O168    1.931   .     S
Cu146  O164    1.958   .     S
Cu146  O166    1.931   .     S
Cu146  O162    1.958   .     S
Cu146  N159    2.029   .     S
Br169  C194    1.916   .     S
Br170  C195    1.917   .     S
Br171  C196    1.916   .     S
Br172  C197    1.917   .     S
C173   O220    1.302   .     A
C173   O217    1.301   .     A
C173   C190    1.462   .     S
C174   H206    1.077   .     S
C174   C178    1.409   .     A
C174   C197    1.406   .     A
C175   C179    1.408   .     S
C175   O224    1.295   .     A
C175   O221    1.294   .     A
C176   C180    1.408   .     S
C176   O223    1.294   .     A
C176   O222    1.295   .     A
C177   C198    1.408   .     A
C177   C200    1.408   .     A
C178   C199    1.409   .     A
C178   C65     1.528   1_565 S
C179   C628    1.190   1_554 S
C180   C403    1.190   .     S
C181   C186    1.391   .     A
C181   H203    1.083   .     S
C181   C192    1.404   .     A
C182   C193    1.404   .     A
C182   H207    1.083   .     S
C182   C187    1.389   .     A
C183   C188    1.391   .     A
C183   H208    1.083   .     S
C183   C193    1.404   .     A
C184   C191    1.462   .     S
C184   O219    1.301   .     A
C184   O218    1.302   .     A
C185   H209    1.083   .     S
C185   C192    1.404   .     A
C185   C189    1.389   .     A
C186   H210    1.083   .     S
C186   C190    1.402   .     A
C187   C191    1.401   .     A
C187   H211    1.082   .     S
C188   C191    1.402   .     A
C188   H212    1.083   .     S
C189   C190    1.401   .     A
C189   H213    1.082   .     S
C193   C136    1.472   1_655 S
C194   N215    1.376   .     A
C194   C198    1.406   .     A
C195   N216    1.376   .     A
C195   C199    1.406   .     A
C196   N215    1.376   .     A
C196   C200    1.406   .     A
C197   N216    1.376   .     A
C198   H214    1.077   .     S
C199   H204    1.077   .     S
C200   H205    1.077   .     S
Cu201  O223    1.931   .     S
Cu201  O219    1.958   .     S
Cu201  Cu202   2.701   .     S
Cu201  O221    1.931   .     S
Cu201  O217    1.958   .     S
Cu201  N216    2.029   .     S
Cu202  O224    1.931   .     S
Cu202  O220    1.958   .     S
Cu202  O222    1.931   .     S
Cu202  O218    1.958   .     S
Cu202  N215    2.029   .     S
Br225  C250    1.916   .     S
Br226  C251    1.917   .     S
Br227  C252    1.916   .     S
Br228  C253    1.917   .     S
C229   O276    1.302   .     A
C229   O273    1.301   .     A
C229   C246    1.462   .     S
C230   H262    1.077   .     S
C230   C234    1.409   .     A
C230   C253    1.406   .     A
C231   C235    1.408   .     S
C231   O280    1.295   .     A
C231   O277    1.294   .     A
C232   C236    1.408   .     S
C232   O279    1.294   .     A
C232   O278    1.295   .     A
C233   C254    1.408   .     A
C233   C256    1.408   .     A
C233   C346    1.528   1_545 S
C234   C255    1.409   .     A
C234   C345    1.528   .     S
C236   C459    1.190   .     S
C237   C242    1.391   .     A
C237   H259    1.083   .     S
C237   C248    1.404   .     A
C238   C249    1.404   .     A
C238   H263    1.083   .     S
C238   C243    1.389   .     A
C239   C244    1.391   .     A
C239   H264    1.083   .     S
C239   C249    1.404   .     A
C240   C247    1.462   .     S
C240   O275    1.301   .     A
C240   O274    1.302   .     A
C241   H265    1.083   .     S
C241   C248    1.404   .     A
C241   C245    1.389   .     A
C242   H266    1.083   .     S
C242   C246    1.402   .     A
C243   C247    1.401   .     A
C243   H267    1.082   .     S
C244   C247    1.402   .     A
C244   H268    1.083   .     S
C245   C246    1.401   .     A
C245   H269    1.082   .     S
C248   C305    1.472   1_455 S
C249   C304    1.472   .     S
C250   N271    1.376   .     A
C250   C254    1.406   .     A
C251   N272    1.376   .     A
C251   C255    1.406   .     A
C252   N271    1.376   .     A
C252   C256    1.406   .     A
C253   N272    1.376   .     A
C254   H270    1.077   .     S
C255   H260    1.077   .     S
C256   H261    1.077   .     S
Cu257  O279    1.931   .     S
Cu257  O275    1.958   .     S
Cu257  Cu258   2.701   .     S
Cu257  O277    1.931   .     S
Cu257  O273    1.958   .     S
Cu257  N272    2.029   .     S
Cu258  O280    1.931   .     S
Cu258  O276    1.958   .     S
Cu258  O278    1.931   .     S
Cu258  O274    1.958   .     S
Cu258  N271    2.029   .     S
Br281  C306    1.916   .     S
Br282  C307    1.917   .     S
Br283  C308    1.916   .     S
Br284  C309    1.917   .     S
C285   O332    1.302   .     A
C285   O329    1.301   .     A
C285   C302    1.462   .     S
C286   H318    1.077   .     S
C286   C290    1.409   .     A
C286   C309    1.406   .     A
C287   C291    1.408   .     S
C287   O336    1.295   .     A
C287   O333    1.294   .     A
C288   C292    1.408   .     S
C288   O335    1.294   .     A
C288   O334    1.295   .     A
C289   C310    1.408   .     A
C289   C312    1.408   .     A
C289   C402    1.528   1_545 S
C290   C311    1.409   .     A
C290   C401    1.528   .     S
C292   C515    1.190   .     S
C293   C298    1.391   .     A
C293   H315    1.083   .     S
C293   C304    1.404   .     A
C294   C305    1.404   .     A
C294   H319    1.083   .     S
C294   C299    1.389   .     A
C295   C300    1.391   .     A
C295   H320    1.083   .     S
C295   C305    1.404   .     A
C296   C303    1.462   .     S
C296   O331    1.301   .     A
C296   O330    1.302   .     A
C297   H321    1.083   .     S
C297   C304    1.404   .     A
C297   C301    1.389   .     A
C298   H322    1.083   .     S
C298   C302    1.402   .     A
C299   C303    1.401   .     A
C299   H323    1.082   .     S
C300   C303    1.402   .     A
C300   H324    1.083   .     S
C301   C302    1.401   .     A
C301   H325    1.082   .     S
C305   C248    1.472   1_655 S
C306   N327    1.376   .     A
C306   C310    1.406   .     A
C307   N328    1.376   .     A
C307   C311    1.406   .     A
C308   N327    1.376   .     A
C308   C312    1.406   .     A
C309   N328    1.376   .     A
C310   H326    1.077   .     S
C311   H316    1.077   .     S
C312   H317    1.077   .     S
Cu313  O335    1.931   .     S
Cu313  O331    1.958   .     S
Cu313  Cu314   2.701   .     S
Cu313  O333    1.931   .     S
Cu313  O329    1.958   .     S
Cu313  N328    2.029   .     S
Cu314  O336    1.931   .     S
Cu314  O332    1.958   .     S
Cu314  O334    1.931   .     S
Cu314  O330    1.958   .     S
Cu314  N327    2.029   .     S
Br337  C362    1.916   .     S
Br338  C363    1.917   .     S
Br339  C364    1.916   .     S
Br340  C365    1.917   .     S
C341   O388    1.302   .     A
C341   O385    1.301   .     A
C341   C358    1.462   .     S
C342   H374    1.077   .     S
C342   C346    1.409   .     A
C342   C365    1.406   .     A
C343   C347    1.408   .     S
C343   O392    1.295   .     A
C343   O389    1.294   .     A
C344   C348    1.408   .     S
C344   O391    1.294   .     A
C344   O390    1.295   .     A
C345   C366    1.408   .     A
C345   C368    1.408   .     A
C346   C367    1.409   .     A
C346   C233    1.528   1_565 S
C348   C571    1.190   .     S
C349   C354    1.391   .     A
C349   H371    1.083   .     S
C349   C360    1.404   .     A
C350   C361    1.404   .     A
C350   H375    1.083   .     S
C350   C355    1.389   .     A
C351   C356    1.391   .     A
C351   H376    1.083   .     S
C351   C361    1.404   .     A
C352   C359    1.462   .     S
C352   O387    1.301   .     A
C352   O386    1.302   .     A
C353   H377    1.083   .     S
C353   C360    1.404   .     A
C353   C357    1.389   .     A
C354   H378    1.083   .     S
C354   C358    1.402   .     A
C355   C359    1.401   .     A
C355   H379    1.082   .     S
C356   C359    1.402   .     A
C356   H380    1.083   .     S
C357   C358    1.401   .     A
C357   H381    1.082   .     S
C360   C417    1.472   1_455 S
C361   C416    1.472   .     S
C362   N383    1.376   .     A
C362   C366    1.406   .     A
C363   N384    1.376   .     A
C363   C367    1.406   .     A
C364   N383    1.376   .     A
C364   C368    1.406   .     A
C365   N384    1.376   .     A
C366   H382    1.077   .     S
C367   H372    1.077   .     S
C368   H373    1.077   .     S
Cu369  O391    1.931   .     S
Cu369  O387    1.958   .     S
Cu369  Cu370   2.701   .     S
Cu369  O389    1.931   .     S
Cu369  O385    1.958   .     S
Cu369  N384    2.029   .     S
Cu370  O392    1.931   .     S
Cu370  O388    1.958   .     S
Cu370  O390    1.931   .     S
Cu370  O386    1.958   .     S
Cu370  N383    2.029   .     S
Br393  C418    1.916   .     S
Br394  C419    1.917   .     S
Br395  C420    1.916   .     S
Br396  C421    1.917   .     S
C397   O444    1.302   .     A
C397   O441    1.301   .     A
C397   C414    1.462   .     S
C398   H430    1.077   .     S
C398   C402    1.409   .     A
C398   C421    1.406   .     A
C399   C403    1.408   .     S
C399   O448    1.295   .     A
C399   O445    1.294   .     A
C400   C404    1.408   .     S
C400   O447    1.294   .     A
C400   O446    1.295   .     A
C401   C422    1.408   .     A
C401   C424    1.408   .     A
C402   C423    1.409   .     A
C402   C289    1.528   1_565 S
C404   C627    1.190   .     S
C405   C410    1.391   .     A
C405   H427    1.083   .     S
C405   C416    1.404   .     A
C406   C417    1.404   .     A
C406   H431    1.083   .     S
C406   C411    1.389   .     A
C407   C412    1.391   .     A
C407   H432    1.083   .     S
C407   C417    1.404   .     A
C408   C415    1.462   .     S
C408   O443    1.301   .     A
C408   O442    1.302   .     A
C409   H433    1.083   .     S
C409   C416    1.404   .     A
C409   C413    1.389   .     A
C410   H434    1.083   .     S
C410   C414    1.402   .     A
C411   C415    1.401   .     A
C411   H435    1.082   .     S
C412   C415    1.402   .     A
C412   H436    1.083   .     S
C413   C414    1.401   .     A
C413   H437    1.082   .     S
C417   C360    1.472   1_655 S
C418   N439    1.376   .     A
C418   C422    1.406   .     A
C419   N440    1.376   .     A
C419   C423    1.406   .     A
C420   N439    1.376   .     A
C420   C424    1.406   .     A
C421   N440    1.376   .     A
C422   H438    1.077   .     S
C423   H428    1.077   .     S
C424   H429    1.077   .     S
Cu425  O447    1.931   .     S
Cu425  O443    1.958   .     S
Cu425  Cu426   2.701   .     S
Cu425  O445    1.931   .     S
Cu425  O441    1.958   .     S
Cu425  N440    2.029   .     S
Cu426  O448    1.931   .     S
Cu426  O444    1.958   .     S
Cu426  O446    1.931   .     S
Cu426  O442    1.958   .     S
Cu426  N439    2.029   .     S
Br449  C474    1.916   .     S
Br450  C475    1.917   .     S
Br451  C476    1.916   .     S
Br452  C477    1.917   .     S
C453   O500    1.302   .     A
C453   O497    1.301   .     A
C453   C470    1.462   .     S
C454   H486    1.077   .     S
C454   C458    1.409   .     A
C454   C477    1.406   .     A
C455   C459    1.408   .     S
C455   O504    1.295   .     A
C455   O501    1.294   .     A
C456   C460    1.408   .     S
C456   O503    1.294   .     A
C456   O502    1.295   .     A
C457   C478    1.408   .     A
C457   C480    1.408   .     A
C457   C570    1.528   1_545 S
C458   C479    1.409   .     A
C458   C569    1.528   .     S
C460   C11     1.190   1_556 S
C461   C466    1.391   .     A
C461   H483    1.083   .     S
C461   C472    1.404   .     A
C462   C473    1.404   .     A
C462   H487    1.083   .     S
C462   C467    1.389   .     A
C463   C468    1.391   .     A
C463   H488    1.083   .     S
C463   C473    1.404   .     A
C464   C471    1.462   .     S
C464   O499    1.301   .     A
C464   O498    1.302   .     A
C465   H489    1.083   .     S
C465   C472    1.404   .     A
C465   C469    1.389   .     A
C466   H490    1.083   .     S
C466   C470    1.402   .     A
C467   C471    1.401   .     A
C467   H491    1.082   .     S
C468   C471    1.402   .     A
C468   H492    1.083   .     S
C469   C470    1.401   .     A
C469   H493    1.082   .     S
C472   C529    1.472   1_455 S
C473   C528    1.472   .     S
C474   N495    1.376   .     A
C474   C478    1.406   .     A
C475   N496    1.376   .     A
C475   C479    1.406   .     A
C476   N495    1.376   .     A
C476   C480    1.406   .     A
C477   N496    1.376   .     A
C478   H494    1.077   .     S
C479   H484    1.077   .     S
C480   H485    1.077   .     S
Cu481  O503    1.931   .     S
Cu481  O499    1.958   .     S
Cu481  Cu482   2.701   .     S
Cu481  O501    1.931   .     S
Cu481  O497    1.958   .     S
Cu481  N496    2.029   .     S
Cu482  O504    1.931   .     S
Cu482  O500    1.958   .     S
Cu482  O502    1.931   .     S
Cu482  O498    1.958   .     S
Cu482  N495    2.029   .     S
Br505  C530    1.916   .     S
Br506  C531    1.917   .     S
Br507  C532    1.916   .     S
Br508  C533    1.917   .     S
C509   O556    1.302   .     A
C509   O553    1.301   .     A
C509   C526    1.462   .     S
C510   H542    1.077   .     S
C510   C514    1.409   .     A
C510   C533    1.406   .     A
C511   C515    1.408   .     S
C511   O560    1.295   .     A
C511   O557    1.294   .     A
C512   C516    1.408   .     S
C512   O559    1.294   .     A
C512   O558    1.295   .     A
C513   C534    1.408   .     A
C513   C536    1.408   .     A
C513   C626    1.528   1_545 S
C514   C535    1.409   .     A
C514   C625    1.528   .     S
C516   C67     1.190   1_556 S
C517   C522    1.391   .     A
C517   H539    1.083   .     S
C517   C528    1.404   .     A
C518   C529    1.404   .     A
C518   H543    1.083   .     S
C518   C523    1.389   .     A
C519   C524    1.391   .     A
C519   H544    1.083   .     S
C519   C529    1.404   .     A
C520   C527    1.462   .     S
C520   O555    1.301   .     A
C520   O554    1.302   .     A
C521   H545    1.083   .     S
C521   C528    1.404   .     A
C521   C525    1.389   .     A
C522   H546    1.083   .     S
C522   C526    1.402   .     A
C523   C527    1.401   .     A
C523   H547    1.082   .     S
C524   C527    1.402   .     A
C524   H548    1.083   .     S
C525   C526    1.401   .     A
C525   H549    1.082   .     S
C529   C472    1.472   1_655 S
C530   N551    1.376   .     A
C530   C534    1.406   .     A
C531   N552    1.376   .     A
C531   C535    1.406   .     A
C532   N551    1.376   .     A
C532   C536    1.406   .     A
C533   N552    1.376   .     A
C534   H550    1.077   .     S
C535   H540    1.077   .     S
C536   H541    1.077   .     S
Cu537  O559    1.931   .     S
Cu537  O555    1.958   .     S
Cu537  Cu538   2.701   .     S
Cu537  O557    1.931   .     S
Cu537  O553    1.958   .     S
Cu537  N552    2.029   .     S
Cu538  O560    1.931   .     S
Cu538  O556    1.958   .     S
Cu538  O558    1.931   .     S
Cu538  O554    1.958   .     S
Cu538  N551    2.029   .     S
Br561  C586    1.916   .     S
Br562  C587    1.917   .     S
Br563  C588    1.916   .     S
Br564  C589    1.917   .     S
C565   O612    1.302   .     A
C565   O609    1.301   .     A
C565   C582    1.462   .     S
C566   H598    1.077   .     S
C566   C570    1.409   .     A
C566   C589    1.406   .     A
C567   C571    1.408   .     S
C567   O616    1.295   .     A
C567   O613    1.294   .     A
C568   C572    1.408   .     S
C568   O615    1.294   .     A
C568   O614    1.295   .     A
C569   C590    1.408   .     A
C569   C592    1.408   .     A
C570   C591    1.409   .     A
C570   C457    1.528   1_565 S
C572   C123    1.190   1_556 S
C573   C578    1.391   .     A
C573   H595    1.083   .     S
C573   C584    1.404   .     A
C574   C585    1.404   .     A
C574   H599    1.083   .     S
C574   C579    1.389   .     A
C575   C580    1.391   .     A
C575   H600    1.083   .     S
C575   C585    1.404   .     A
C576   C583    1.462   .     S
C576   O611    1.301   .     A
C576   O610    1.302   .     A
C577   H601    1.083   .     S
C577   C584    1.404   .     A
C577   C581    1.389   .     A
C578   H602    1.083   .     S
C578   C582    1.402   .     A
C579   C583    1.401   .     A
C579   H603    1.082   .     S
C580   C583    1.402   .     A
C580   H604    1.083   .     S
C581   C582    1.401   .     A
C581   H605    1.082   .     S
C584   C641    1.472   1_455 S
C585   C640    1.472   .     S
C586   N607    1.376   .     A
C586   C590    1.406   .     A
C587   N608    1.376   .     A
C587   C591    1.406   .     A
C588   N607    1.376   .     A
C588   C592    1.406   .     A
C589   N608    1.376   .     A
C590   H606    1.077   .     S
C591   H596    1.077   .     S
C592   H597    1.077   .     S
Cu593  O615    1.931   .     S
Cu593  O611    1.958   .     S
Cu593  Cu594   2.701   .     S
Cu593  O613    1.931   .     S
Cu593  O609    1.958   .     S
Cu593  N608    2.029   .     S
Cu594  O616    1.931   .     S
Cu594  O612    1.958   .     S
Cu594  O614    1.931   .     S
Cu594  O610    1.958   .     S
Cu594  N607    2.029   .     S
Br617  C642    1.916   .     S
Br618  C643    1.917   .     S
Br619  C644    1.916   .     S
Br620  C645    1.917   .     S
C621   O668    1.302   .     A
C621   O665    1.301   .     A
C621   C638    1.462   .     S
C622   H654    1.077   .     S
C622   C626    1.409   .     A
C622   C645    1.406   .     A
C623   C627    1.408   .     S
C623   O672    1.295   .     A
C623   O669    1.294   .     A
C624   C628    1.408   .     S
C624   O671    1.294   .     A
C624   O670    1.295   .     A
C625   C646    1.408   .     A
C625   C648    1.408   .     A
C626   C647    1.409   .     A
C626   C513    1.528   1_565 S
C628   C179    1.190   1_556 S
C629   C634    1.391   .     A
C629   H651    1.083   .     S
C629   C640    1.404   .     A
C630   C641    1.404   .     A
C630   H655    1.083   .     S
C630   C635    1.389   .     A
C631   C636    1.391   .     A
C631   H656    1.083   .     S
C631   C641    1.404   .     A
C632   C639    1.462   .     S
C632   O667    1.301   .     A
C632   O666    1.302   .     A
C633   H657    1.083   .     S
C633   C640    1.404   .     A
C633   C637    1.389   .     A
C634   H658    1.083   .     S
C634   C638    1.402   .     A
C635   C639    1.401   .     A
C635   H659    1.082   .     S
C636   C639    1.402   .     A
C636   H660    1.083   .     S
C637   C638    1.401   .     A
C637   H661    1.082   .     S
C641   C584    1.472   1_655 S
C642   N663    1.376   .     A
C642   C646    1.406   .     A
C643   N664    1.376   .     A
C643   C647    1.406   .     A
C644   N663    1.376   .     A
C644   C648    1.406   .     A
C645   N664    1.376   .     A
C646   H662    1.077   .     S
C647   H652    1.077   .     S
C648   H653    1.077   .     S
Cu649  O671    1.931   .     S
Cu649  O667    1.958   .     S
Cu649  Cu650   2.701   .     S
Cu649  O669    1.931   .     S
Cu649  O665    1.958   .     S
Cu649  N664    2.029   .     S
Cu650  O672    1.931   .     S
Cu650  O668    1.958   .     S
Cu650  O670    1.931   .     S
Cu650  O666    1.958   .     S
Cu650  N663    2.029   .     S
