data_str_m3_o10_o18_pcu_sym.1
_audit_creation_date              2020-01-03
_audit_creation_method            'Materials Studio'
_symmetry_space_group_name_H-M    'P1'
_symmetry_Int_Tables_number       1
_symmetry_cell_setting            triclinic
loop_
_symmetry_equiv_pos_as_xyz
  x,y,z
_cell_length_a                    23.5197
_cell_length_b                    25.7073
_cell_length_c                    27.5887
_cell_angle_alpha                 93.3151
_cell_angle_beta                  93.1786
_cell_angle_gamma                 94.2461
loop_
_atom_site_label
_atom_site_type_symbol
_atom_site_fract_x
_atom_site_fract_y
_atom_site_fract_z
_atom_site_U_iso_or_equiv
_atom_site_adp_type
_atom_site_occupancy
C1     C     0.01507   0.26489   0.24881   0.00000  Uiso   1.00
C2     C     0.31230   0.16304   0.15900   0.00000  Uiso   1.00
C3     C     0.03355   0.18247   0.39267   0.00000  Uiso   1.00
C4     C     0.30250   0.16068   0.10649   0.00000  Uiso   1.00
C5     C     0.02661   0.23826   0.46516   0.00000  Uiso   1.00
C6     C     0.32201   0.12640   0.02641   0.00000  Uiso   1.00
C7     C     0.00463   0.21929   0.41905   0.00000  Uiso   1.00
C8     C     0.00471   0.13478   0.07571   0.00000  Uiso   1.00
C9     C     0.08259   0.16355   0.41277   0.00000  Uiso   1.00
C10    C     0.25403   0.18186   0.08759   0.00000  Uiso   1.00
C11    C     0.10898   0.18642   0.45604   0.00000  Uiso   1.00
C12    C     0.31827   0.06844   0.25123   0.00000  Uiso   1.00
C13    C     0.23726   0.17449   0.03828   0.00000  Uiso   1.00
C14    C     0.07917   0.22274   0.48351   0.00000  Uiso   1.00
C15    C     0.27073   0.14428   0.00790   0.00000  Uiso   1.00
C16    C     0.16428   0.17431   0.47225   0.00000  Uiso   1.00
C17    C     0.18573   0.19284   0.01947   0.00000  Uiso   1.00
C18    C     0.15499   0.22900   0.04627   0.00000  Uiso   1.00
C19    C     0.19946   0.14562   0.44222   0.00000  Uiso   1.00
C20    C     0.10278   0.24389   0.02827   0.00000  Uiso   1.00
C21    C     0.25198   0.13128   0.45982   0.00000  Uiso   1.00
C22    C     0.02289   0.31948   0.24812   0.00000  Uiso   1.00
C23    C     0.31046   0.01385   0.25196   0.00000  Uiso   1.00
C24    C     0.02126   0.17130   0.34094   0.00000  Uiso   1.00
H25    H     0.08084   0.27210   0.04950   0.00000  Uiso   1.00
H26    H     0.18842   0.13495   0.40433   0.00000  Uiso   1.00
H27    H     0.06598   0.00335   0.24445   0.00000  Uiso   1.00
H28    H     0.26737   0.32999   0.25564   0.00000  Uiso   1.00
H29    H     0.16237   0.12481   0.21383   0.00000  Uiso   1.00
H30    H     0.17097   0.20851   0.28619   0.00000  Uiso   1.00
H31    H     0.27751   0.10897   0.43590   0.00000  Uiso   1.00
H32    H     0.22781   0.20097   0.11284   0.00000  Uiso   1.00
H33    H     0.10062   0.13224   0.39255   0.00000  Uiso   1.00
H34    H     0.04304   0.11879   0.09007   0.00000  Uiso   1.00
H35    H     0.29976   0.23448   0.40348   0.00000  Uiso   1.00
H36    H     0.00382   0.26648   0.48556   0.00000  Uiso   1.00
H37    H     0.01520   0.10443   0.00314   0.00000  Uiso   1.00
H38    H     0.17128   0.24822   0.08052   0.00000  Uiso   1.00
N39    N     0.14695   0.15216   0.23739   0.00000  Uiso   1.00
N40    N     0.18638   0.18117   0.26260   0.00000  Uiso   1.00
O41    O     0.29719   0.24631   0.25309   0.00000  Uiso   1.00
O42    O     0.03614   0.08702   0.24690   0.00000  Uiso   1.00
O43    O     0.05822   0.23702   0.24501   0.00000  Uiso   1.00
O44    O     0.27512   0.09632   0.25498   0.00000  Uiso   1.00
O45    O     0.30328   0.17397   0.32247   0.00000  Uiso   1.00
O46    O     0.03005   0.15937   0.17753   0.00000  Uiso   1.00
O47    O     0.06431   0.16467   0.31439   0.00000  Uiso   1.00
O48    O     0.26902   0.16866   0.18561   0.00000  Uiso   1.00
Zn49   Zn    0.27033   0.17287   0.25539   0.00000  Uiso   1.00
Zn50   Zn    0.06300   0.16046   0.24460   0.00000  Uiso   1.00
C51    C     0.34840   0.26489   0.24881   0.00000  Uiso   1.00
C52    C     0.64563   0.16304   0.15900   0.00000  Uiso   1.00
C53    C     0.36689   0.18247   0.39267   0.00000  Uiso   1.00
C54    C     0.63584   0.16068   0.10649   0.00000  Uiso   1.00
C55    C     0.35994   0.23826   0.46516   0.00000  Uiso   1.00
C56    C     0.65534   0.12640   0.02641   0.00000  Uiso   1.00
C57    C     0.33796   0.21929   0.41905   0.00000  Uiso   1.00
C58    C     0.33805   0.13478   0.07571   0.00000  Uiso   1.00
C59    C     0.41592   0.16355   0.41277   0.00000  Uiso   1.00
C60    C     0.58736   0.18186   0.08759   0.00000  Uiso   1.00
C61    C     0.44231   0.18642   0.45604   0.00000  Uiso   1.00
C62    C     0.65161   0.06844   0.25123   0.00000  Uiso   1.00
C63    C     0.57059   0.17449   0.03828   0.00000  Uiso   1.00
C64    C     0.41250   0.22274   0.48351   0.00000  Uiso   1.00
C65    C     0.60406   0.14428   0.00790   0.00000  Uiso   1.00
C66    C     0.49762   0.17431   0.47225   0.00000  Uiso   1.00
C67    C     0.51906   0.19284   0.01947   0.00000  Uiso   1.00
C68    C     0.48832   0.22900   0.04627   0.00000  Uiso   1.00
C69    C     0.53280   0.14562   0.44222   0.00000  Uiso   1.00
C70    C     0.43612   0.24389   0.02827   0.00000  Uiso   1.00
C71    C     0.58532   0.13128   0.45982   0.00000  Uiso   1.00
C72    C     0.35622   0.31948   0.24812   0.00000  Uiso   1.00
C73    C     0.64380   0.01385   0.25196   0.00000  Uiso   1.00
C74    C     0.35459   0.17130   0.34094   0.00000  Uiso   1.00
H75    H     0.41417   0.27210   0.04950   0.00000  Uiso   1.00
H76    H     0.52175   0.13495   0.40433   0.00000  Uiso   1.00
H77    H     0.39931   0.00335   0.24445   0.00000  Uiso   1.00
H78    H     0.60071   0.32999   0.25564   0.00000  Uiso   1.00
H79    H     0.49570   0.12481   0.21383   0.00000  Uiso   1.00
H80    H     0.50430   0.20851   0.28619   0.00000  Uiso   1.00
H81    H     0.61084   0.10897   0.43590   0.00000  Uiso   1.00
H82    H     0.56114   0.20097   0.11284   0.00000  Uiso   1.00
H83    H     0.43395   0.13224   0.39255   0.00000  Uiso   1.00
H84    H     0.37638   0.11879   0.09007   0.00000  Uiso   1.00
H85    H     0.63309   0.23448   0.40348   0.00000  Uiso   1.00
H86    H     0.33715   0.26648   0.48556   0.00000  Uiso   1.00
H87    H     0.34853   0.10443   0.00314   0.00000  Uiso   1.00
H88    H     0.50461   0.24822   0.08052   0.00000  Uiso   1.00
N89    N     0.48029   0.15216   0.23739   0.00000  Uiso   1.00
N90    N     0.51971   0.18117   0.26260   0.00000  Uiso   1.00
O91    O     0.63052   0.24631   0.25309   0.00000  Uiso   1.00
O92    O     0.36948   0.08702   0.24690   0.00000  Uiso   1.00
O93    O     0.39155   0.23702   0.24501   0.00000  Uiso   1.00
O94    O     0.60845   0.09632   0.25498   0.00000  Uiso   1.00
O95    O     0.63662   0.17397   0.32247   0.00000  Uiso   1.00
O96    O     0.36338   0.15937   0.17753   0.00000  Uiso   1.00
O97    O     0.39764   0.16467   0.31439   0.00000  Uiso   1.00
O98    O     0.60236   0.16866   0.18561   0.00000  Uiso   1.00
Zn99   Zn    0.60366   0.17287   0.25539   0.00000  Uiso   1.00
Zn100  Zn    0.39634   0.16046   0.24460   0.00000  Uiso   1.00
C101   C     0.68173   0.26489   0.24881   0.00000  Uiso   1.00
C102   C     0.97896   0.16304   0.15900   0.00000  Uiso   1.00
C103   C     0.70022   0.18247   0.39267   0.00000  Uiso   1.00
C104   C     0.96917   0.16068   0.10649   0.00000  Uiso   1.00
C105   C     0.69327   0.23826   0.46516   0.00000  Uiso   1.00
C106   C     0.98868   0.12640   0.02641   0.00000  Uiso   1.00
C107   C     0.67130   0.21929   0.41905   0.00000  Uiso   1.00
C108   C     0.67138   0.13478   0.07571   0.00000  Uiso   1.00
C109   C     0.74926   0.16355   0.41277   0.00000  Uiso   1.00
C110   C     0.92070   0.18186   0.08759   0.00000  Uiso   1.00
C111   C     0.77565   0.18642   0.45604   0.00000  Uiso   1.00
C112   C     0.98494   0.06844   0.25123   0.00000  Uiso   1.00
C113   C     0.90393   0.17449   0.03828   0.00000  Uiso   1.00
C114   C     0.74584   0.22274   0.48351   0.00000  Uiso   1.00
C115   C     0.93740   0.14428   0.00790   0.00000  Uiso   1.00
C116   C     0.83095   0.17431   0.47225   0.00000  Uiso   1.00
C117   C     0.85239   0.19284   0.01947   0.00000  Uiso   1.00
C118   C     0.82166   0.22900   0.04627   0.00000  Uiso   1.00
C119   C     0.86613   0.14562   0.44222   0.00000  Uiso   1.00
C120   C     0.76945   0.24389   0.02827   0.00000  Uiso   1.00
C121   C     0.91865   0.13128   0.45982   0.00000  Uiso   1.00
C122   C     0.68955   0.31948   0.24812   0.00000  Uiso   1.00
C123   C     0.97713   0.01385   0.25196   0.00000  Uiso   1.00
C124   C     0.68793   0.17130   0.34094   0.00000  Uiso   1.00
H125   H     0.74751   0.27210   0.04950   0.00000  Uiso   1.00
H126   H     0.85508   0.13495   0.40433   0.00000  Uiso   1.00
H127   H     0.73264   0.00335   0.24445   0.00000  Uiso   1.00
H128   H     0.93404   0.32999   0.25564   0.00000  Uiso   1.00
H129   H     0.82903   0.12481   0.21383   0.00000  Uiso   1.00
H130   H     0.83763   0.20851   0.28619   0.00000  Uiso   1.00
H131   H     0.94417   0.10897   0.43590   0.00000  Uiso   1.00
H132   H     0.89448   0.20097   0.11284   0.00000  Uiso   1.00
H133   H     0.76728   0.13224   0.39255   0.00000  Uiso   1.00
H134   H     0.70971   0.11879   0.09007   0.00000  Uiso   1.00
H135   H     0.96642   0.23448   0.40348   0.00000  Uiso   1.00
H136   H     0.67049   0.26648   0.48556   0.00000  Uiso   1.00
H137   H     0.68186   0.10443   0.00314   0.00000  Uiso   1.00
H138   H     0.83795   0.24822   0.08052   0.00000  Uiso   1.00
N139   N     0.81362   0.15216   0.23739   0.00000  Uiso   1.00
N140   N     0.85305   0.18117   0.26260   0.00000  Uiso   1.00
O141   O     0.96386   0.24631   0.25309   0.00000  Uiso   1.00
O142   O     0.70281   0.08702   0.24690   0.00000  Uiso   1.00
O143   O     0.72488   0.23702   0.24501   0.00000  Uiso   1.00
O144   O     0.94178   0.09632   0.25498   0.00000  Uiso   1.00
O145   O     0.96995   0.17397   0.32247   0.00000  Uiso   1.00
O146   O     0.69672   0.15937   0.17753   0.00000  Uiso   1.00
O147   O     0.73098   0.16467   0.31439   0.00000  Uiso   1.00
O148   O     0.93569   0.16866   0.18561   0.00000  Uiso   1.00
Zn149  Zn    0.93700   0.17287   0.25539   0.00000  Uiso   1.00
Zn150  Zn    0.72967   0.16046   0.24460   0.00000  Uiso   1.00
C151   C     0.01507   0.59823   0.24881   0.00000  Uiso   1.00
C152   C     0.31230   0.49637   0.15900   0.00000  Uiso   1.00
C153   C     0.03355   0.51581   0.39267   0.00000  Uiso   1.00
C154   C     0.30250   0.49401   0.10649   0.00000  Uiso   1.00
C155   C     0.02661   0.57159   0.46516   0.00000  Uiso   1.00
C156   C     0.32201   0.45974   0.02641   0.00000  Uiso   1.00
C157   C     0.00463   0.55262   0.41905   0.00000  Uiso   1.00
C158   C     0.00471   0.46811   0.07571   0.00000  Uiso   1.00
C159   C     0.08259   0.49689   0.41277   0.00000  Uiso   1.00
C160   C     0.25403   0.51519   0.08759   0.00000  Uiso   1.00
C161   C     0.10898   0.51975   0.45604   0.00000  Uiso   1.00
C162   C     0.31827   0.40177   0.25123   0.00000  Uiso   1.00
C163   C     0.23726   0.50783   0.03828   0.00000  Uiso   1.00
C164   C     0.07917   0.55607   0.48351   0.00000  Uiso   1.00
C165   C     0.27073   0.47761   0.00790   0.00000  Uiso   1.00
C166   C     0.16428   0.50764   0.47225   0.00000  Uiso   1.00
C167   C     0.18573   0.52617   0.01947   0.00000  Uiso   1.00
C168   C     0.15499   0.56233   0.04627   0.00000  Uiso   1.00
C169   C     0.19946   0.47895   0.44222   0.00000  Uiso   1.00
C170   C     0.10278   0.57722   0.02827   0.00000  Uiso   1.00
C171   C     0.25198   0.46461   0.45982   0.00000  Uiso   1.00
C172   C     0.02289   0.65282   0.24812   0.00000  Uiso   1.00
C173   C     0.31046   0.34719   0.25196   0.00000  Uiso   1.00
C174   C     0.02126   0.50463   0.34094   0.00000  Uiso   1.00
H175   H     0.08084   0.60544   0.04950   0.00000  Uiso   1.00
H176   H     0.18842   0.46828   0.40433   0.00000  Uiso   1.00
H177   H     0.06598   0.33668   0.24445   0.00000  Uiso   1.00
H178   H     0.26737   0.66332   0.25564   0.00000  Uiso   1.00
H179   H     0.16237   0.45815   0.21383   0.00000  Uiso   1.00
H180   H     0.17097   0.54184   0.28619   0.00000  Uiso   1.00
H181   H     0.27751   0.44231   0.43590   0.00000  Uiso   1.00
H182   H     0.22781   0.53431   0.11284   0.00000  Uiso   1.00
H183   H     0.10062   0.46558   0.39255   0.00000  Uiso   1.00
H184   H     0.04304   0.45212   0.09007   0.00000  Uiso   1.00
H185   H     0.29976   0.56782   0.40348   0.00000  Uiso   1.00
H186   H     0.00382   0.59982   0.48556   0.00000  Uiso   1.00
H187   H     0.01520   0.43776   0.00314   0.00000  Uiso   1.00
H188   H     0.17128   0.58155   0.08052   0.00000  Uiso   1.00
N189   N     0.14695   0.48550   0.23739   0.00000  Uiso   1.00
N190   N     0.18638   0.51450   0.26260   0.00000  Uiso   1.00
O191   O     0.29719   0.57964   0.25309   0.00000  Uiso   1.00
O192   O     0.03614   0.42036   0.24690   0.00000  Uiso   1.00
O193   O     0.05822   0.57035   0.24501   0.00000  Uiso   1.00
O194   O     0.27512   0.42965   0.25498   0.00000  Uiso   1.00
O195   O     0.30328   0.50730   0.32247   0.00000  Uiso   1.00
O196   O     0.03005   0.49270   0.17753   0.00000  Uiso   1.00
O197   O     0.06431   0.49801   0.31439   0.00000  Uiso   1.00
O198   O     0.26902   0.50199   0.18561   0.00000  Uiso   1.00
Zn199  Zn    0.27033   0.50621   0.25539   0.00000  Uiso   1.00
Zn200  Zn    0.06300   0.49379   0.24460   0.00000  Uiso   1.00
C201   C     0.34840   0.59823   0.24881   0.00000  Uiso   1.00
C202   C     0.64563   0.49637   0.15900   0.00000  Uiso   1.00
C203   C     0.36689   0.51581   0.39267   0.00000  Uiso   1.00
C204   C     0.63584   0.49401   0.10649   0.00000  Uiso   1.00
C205   C     0.35994   0.57159   0.46516   0.00000  Uiso   1.00
C206   C     0.65534   0.45974   0.02641   0.00000  Uiso   1.00
C207   C     0.33796   0.55262   0.41905   0.00000  Uiso   1.00
C208   C     0.33805   0.46811   0.07571   0.00000  Uiso   1.00
C209   C     0.41592   0.49689   0.41277   0.00000  Uiso   1.00
C210   C     0.58736   0.51519   0.08759   0.00000  Uiso   1.00
C211   C     0.44231   0.51975   0.45604   0.00000  Uiso   1.00
C212   C     0.65161   0.40177   0.25123   0.00000  Uiso   1.00
C213   C     0.57059   0.50783   0.03828   0.00000  Uiso   1.00
C214   C     0.41250   0.55607   0.48351   0.00000  Uiso   1.00
C215   C     0.60406   0.47761   0.00790   0.00000  Uiso   1.00
C216   C     0.49762   0.50764   0.47225   0.00000  Uiso   1.00
C217   C     0.51906   0.52617   0.01947   0.00000  Uiso   1.00
C218   C     0.48832   0.56233   0.04627   0.00000  Uiso   1.00
C219   C     0.53280   0.47895   0.44222   0.00000  Uiso   1.00
C220   C     0.43612   0.57722   0.02827   0.00000  Uiso   1.00
C221   C     0.58532   0.46461   0.45982   0.00000  Uiso   1.00
C222   C     0.35622   0.65282   0.24812   0.00000  Uiso   1.00
C223   C     0.64380   0.34719   0.25196   0.00000  Uiso   1.00
C224   C     0.35459   0.50463   0.34094   0.00000  Uiso   1.00
H225   H     0.41417   0.60544   0.04950   0.00000  Uiso   1.00
H226   H     0.52175   0.46828   0.40433   0.00000  Uiso   1.00
H227   H     0.39931   0.33668   0.24445   0.00000  Uiso   1.00
H228   H     0.60071   0.66332   0.25564   0.00000  Uiso   1.00
H229   H     0.49570   0.45815   0.21383   0.00000  Uiso   1.00
H230   H     0.50430   0.54184   0.28619   0.00000  Uiso   1.00
H231   H     0.61084   0.44231   0.43590   0.00000  Uiso   1.00
H232   H     0.56114   0.53431   0.11284   0.00000  Uiso   1.00
H233   H     0.43395   0.46558   0.39255   0.00000  Uiso   1.00
H234   H     0.37638   0.45212   0.09007   0.00000  Uiso   1.00
H235   H     0.63309   0.56782   0.40348   0.00000  Uiso   1.00
H236   H     0.33715   0.59982   0.48556   0.00000  Uiso   1.00
H237   H     0.34853   0.43776   0.00314   0.00000  Uiso   1.00
H238   H     0.50461   0.58155   0.08052   0.00000  Uiso   1.00
N239   N     0.48029   0.48550   0.23739   0.00000  Uiso   1.00
N240   N     0.51971   0.51450   0.26260   0.00000  Uiso   1.00
O241   O     0.63052   0.57964   0.25309   0.00000  Uiso   1.00
O242   O     0.36948   0.42036   0.24690   0.00000  Uiso   1.00
O243   O     0.39155   0.57035   0.24501   0.00000  Uiso   1.00
O244   O     0.60845   0.42965   0.25498   0.00000  Uiso   1.00
O245   O     0.63662   0.50730   0.32247   0.00000  Uiso   1.00
O246   O     0.36338   0.49270   0.17753   0.00000  Uiso   1.00
O247   O     0.39764   0.49801   0.31439   0.00000  Uiso   1.00
O248   O     0.60236   0.50199   0.18561   0.00000  Uiso   1.00
Zn249  Zn    0.60366   0.50621   0.25539   0.00000  Uiso   1.00
Zn250  Zn    0.39634   0.49379   0.24460   0.00000  Uiso   1.00
C251   C     0.68173   0.59823   0.24881   0.00000  Uiso   1.00
C252   C     0.97896   0.49637   0.15900   0.00000  Uiso   1.00
C253   C     0.70022   0.51581   0.39267   0.00000  Uiso   1.00
C254   C     0.96917   0.49401   0.10649   0.00000  Uiso   1.00
C255   C     0.69327   0.57159   0.46516   0.00000  Uiso   1.00
C256   C     0.98868   0.45974   0.02641   0.00000  Uiso   1.00
C257   C     0.67130   0.55262   0.41905   0.00000  Uiso   1.00
C258   C     0.67138   0.46811   0.07571   0.00000  Uiso   1.00
C259   C     0.74926   0.49689   0.41277   0.00000  Uiso   1.00
C260   C     0.92070   0.51519   0.08759   0.00000  Uiso   1.00
C261   C     0.77565   0.51975   0.45604   0.00000  Uiso   1.00
C262   C     0.98494   0.40177   0.25123   0.00000  Uiso   1.00
C263   C     0.90393   0.50783   0.03828   0.00000  Uiso   1.00
C264   C     0.74584   0.55607   0.48351   0.00000  Uiso   1.00
C265   C     0.93740   0.47761   0.00790   0.00000  Uiso   1.00
C266   C     0.83095   0.50764   0.47225   0.00000  Uiso   1.00
C267   C     0.85239   0.52617   0.01947   0.00000  Uiso   1.00
C268   C     0.82166   0.56233   0.04627   0.00000  Uiso   1.00
C269   C     0.86613   0.47895   0.44222   0.00000  Uiso   1.00
C270   C     0.76945   0.57722   0.02827   0.00000  Uiso   1.00
C271   C     0.91865   0.46461   0.45982   0.00000  Uiso   1.00
C272   C     0.68955   0.65282   0.24812   0.00000  Uiso   1.00
C273   C     0.97713   0.34719   0.25196   0.00000  Uiso   1.00
C274   C     0.68793   0.50463   0.34094   0.00000  Uiso   1.00
H275   H     0.74751   0.60544   0.04950   0.00000  Uiso   1.00
H276   H     0.85508   0.46828   0.40433   0.00000  Uiso   1.00
H277   H     0.73264   0.33668   0.24445   0.00000  Uiso   1.00
H278   H     0.93404   0.66332   0.25564   0.00000  Uiso   1.00
H279   H     0.82903   0.45815   0.21383   0.00000  Uiso   1.00
H280   H     0.83763   0.54184   0.28619   0.00000  Uiso   1.00
H281   H     0.94417   0.44231   0.43590   0.00000  Uiso   1.00
H282   H     0.89448   0.53431   0.11284   0.00000  Uiso   1.00
H283   H     0.76728   0.46558   0.39255   0.00000  Uiso   1.00
H284   H     0.70971   0.45212   0.09007   0.00000  Uiso   1.00
H285   H     0.96642   0.56782   0.40348   0.00000  Uiso   1.00
H286   H     0.67049   0.59982   0.48556   0.00000  Uiso   1.00
H287   H     0.68186   0.43776   0.00314   0.00000  Uiso   1.00
H288   H     0.83795   0.58155   0.08052   0.00000  Uiso   1.00
N289   N     0.81362   0.48550   0.23739   0.00000  Uiso   1.00
N290   N     0.85305   0.51450   0.26260   0.00000  Uiso   1.00
O291   O     0.96386   0.57964   0.25309   0.00000  Uiso   1.00
O292   O     0.70281   0.42036   0.24690   0.00000  Uiso   1.00
O293   O     0.72488   0.57035   0.24501   0.00000  Uiso   1.00
O294   O     0.94178   0.42965   0.25498   0.00000  Uiso   1.00
O295   O     0.96995   0.50730   0.32247   0.00000  Uiso   1.00
O296   O     0.69672   0.49270   0.17753   0.00000  Uiso   1.00
O297   O     0.73098   0.49801   0.31439   0.00000  Uiso   1.00
O298   O     0.93569   0.50199   0.18561   0.00000  Uiso   1.00
Zn299  Zn    0.93700   0.50621   0.25539   0.00000  Uiso   1.00
Zn300  Zn    0.72967   0.49379   0.24460   0.00000  Uiso   1.00
C301   C     0.01507   0.93156   0.24881   0.00000  Uiso   1.00
C302   C     0.31230   0.82970   0.15900   0.00000  Uiso   1.00
C303   C     0.03355   0.84914   0.39267   0.00000  Uiso   1.00
C304   C     0.30250   0.82734   0.10649   0.00000  Uiso   1.00
C305   C     0.02661   0.90493   0.46516   0.00000  Uiso   1.00
C306   C     0.32201   0.79307   0.02641   0.00000  Uiso   1.00
C307   C     0.00463   0.88595   0.41905   0.00000  Uiso   1.00
C308   C     0.00471   0.80145   0.07571   0.00000  Uiso   1.00
C309   C     0.08259   0.83022   0.41277   0.00000  Uiso   1.00
C310   C     0.25403   0.84852   0.08759   0.00000  Uiso   1.00
C311   C     0.10898   0.85309   0.45604   0.00000  Uiso   1.00
C312   C     0.31827   0.73511   0.25123   0.00000  Uiso   1.00
C313   C     0.23726   0.84116   0.03828   0.00000  Uiso   1.00
C314   C     0.07917   0.88940   0.48351   0.00000  Uiso   1.00
C315   C     0.27073   0.81095   0.00790   0.00000  Uiso   1.00
C316   C     0.16428   0.84098   0.47225   0.00000  Uiso   1.00
C317   C     0.18573   0.85950   0.01947   0.00000  Uiso   1.00
C318   C     0.15499   0.89566   0.04627   0.00000  Uiso   1.00
C319   C     0.19946   0.81228   0.44222   0.00000  Uiso   1.00
C320   C     0.10278   0.91055   0.02827   0.00000  Uiso   1.00
C321   C     0.25198   0.79794   0.45982   0.00000  Uiso   1.00
C322   C     0.02289   0.98615   0.24812   0.00000  Uiso   1.00
C323   C     0.31046   0.68052   0.25196   0.00000  Uiso   1.00
C324   C     0.02126   0.83796   0.34094   0.00000  Uiso   1.00
H325   H     0.08084   0.93877   0.04950   0.00000  Uiso   1.00
H326   H     0.18842   0.80162   0.40433   0.00000  Uiso   1.00
H327   H     0.06598   0.67001   0.24445   0.00000  Uiso   1.00
H328   H     0.26737   0.99666   0.25564   0.00000  Uiso   1.00
H329   H     0.16237   0.79148   0.21383   0.00000  Uiso   1.00
H330   H     0.17097   0.87517   0.28619   0.00000  Uiso   1.00
H331   H     0.27751   0.77564   0.43590   0.00000  Uiso   1.00
H332   H     0.22781   0.86764   0.11284   0.00000  Uiso   1.00
H333   H     0.10062   0.79891   0.39255   0.00000  Uiso   1.00
H334   H     0.04304   0.78545   0.09007   0.00000  Uiso   1.00
H335   H     0.29976   0.90115   0.40348   0.00000  Uiso   1.00
H336   H     0.00382   0.93315   0.48556   0.00000  Uiso   1.00
H337   H     0.01520   0.77110   0.00314   0.00000  Uiso   1.00
H338   H     0.17128   0.91488   0.08052   0.00000  Uiso   1.00
N339   N     0.14695   0.81883   0.23739   0.00000  Uiso   1.00
N340   N     0.18638   0.84784   0.26260   0.00000  Uiso   1.00
O341   O     0.29719   0.91298   0.25309   0.00000  Uiso   1.00
O342   O     0.03614   0.75369   0.24690   0.00000  Uiso   1.00
O343   O     0.05822   0.90368   0.24501   0.00000  Uiso   1.00
O344   O     0.27512   0.76298   0.25498   0.00000  Uiso   1.00
O345   O     0.30328   0.84063   0.32247   0.00000  Uiso   1.00
O346   O     0.03005   0.82603   0.17753   0.00000  Uiso   1.00
O347   O     0.06431   0.83134   0.31439   0.00000  Uiso   1.00
O348   O     0.26902   0.83533   0.18561   0.00000  Uiso   1.00
Zn349  Zn    0.27033   0.83954   0.25539   0.00000  Uiso   1.00
Zn350  Zn    0.06300   0.82713   0.24460   0.00000  Uiso   1.00
C351   C     0.34840   0.93156   0.24881   0.00000  Uiso   1.00
C352   C     0.64563   0.82970   0.15900   0.00000  Uiso   1.00
C353   C     0.36689   0.84914   0.39267   0.00000  Uiso   1.00
C354   C     0.63584   0.82734   0.10649   0.00000  Uiso   1.00
C355   C     0.35994   0.90493   0.46516   0.00000  Uiso   1.00
C356   C     0.65534   0.79307   0.02641   0.00000  Uiso   1.00
C357   C     0.33796   0.88595   0.41905   0.00000  Uiso   1.00
C358   C     0.33805   0.80145   0.07571   0.00000  Uiso   1.00
C359   C     0.41592   0.83022   0.41277   0.00000  Uiso   1.00
C360   C     0.58736   0.84852   0.08759   0.00000  Uiso   1.00
C361   C     0.44231   0.85309   0.45604   0.00000  Uiso   1.00
C362   C     0.65161   0.73511   0.25123   0.00000  Uiso   1.00
C363   C     0.57059   0.84116   0.03828   0.00000  Uiso   1.00
C364   C     0.41250   0.88940   0.48351   0.00000  Uiso   1.00
C365   C     0.60406   0.81095   0.00790   0.00000  Uiso   1.00
C366   C     0.49762   0.84098   0.47225   0.00000  Uiso   1.00
C367   C     0.51906   0.85950   0.01947   0.00000  Uiso   1.00
C368   C     0.48832   0.89566   0.04627   0.00000  Uiso   1.00
C369   C     0.53280   0.81228   0.44222   0.00000  Uiso   1.00
C370   C     0.43612   0.91055   0.02827   0.00000  Uiso   1.00
C371   C     0.58532   0.79794   0.45982   0.00000  Uiso   1.00
C372   C     0.35622   0.98615   0.24812   0.00000  Uiso   1.00
C373   C     0.64380   0.68052   0.25196   0.00000  Uiso   1.00
C374   C     0.35459   0.83796   0.34094   0.00000  Uiso   1.00
H375   H     0.41417   0.93877   0.04950   0.00000  Uiso   1.00
H376   H     0.52175   0.80162   0.40433   0.00000  Uiso   1.00
H377   H     0.39931   0.67001   0.24445   0.00000  Uiso   1.00
H378   H     0.60071   0.99666   0.25564   0.00000  Uiso   1.00
H379   H     0.49570   0.79148   0.21383   0.00000  Uiso   1.00
H380   H     0.50430   0.87517   0.28619   0.00000  Uiso   1.00
H381   H     0.61084   0.77564   0.43590   0.00000  Uiso   1.00
H382   H     0.56114   0.86764   0.11284   0.00000  Uiso   1.00
H383   H     0.43395   0.79891   0.39255   0.00000  Uiso   1.00
H384   H     0.37638   0.78545   0.09007   0.00000  Uiso   1.00
H385   H     0.63309   0.90115   0.40348   0.00000  Uiso   1.00
H386   H     0.33715   0.93315   0.48556   0.00000  Uiso   1.00
H387   H     0.34853   0.77110   0.00314   0.00000  Uiso   1.00
H388   H     0.50461   0.91488   0.08052   0.00000  Uiso   1.00
N389   N     0.48029   0.81883   0.23739   0.00000  Uiso   1.00
N390   N     0.51971   0.84784   0.26260   0.00000  Uiso   1.00
O391   O     0.63052   0.91298   0.25309   0.00000  Uiso   1.00
O392   O     0.36948   0.75369   0.24690   0.00000  Uiso   1.00
O393   O     0.39155   0.90368   0.24501   0.00000  Uiso   1.00
O394   O     0.60845   0.76298   0.25498   0.00000  Uiso   1.00
O395   O     0.63662   0.84063   0.32247   0.00000  Uiso   1.00
O396   O     0.36338   0.82603   0.17753   0.00000  Uiso   1.00
O397   O     0.39764   0.83134   0.31439   0.00000  Uiso   1.00
O398   O     0.60236   0.83533   0.18561   0.00000  Uiso   1.00
Zn399  Zn    0.60366   0.83954   0.25539   0.00000  Uiso   1.00
Zn400  Zn    0.39634   0.82713   0.24460   0.00000  Uiso   1.00
C401   C     0.68173   0.93156   0.24881   0.00000  Uiso   1.00
C402   C     0.97896   0.82970   0.15900   0.00000  Uiso   1.00
C403   C     0.70022   0.84914   0.39267   0.00000  Uiso   1.00
C404   C     0.96917   0.82734   0.10649   0.00000  Uiso   1.00
C405   C     0.69327   0.90493   0.46516   0.00000  Uiso   1.00
C406   C     0.98868   0.79307   0.02641   0.00000  Uiso   1.00
C407   C     0.67130   0.88595   0.41905   0.00000  Uiso   1.00
C408   C     0.67138   0.80145   0.07571   0.00000  Uiso   1.00
C409   C     0.74926   0.83022   0.41277   0.00000  Uiso   1.00
C410   C     0.92070   0.84852   0.08759   0.00000  Uiso   1.00
C411   C     0.77565   0.85309   0.45604   0.00000  Uiso   1.00
C412   C     0.98494   0.73511   0.25123   0.00000  Uiso   1.00
C413   C     0.90393   0.84116   0.03828   0.00000  Uiso   1.00
C414   C     0.74584   0.88940   0.48351   0.00000  Uiso   1.00
C415   C     0.93740   0.81095   0.00790   0.00000  Uiso   1.00
C416   C     0.83095   0.84098   0.47225   0.00000  Uiso   1.00
C417   C     0.85239   0.85950   0.01947   0.00000  Uiso   1.00
C418   C     0.82166   0.89566   0.04627   0.00000  Uiso   1.00
C419   C     0.86613   0.81228   0.44222   0.00000  Uiso   1.00
C420   C     0.76945   0.91055   0.02827   0.00000  Uiso   1.00
C421   C     0.91865   0.79794   0.45982   0.00000  Uiso   1.00
C422   C     0.68955   0.98615   0.24812   0.00000  Uiso   1.00
C423   C     0.97713   0.68052   0.25196   0.00000  Uiso   1.00
C424   C     0.68793   0.83796   0.34094   0.00000  Uiso   1.00
H425   H     0.74751   0.93877   0.04950   0.00000  Uiso   1.00
H426   H     0.85508   0.80162   0.40433   0.00000  Uiso   1.00
H427   H     0.73264   0.67001   0.24445   0.00000  Uiso   1.00
H428   H     0.93404   0.99666   0.25564   0.00000  Uiso   1.00
H429   H     0.82903   0.79148   0.21383   0.00000  Uiso   1.00
H430   H     0.83763   0.87517   0.28619   0.00000  Uiso   1.00
H431   H     0.94417   0.77564   0.43590   0.00000  Uiso   1.00
H432   H     0.89448   0.86764   0.11284   0.00000  Uiso   1.00
H433   H     0.76728   0.79891   0.39255   0.00000  Uiso   1.00
H434   H     0.70971   0.78545   0.09007   0.00000  Uiso   1.00
H435   H     0.96642   0.90115   0.40348   0.00000  Uiso   1.00
H436   H     0.67049   0.93315   0.48556   0.00000  Uiso   1.00
H437   H     0.68186   0.77110   0.00314   0.00000  Uiso   1.00
H438   H     0.83795   0.91488   0.08052   0.00000  Uiso   1.00
N439   N     0.81362   0.81883   0.23739   0.00000  Uiso   1.00
N440   N     0.85305   0.84784   0.26260   0.00000  Uiso   1.00
O441   O     0.96386   0.91298   0.25309   0.00000  Uiso   1.00
O442   O     0.70281   0.75369   0.24690   0.00000  Uiso   1.00
O443   O     0.72488   0.90368   0.24501   0.00000  Uiso   1.00
O444   O     0.94178   0.76298   0.25498   0.00000  Uiso   1.00
O445   O     0.96995   0.84063   0.32247   0.00000  Uiso   1.00
O446   O     0.69672   0.82603   0.17753   0.00000  Uiso   1.00
O447   O     0.73098   0.83134   0.31439   0.00000  Uiso   1.00
O448   O     0.93569   0.83533   0.18561   0.00000  Uiso   1.00
Zn449  Zn    0.93700   0.83954   0.25539   0.00000  Uiso   1.00
Zn450  Zn    0.72967   0.82713   0.24460   0.00000  Uiso   1.00
C451   C     0.01507   0.26489   0.74881   0.00000  Uiso   1.00
C452   C     0.31230   0.16304   0.65900   0.00000  Uiso   1.00
C453   C     0.03355   0.18247   0.89267   0.00000  Uiso   1.00
C454   C     0.30250   0.16068   0.60649   0.00000  Uiso   1.00
C455   C     0.02661   0.23826   0.96516   0.00000  Uiso   1.00
C456   C     0.32201   0.12640   0.52641   0.00000  Uiso   1.00
C457   C     0.00463   0.21929   0.91905   0.00000  Uiso   1.00
C458   C     0.00471   0.13478   0.57571   0.00000  Uiso   1.00
C459   C     0.08259   0.16355   0.91277   0.00000  Uiso   1.00
C460   C     0.25403   0.18186   0.58759   0.00000  Uiso   1.00
C461   C     0.10898   0.18642   0.95604   0.00000  Uiso   1.00
C462   C     0.31827   0.06844   0.75123   0.00000  Uiso   1.00
C463   C     0.23726   0.17449   0.53828   0.00000  Uiso   1.00
C464   C     0.07917   0.22274   0.98351   0.00000  Uiso   1.00
C465   C     0.27073   0.14428   0.50790   0.00000  Uiso   1.00
C466   C     0.16428   0.17431   0.97225   0.00000  Uiso   1.00
C467   C     0.18573   0.19284   0.51947   0.00000  Uiso   1.00
C468   C     0.15499   0.22900   0.54627   0.00000  Uiso   1.00
C469   C     0.19946   0.14562   0.94222   0.00000  Uiso   1.00
C470   C     0.10278   0.24389   0.52827   0.00000  Uiso   1.00
C471   C     0.25198   0.13128   0.95982   0.00000  Uiso   1.00
C472   C     0.02289   0.31948   0.74812   0.00000  Uiso   1.00
C473   C     0.31046   0.01385   0.75196   0.00000  Uiso   1.00
C474   C     0.02126   0.17130   0.84094   0.00000  Uiso   1.00
H475   H     0.08084   0.27210   0.54950   0.00000  Uiso   1.00
H476   H     0.18842   0.13495   0.90433   0.00000  Uiso   1.00
H477   H     0.06598   0.00335   0.74445   0.00000  Uiso   1.00
H478   H     0.26737   0.32999   0.75564   0.00000  Uiso   1.00
H479   H     0.16237   0.12481   0.71383   0.00000  Uiso   1.00
H480   H     0.17097   0.20851   0.78619   0.00000  Uiso   1.00
H481   H     0.27751   0.10897   0.93590   0.00000  Uiso   1.00
H482   H     0.22781   0.20097   0.61284   0.00000  Uiso   1.00
H483   H     0.10062   0.13224   0.89255   0.00000  Uiso   1.00
H484   H     0.04304   0.11879   0.59007   0.00000  Uiso   1.00
H485   H     0.29976   0.23448   0.90348   0.00000  Uiso   1.00
H486   H     0.00382   0.26648   0.98556   0.00000  Uiso   1.00
H487   H     0.01520   0.10443   0.50314   0.00000  Uiso   1.00
H488   H     0.17128   0.24822   0.58052   0.00000  Uiso   1.00
N489   N     0.14695   0.15216   0.73739   0.00000  Uiso   1.00
N490   N     0.18638   0.18117   0.76260   0.00000  Uiso   1.00
O491   O     0.29719   0.24631   0.75309   0.00000  Uiso   1.00
O492   O     0.03614   0.08702   0.74690   0.00000  Uiso   1.00
O493   O     0.05822   0.23702   0.74501   0.00000  Uiso   1.00
O494   O     0.27512   0.09632   0.75498   0.00000  Uiso   1.00
O495   O     0.30328   0.17397   0.82247   0.00000  Uiso   1.00
O496   O     0.03005   0.15937   0.67753   0.00000  Uiso   1.00
O497   O     0.06431   0.16467   0.81439   0.00000  Uiso   1.00
O498   O     0.26902   0.16866   0.68561   0.00000  Uiso   1.00
Zn499  Zn    0.27033   0.17287   0.75539   0.00000  Uiso   1.00
Zn500  Zn    0.06300   0.16046   0.74460   0.00000  Uiso   1.00
C501   C     0.34840   0.26489   0.74881   0.00000  Uiso   1.00
C502   C     0.64563   0.16304   0.65900   0.00000  Uiso   1.00
C503   C     0.36689   0.18247   0.89267   0.00000  Uiso   1.00
C504   C     0.63584   0.16068   0.60649   0.00000  Uiso   1.00
C505   C     0.35994   0.23826   0.96516   0.00000  Uiso   1.00
C506   C     0.65534   0.12640   0.52641   0.00000  Uiso   1.00
C507   C     0.33796   0.21929   0.91905   0.00000  Uiso   1.00
C508   C     0.33805   0.13478   0.57571   0.00000  Uiso   1.00
C509   C     0.41592   0.16355   0.91277   0.00000  Uiso   1.00
C510   C     0.58736   0.18186   0.58759   0.00000  Uiso   1.00
C511   C     0.44231   0.18642   0.95604   0.00000  Uiso   1.00
C512   C     0.65161   0.06844   0.75123   0.00000  Uiso   1.00
C513   C     0.57059   0.17449   0.53828   0.00000  Uiso   1.00
C514   C     0.41250   0.22274   0.98351   0.00000  Uiso   1.00
C515   C     0.60406   0.14428   0.50790   0.00000  Uiso   1.00
C516   C     0.49762   0.17431   0.97225   0.00000  Uiso   1.00
C517   C     0.51906   0.19284   0.51947   0.00000  Uiso   1.00
C518   C     0.48832   0.22900   0.54627   0.00000  Uiso   1.00
C519   C     0.53280   0.14562   0.94222   0.00000  Uiso   1.00
C520   C     0.43612   0.24389   0.52827   0.00000  Uiso   1.00
C521   C     0.58532   0.13128   0.95982   0.00000  Uiso   1.00
C522   C     0.35622   0.31948   0.74812   0.00000  Uiso   1.00
C523   C     0.64380   0.01385   0.75196   0.00000  Uiso   1.00
C524   C     0.35459   0.17130   0.84094   0.00000  Uiso   1.00
H525   H     0.41417   0.27210   0.54950   0.00000  Uiso   1.00
H526   H     0.52175   0.13495   0.90433   0.00000  Uiso   1.00
H527   H     0.39931   0.00335   0.74445   0.00000  Uiso   1.00
H528   H     0.60071   0.32999   0.75564   0.00000  Uiso   1.00
H529   H     0.49570   0.12481   0.71383   0.00000  Uiso   1.00
H530   H     0.50430   0.20851   0.78619   0.00000  Uiso   1.00
H531   H     0.61084   0.10897   0.93590   0.00000  Uiso   1.00
H532   H     0.56114   0.20097   0.61284   0.00000  Uiso   1.00
H533   H     0.43395   0.13224   0.89255   0.00000  Uiso   1.00
H534   H     0.37638   0.11879   0.59007   0.00000  Uiso   1.00
H535   H     0.63309   0.23448   0.90348   0.00000  Uiso   1.00
H536   H     0.33715   0.26648   0.98556   0.00000  Uiso   1.00
H537   H     0.34853   0.10443   0.50314   0.00000  Uiso   1.00
H538   H     0.50461   0.24822   0.58052   0.00000  Uiso   1.00
N539   N     0.48029   0.15216   0.73739   0.00000  Uiso   1.00
N540   N     0.51971   0.18117   0.76260   0.00000  Uiso   1.00
O541   O     0.63052   0.24631   0.75309   0.00000  Uiso   1.00
O542   O     0.36948   0.08702   0.74690   0.00000  Uiso   1.00
O543   O     0.39155   0.23702   0.74501   0.00000  Uiso   1.00
O544   O     0.60845   0.09632   0.75498   0.00000  Uiso   1.00
O545   O     0.63662   0.17397   0.82247   0.00000  Uiso   1.00
O546   O     0.36338   0.15937   0.67753   0.00000  Uiso   1.00
O547   O     0.39764   0.16467   0.81439   0.00000  Uiso   1.00
O548   O     0.60236   0.16866   0.68561   0.00000  Uiso   1.00
Zn549  Zn    0.60366   0.17287   0.75539   0.00000  Uiso   1.00
Zn550  Zn    0.39634   0.16046   0.74460   0.00000  Uiso   1.00
C551   C     0.68173   0.26489   0.74881   0.00000  Uiso   1.00
C552   C     0.97896   0.16304   0.65900   0.00000  Uiso   1.00
C553   C     0.70022   0.18247   0.89267   0.00000  Uiso   1.00
C554   C     0.96917   0.16068   0.60649   0.00000  Uiso   1.00
C555   C     0.69327   0.23826   0.96516   0.00000  Uiso   1.00
C556   C     0.98868   0.12640   0.52641   0.00000  Uiso   1.00
C557   C     0.67130   0.21929   0.91905   0.00000  Uiso   1.00
C558   C     0.67138   0.13478   0.57571   0.00000  Uiso   1.00
C559   C     0.74926   0.16355   0.91277   0.00000  Uiso   1.00
C560   C     0.92070   0.18186   0.58759   0.00000  Uiso   1.00
C561   C     0.77565   0.18642   0.95604   0.00000  Uiso   1.00
C562   C     0.98494   0.06844   0.75123   0.00000  Uiso   1.00
C563   C     0.90393   0.17449   0.53828   0.00000  Uiso   1.00
C564   C     0.74584   0.22274   0.98351   0.00000  Uiso   1.00
C565   C     0.93740   0.14428   0.50790   0.00000  Uiso   1.00
C566   C     0.83095   0.17431   0.97225   0.00000  Uiso   1.00
C567   C     0.85239   0.19284   0.51947   0.00000  Uiso   1.00
C568   C     0.82166   0.22900   0.54627   0.00000  Uiso   1.00
C569   C     0.86613   0.14562   0.94222   0.00000  Uiso   1.00
C570   C     0.76945   0.24389   0.52827   0.00000  Uiso   1.00
C571   C     0.91865   0.13128   0.95982   0.00000  Uiso   1.00
C572   C     0.68955   0.31948   0.74812   0.00000  Uiso   1.00
C573   C     0.97713   0.01385   0.75196   0.00000  Uiso   1.00
C574   C     0.68793   0.17130   0.84094   0.00000  Uiso   1.00
H575   H     0.74751   0.27210   0.54950   0.00000  Uiso   1.00
H576   H     0.85508   0.13495   0.90433   0.00000  Uiso   1.00
H577   H     0.73264   0.00335   0.74445   0.00000  Uiso   1.00
H578   H     0.93404   0.32999   0.75564   0.00000  Uiso   1.00
H579   H     0.82903   0.12481   0.71383   0.00000  Uiso   1.00
H580   H     0.83763   0.20851   0.78619   0.00000  Uiso   1.00
H581   H     0.94417   0.10897   0.93590   0.00000  Uiso   1.00
H582   H     0.89448   0.20097   0.61284   0.00000  Uiso   1.00
H583   H     0.76728   0.13224   0.89255   0.00000  Uiso   1.00
H584   H     0.70971   0.11879   0.59007   0.00000  Uiso   1.00
H585   H     0.96642   0.23448   0.90348   0.00000  Uiso   1.00
H586   H     0.67049   0.26648   0.98556   0.00000  Uiso   1.00
H587   H     0.68186   0.10443   0.50314   0.00000  Uiso   1.00
H588   H     0.83795   0.24822   0.58052   0.00000  Uiso   1.00
N589   N     0.81362   0.15216   0.73739   0.00000  Uiso   1.00
N590   N     0.85305   0.18117   0.76260   0.00000  Uiso   1.00
O591   O     0.96386   0.24631   0.75309   0.00000  Uiso   1.00
O592   O     0.70281   0.08702   0.74690   0.00000  Uiso   1.00
O593   O     0.72488   0.23702   0.74501   0.00000  Uiso   1.00
O594   O     0.94178   0.09632   0.75498   0.00000  Uiso   1.00
O595   O     0.96995   0.17397   0.82247   0.00000  Uiso   1.00
O596   O     0.69672   0.15937   0.67753   0.00000  Uiso   1.00
O597   O     0.73098   0.16467   0.81439   0.00000  Uiso   1.00
O598   O     0.93569   0.16866   0.68561   0.00000  Uiso   1.00
Zn599  Zn    0.93700   0.17287   0.75539   0.00000  Uiso   1.00
Zn600  Zn    0.72967   0.16046   0.74460   0.00000  Uiso   1.00
C601   C     0.01507   0.59823   0.74881   0.00000  Uiso   1.00
C602   C     0.31230   0.49637   0.65900   0.00000  Uiso   1.00
C603   C     0.03355   0.51581   0.89267   0.00000  Uiso   1.00
C604   C     0.30250   0.49401   0.60649   0.00000  Uiso   1.00
C605   C     0.02661   0.57159   0.96516   0.00000  Uiso   1.00
C606   C     0.32201   0.45974   0.52641   0.00000  Uiso   1.00
C607   C     0.00463   0.55262   0.91905   0.00000  Uiso   1.00
C608   C     0.00471   0.46811   0.57571   0.00000  Uiso   1.00
C609   C     0.08259   0.49689   0.91277   0.00000  Uiso   1.00
C610   C     0.25403   0.51519   0.58759   0.00000  Uiso   1.00
C611   C     0.10898   0.51975   0.95604   0.00000  Uiso   1.00
C612   C     0.31827   0.40177   0.75123   0.00000  Uiso   1.00
C613   C     0.23726   0.50783   0.53828   0.00000  Uiso   1.00
C614   C     0.07917   0.55607   0.98351   0.00000  Uiso   1.00
C615   C     0.27073   0.47761   0.50790   0.00000  Uiso   1.00
C616   C     0.16428   0.50764   0.97225   0.00000  Uiso   1.00
C617   C     0.18573   0.52617   0.51947   0.00000  Uiso   1.00
C618   C     0.15499   0.56233   0.54627   0.00000  Uiso   1.00
C619   C     0.19946   0.47895   0.94222   0.00000  Uiso   1.00
C620   C     0.10278   0.57722   0.52827   0.00000  Uiso   1.00
C621   C     0.25198   0.46461   0.95982   0.00000  Uiso   1.00
C622   C     0.02289   0.65282   0.74812   0.00000  Uiso   1.00
C623   C     0.31046   0.34719   0.75196   0.00000  Uiso   1.00
C624   C     0.02126   0.50463   0.84094   0.00000  Uiso   1.00
H625   H     0.08084   0.60544   0.54950   0.00000  Uiso   1.00
H626   H     0.18842   0.46828   0.90433   0.00000  Uiso   1.00
H627   H     0.06598   0.33668   0.74445   0.00000  Uiso   1.00
H628   H     0.26737   0.66332   0.75564   0.00000  Uiso   1.00
H629   H     0.16237   0.45815   0.71383   0.00000  Uiso   1.00
H630   H     0.17097   0.54184   0.78619   0.00000  Uiso   1.00
H631   H     0.27751   0.44231   0.93590   0.00000  Uiso   1.00
H632   H     0.22781   0.53431   0.61284   0.00000  Uiso   1.00
H633   H     0.10062   0.46558   0.89255   0.00000  Uiso   1.00
H634   H     0.04304   0.45212   0.59007   0.00000  Uiso   1.00
H635   H     0.29976   0.56782   0.90348   0.00000  Uiso   1.00
H636   H     0.00382   0.59982   0.98556   0.00000  Uiso   1.00
H637   H     0.01520   0.43776   0.50314   0.00000  Uiso   1.00
H638   H     0.17128   0.58155   0.58052   0.00000  Uiso   1.00
N639   N     0.14695   0.48550   0.73739   0.00000  Uiso   1.00
N640   N     0.18638   0.51450   0.76260   0.00000  Uiso   1.00
O641   O     0.29719   0.57964   0.75309   0.00000  Uiso   1.00
O642   O     0.03614   0.42036   0.74690   0.00000  Uiso   1.00
O643   O     0.05822   0.57035   0.74501   0.00000  Uiso   1.00
O644   O     0.27512   0.42965   0.75498   0.00000  Uiso   1.00
O645   O     0.30328   0.50730   0.82247   0.00000  Uiso   1.00
O646   O     0.03005   0.49270   0.67753   0.00000  Uiso   1.00
O647   O     0.06431   0.49801   0.81439   0.00000  Uiso   1.00
O648   O     0.26902   0.50199   0.68561   0.00000  Uiso   1.00
Zn649  Zn    0.27033   0.50621   0.75539   0.00000  Uiso   1.00
Zn650  Zn    0.06300   0.49379   0.74460   0.00000  Uiso   1.00
C651   C     0.34840   0.59823   0.74881   0.00000  Uiso   1.00
C652   C     0.64563   0.49637   0.65900   0.00000  Uiso   1.00
C653   C     0.36689   0.51581   0.89267   0.00000  Uiso   1.00
C654   C     0.63584   0.49401   0.60649   0.00000  Uiso   1.00
C655   C     0.35994   0.57159   0.96516   0.00000  Uiso   1.00
C656   C     0.65534   0.45974   0.52641   0.00000  Uiso   1.00
C657   C     0.33796   0.55262   0.91905   0.00000  Uiso   1.00
C658   C     0.33805   0.46811   0.57571   0.00000  Uiso   1.00
C659   C     0.41592   0.49689   0.91277   0.00000  Uiso   1.00
C660   C     0.58736   0.51519   0.58759   0.00000  Uiso   1.00
C661   C     0.44231   0.51975   0.95604   0.00000  Uiso   1.00
C662   C     0.65161   0.40177   0.75123   0.00000  Uiso   1.00
C663   C     0.57059   0.50783   0.53828   0.00000  Uiso   1.00
C664   C     0.41250   0.55607   0.98351   0.00000  Uiso   1.00
C665   C     0.60406   0.47761   0.50790   0.00000  Uiso   1.00
C666   C     0.49762   0.50764   0.97225   0.00000  Uiso   1.00
C667   C     0.51906   0.52617   0.51947   0.00000  Uiso   1.00
C668   C     0.48832   0.56233   0.54627   0.00000  Uiso   1.00
C669   C     0.53280   0.47895   0.94222   0.00000  Uiso   1.00
C670   C     0.43612   0.57722   0.52827   0.00000  Uiso   1.00
C671   C     0.58532   0.46461   0.95982   0.00000  Uiso   1.00
C672   C     0.35622   0.65282   0.74812   0.00000  Uiso   1.00
C673   C     0.64380   0.34719   0.75196   0.00000  Uiso   1.00
C674   C     0.35459   0.50463   0.84094   0.00000  Uiso   1.00
H675   H     0.41417   0.60544   0.54950   0.00000  Uiso   1.00
H676   H     0.52175   0.46828   0.90433   0.00000  Uiso   1.00
H677   H     0.39931   0.33668   0.74445   0.00000  Uiso   1.00
H678   H     0.60071   0.66332   0.75564   0.00000  Uiso   1.00
H679   H     0.49570   0.45815   0.71383   0.00000  Uiso   1.00
H680   H     0.50430   0.54184   0.78619   0.00000  Uiso   1.00
H681   H     0.61084   0.44231   0.93590   0.00000  Uiso   1.00
H682   H     0.56114   0.53431   0.61284   0.00000  Uiso   1.00
H683   H     0.43395   0.46558   0.89255   0.00000  Uiso   1.00
H684   H     0.37638   0.45212   0.59007   0.00000  Uiso   1.00
H685   H     0.63309   0.56782   0.90348   0.00000  Uiso   1.00
H686   H     0.33715   0.59982   0.98556   0.00000  Uiso   1.00
H687   H     0.34853   0.43776   0.50314   0.00000  Uiso   1.00
H688   H     0.50461   0.58155   0.58052   0.00000  Uiso   1.00
N689   N     0.48029   0.48550   0.73739   0.00000  Uiso   1.00
N690   N     0.51971   0.51450   0.76260   0.00000  Uiso   1.00
O691   O     0.63052   0.57964   0.75309   0.00000  Uiso   1.00
O692   O     0.36948   0.42036   0.74690   0.00000  Uiso   1.00
O693   O     0.39155   0.57035   0.74501   0.00000  Uiso   1.00
O694   O     0.60845   0.42965   0.75498   0.00000  Uiso   1.00
O695   O     0.63662   0.50730   0.82247   0.00000  Uiso   1.00
O696   O     0.36338   0.49270   0.67753   0.00000  Uiso   1.00
O697   O     0.39764   0.49801   0.81439   0.00000  Uiso   1.00
O698   O     0.60236   0.50199   0.68561   0.00000  Uiso   1.00
Zn699  Zn    0.60366   0.50621   0.75539   0.00000  Uiso   1.00
Zn700  Zn    0.39634   0.49379   0.74460   0.00000  Uiso   1.00
C701   C     0.68173   0.59823   0.74881   0.00000  Uiso   1.00
C702   C     0.97896   0.49637   0.65900   0.00000  Uiso   1.00
C703   C     0.70022   0.51581   0.89267   0.00000  Uiso   1.00
C704   C     0.96917   0.49401   0.60649   0.00000  Uiso   1.00
C705   C     0.69327   0.57159   0.96516   0.00000  Uiso   1.00
C706   C     0.98868   0.45974   0.52641   0.00000  Uiso   1.00
C707   C     0.67130   0.55262   0.91905   0.00000  Uiso   1.00
C708   C     0.67138   0.46811   0.57571   0.00000  Uiso   1.00
C709   C     0.74926   0.49689   0.91277   0.00000  Uiso   1.00
C710   C     0.92070   0.51519   0.58759   0.00000  Uiso   1.00
C711   C     0.77565   0.51975   0.95604   0.00000  Uiso   1.00
C712   C     0.98494   0.40177   0.75123   0.00000  Uiso   1.00
C713   C     0.90393   0.50783   0.53828   0.00000  Uiso   1.00
C714   C     0.74584   0.55607   0.98351   0.00000  Uiso   1.00
C715   C     0.93740   0.47761   0.50790   0.00000  Uiso   1.00
C716   C     0.83095   0.50764   0.97225   0.00000  Uiso   1.00
C717   C     0.85239   0.52617   0.51947   0.00000  Uiso   1.00
C718   C     0.82166   0.56233   0.54627   0.00000  Uiso   1.00
C719   C     0.86613   0.47895   0.94222   0.00000  Uiso   1.00
C720   C     0.76945   0.57722   0.52827   0.00000  Uiso   1.00
C721   C     0.91865   0.46461   0.95982   0.00000  Uiso   1.00
C722   C     0.68955   0.65282   0.74812   0.00000  Uiso   1.00
C723   C     0.97713   0.34719   0.75196   0.00000  Uiso   1.00
C724   C     0.68793   0.50463   0.84094   0.00000  Uiso   1.00
H725   H     0.74751   0.60544   0.54950   0.00000  Uiso   1.00
H726   H     0.85508   0.46828   0.90433   0.00000  Uiso   1.00
H727   H     0.73264   0.33668   0.74445   0.00000  Uiso   1.00
H728   H     0.93404   0.66332   0.75564   0.00000  Uiso   1.00
H729   H     0.82903   0.45815   0.71383   0.00000  Uiso   1.00
H730   H     0.83763   0.54184   0.78619   0.00000  Uiso   1.00
H731   H     0.94417   0.44231   0.93590   0.00000  Uiso   1.00
H732   H     0.89448   0.53431   0.61284   0.00000  Uiso   1.00
H733   H     0.76728   0.46558   0.89255   0.00000  Uiso   1.00
H734   H     0.70971   0.45212   0.59007   0.00000  Uiso   1.00
H735   H     0.96642   0.56782   0.90348   0.00000  Uiso   1.00
H736   H     0.67049   0.59982   0.98556   0.00000  Uiso   1.00
H737   H     0.68186   0.43776   0.50314   0.00000  Uiso   1.00
H738   H     0.83795   0.58155   0.58052   0.00000  Uiso   1.00
N739   N     0.81362   0.48550   0.73739   0.00000  Uiso   1.00
N740   N     0.85305   0.51450   0.76260   0.00000  Uiso   1.00
O741   O     0.96386   0.57964   0.75309   0.00000  Uiso   1.00
O742   O     0.70281   0.42036   0.74690   0.00000  Uiso   1.00
O743   O     0.72488   0.57035   0.74501   0.00000  Uiso   1.00
O744   O     0.94178   0.42965   0.75498   0.00000  Uiso   1.00
O745   O     0.96995   0.50730   0.82247   0.00000  Uiso   1.00
O746   O     0.69672   0.49270   0.67753   0.00000  Uiso   1.00
O747   O     0.73098   0.49801   0.81439   0.00000  Uiso   1.00
O748   O     0.93569   0.50199   0.68561   0.00000  Uiso   1.00
Zn749  Zn    0.93700   0.50621   0.75539   0.00000  Uiso   1.00
Zn750  Zn    0.72967   0.49379   0.74460   0.00000  Uiso   1.00
C751   C     0.01507   0.93156   0.74881   0.00000  Uiso   1.00
C752   C     0.31230   0.82970   0.65900   0.00000  Uiso   1.00
C753   C     0.03355   0.84914   0.89267   0.00000  Uiso   1.00
C754   C     0.30250   0.82734   0.60649   0.00000  Uiso   1.00
C755   C     0.02661   0.90493   0.96516   0.00000  Uiso   1.00
C756   C     0.32201   0.79307   0.52641   0.00000  Uiso   1.00
C757   C     0.00463   0.88595   0.91905   0.00000  Uiso   1.00
C758   C     0.00471   0.80145   0.57571   0.00000  Uiso   1.00
C759   C     0.08259   0.83022   0.91277   0.00000  Uiso   1.00
C760   C     0.25403   0.84852   0.58759   0.00000  Uiso   1.00
C761   C     0.10898   0.85309   0.95604   0.00000  Uiso   1.00
C762   C     0.31827   0.73511   0.75123   0.00000  Uiso   1.00
C763   C     0.23726   0.84116   0.53828   0.00000  Uiso   1.00
C764   C     0.07917   0.88940   0.98351   0.00000  Uiso   1.00
C765   C     0.27073   0.81095   0.50790   0.00000  Uiso   1.00
C766   C     0.16428   0.84098   0.97225   0.00000  Uiso   1.00
C767   C     0.18573   0.85950   0.51947   0.00000  Uiso   1.00
C768   C     0.15499   0.89566   0.54627   0.00000  Uiso   1.00
C769   C     0.19946   0.81228   0.94222   0.00000  Uiso   1.00
C770   C     0.10278   0.91055   0.52827   0.00000  Uiso   1.00
C771   C     0.25198   0.79794   0.95982   0.00000  Uiso   1.00
C772   C     0.02289   0.98615   0.74812   0.00000  Uiso   1.00
C773   C     0.31046   0.68052   0.75196   0.00000  Uiso   1.00
C774   C     0.02126   0.83796   0.84094   0.00000  Uiso   1.00
H775   H     0.08084   0.93877   0.54950   0.00000  Uiso   1.00
H776   H     0.18842   0.80162   0.90433   0.00000  Uiso   1.00
H777   H     0.06598   0.67001   0.74445   0.00000  Uiso   1.00
H778   H     0.26737   0.99666   0.75564   0.00000  Uiso   1.00
H779   H     0.16237   0.79148   0.71383   0.00000  Uiso   1.00
H780   H     0.17097   0.87517   0.78619   0.00000  Uiso   1.00
H781   H     0.27751   0.77564   0.93590   0.00000  Uiso   1.00
H782   H     0.22781   0.86764   0.61284   0.00000  Uiso   1.00
H783   H     0.10062   0.79891   0.89255   0.00000  Uiso   1.00
H784   H     0.04304   0.78545   0.59007   0.00000  Uiso   1.00
H785   H     0.29976   0.90115   0.90348   0.00000  Uiso   1.00
H786   H     0.00382   0.93315   0.98556   0.00000  Uiso   1.00
H787   H     0.01520   0.77110   0.50314   0.00000  Uiso   1.00
H788   H     0.17128   0.91488   0.58052   0.00000  Uiso   1.00
N789   N     0.14695   0.81883   0.73739   0.00000  Uiso   1.00
N790   N     0.18638   0.84784   0.76260   0.00000  Uiso   1.00
O791   O     0.29719   0.91298   0.75309   0.00000  Uiso   1.00
O792   O     0.03614   0.75369   0.74690   0.00000  Uiso   1.00
O793   O     0.05822   0.90368   0.74501   0.00000  Uiso   1.00
O794   O     0.27512   0.76298   0.75498   0.00000  Uiso   1.00
O795   O     0.30328   0.84063   0.82247   0.00000  Uiso   1.00
O796   O     0.03005   0.82603   0.67753   0.00000  Uiso   1.00
O797   O     0.06431   0.83134   0.81439   0.00000  Uiso   1.00
O798   O     0.26902   0.83533   0.68561   0.00000  Uiso   1.00
Zn799  Zn    0.27033   0.83954   0.75539   0.00000  Uiso   1.00
Zn800  Zn    0.06300   0.82713   0.74460   0.00000  Uiso   1.00
C801   C     0.34840   0.93156   0.74881   0.00000  Uiso   1.00
C802   C     0.64563   0.82970   0.65900   0.00000  Uiso   1.00
C803   C     0.36689   0.84914   0.89267   0.00000  Uiso   1.00
C804   C     0.63584   0.82734   0.60649   0.00000  Uiso   1.00
C805   C     0.35994   0.90493   0.96516   0.00000  Uiso   1.00
C806   C     0.65534   0.79307   0.52641   0.00000  Uiso   1.00
C807   C     0.33796   0.88595   0.91905   0.00000  Uiso   1.00
C808   C     0.33805   0.80145   0.57571   0.00000  Uiso   1.00
C809   C     0.41592   0.83022   0.91277   0.00000  Uiso   1.00
C810   C     0.58736   0.84852   0.58759   0.00000  Uiso   1.00
C811   C     0.44231   0.85309   0.95604   0.00000  Uiso   1.00
C812   C     0.65161   0.73511   0.75123   0.00000  Uiso   1.00
C813   C     0.57059   0.84116   0.53828   0.00000  Uiso   1.00
C814   C     0.41250   0.88940   0.98351   0.00000  Uiso   1.00
C815   C     0.60406   0.81095   0.50790   0.00000  Uiso   1.00
C816   C     0.49762   0.84098   0.97225   0.00000  Uiso   1.00
C817   C     0.51906   0.85950   0.51947   0.00000  Uiso   1.00
C818   C     0.48832   0.89566   0.54627   0.00000  Uiso   1.00
C819   C     0.53280   0.81228   0.94222   0.00000  Uiso   1.00
C820   C     0.43612   0.91055   0.52827   0.00000  Uiso   1.00
C821   C     0.58532   0.79794   0.95982   0.00000  Uiso   1.00
C822   C     0.35622   0.98615   0.74812   0.00000  Uiso   1.00
C823   C     0.64380   0.68052   0.75196   0.00000  Uiso   1.00
C824   C     0.35459   0.83796   0.84094   0.00000  Uiso   1.00
H825   H     0.41417   0.93877   0.54950   0.00000  Uiso   1.00
H826   H     0.52175   0.80162   0.90433   0.00000  Uiso   1.00
H827   H     0.39931   0.67001   0.74445   0.00000  Uiso   1.00
H828   H     0.60071   0.99666   0.75564   0.00000  Uiso   1.00
H829   H     0.49570   0.79148   0.71383   0.00000  Uiso   1.00
H830   H     0.50430   0.87517   0.78619   0.00000  Uiso   1.00
H831   H     0.61084   0.77564   0.93590   0.00000  Uiso   1.00
H832   H     0.56114   0.86764   0.61284   0.00000  Uiso   1.00
H833   H     0.43395   0.79891   0.89255   0.00000  Uiso   1.00
H834   H     0.37638   0.78545   0.59007   0.00000  Uiso   1.00
H835   H     0.63309   0.90115   0.90348   0.00000  Uiso   1.00
H836   H     0.33715   0.93315   0.98556   0.00000  Uiso   1.00
H837   H     0.34853   0.77110   0.50314   0.00000  Uiso   1.00
H838   H     0.50461   0.91488   0.58052   0.00000  Uiso   1.00
N839   N     0.48029   0.81883   0.73739   0.00000  Uiso   1.00
N840   N     0.51971   0.84784   0.76260   0.00000  Uiso   1.00
O841   O     0.63052   0.91298   0.75309   0.00000  Uiso   1.00
O842   O     0.36948   0.75369   0.74690   0.00000  Uiso   1.00
O843   O     0.39155   0.90368   0.74501   0.00000  Uiso   1.00
O844   O     0.60845   0.76298   0.75498   0.00000  Uiso   1.00
O845   O     0.63662   0.84063   0.82247   0.00000  Uiso   1.00
O846   O     0.36338   0.82603   0.67753   0.00000  Uiso   1.00
O847   O     0.39764   0.83134   0.81439   0.00000  Uiso   1.00
O848   O     0.60236   0.83533   0.68561   0.00000  Uiso   1.00
Zn849  Zn    0.60366   0.83954   0.75539   0.00000  Uiso   1.00
Zn850  Zn    0.39634   0.82713   0.74460   0.00000  Uiso   1.00
C851   C     0.68173   0.93156   0.74881   0.00000  Uiso   1.00
C852   C     0.97896   0.82970   0.65900   0.00000  Uiso   1.00
C853   C     0.70022   0.84914   0.89267   0.00000  Uiso   1.00
C854   C     0.96917   0.82734   0.60649   0.00000  Uiso   1.00
C855   C     0.69327   0.90493   0.96516   0.00000  Uiso   1.00
C856   C     0.98868   0.79307   0.52641   0.00000  Uiso   1.00
C857   C     0.67130   0.88595   0.91905   0.00000  Uiso   1.00
C858   C     0.67138   0.80145   0.57571   0.00000  Uiso   1.00
C859   C     0.74926   0.83022   0.91277   0.00000  Uiso   1.00
C860   C     0.92070   0.84852   0.58759   0.00000  Uiso   1.00
C861   C     0.77565   0.85309   0.95604   0.00000  Uiso   1.00
C862   C     0.98494   0.73511   0.75123   0.00000  Uiso   1.00
C863   C     0.90393   0.84116   0.53828   0.00000  Uiso   1.00
C864   C     0.74584   0.88940   0.98351   0.00000  Uiso   1.00
C865   C     0.93740   0.81095   0.50790   0.00000  Uiso   1.00
C866   C     0.83095   0.84098   0.97225   0.00000  Uiso   1.00
C867   C     0.85239   0.85950   0.51947   0.00000  Uiso   1.00
C868   C     0.82166   0.89566   0.54627   0.00000  Uiso   1.00
C869   C     0.86613   0.81228   0.94222   0.00000  Uiso   1.00
C870   C     0.76945   0.91055   0.52827   0.00000  Uiso   1.00
C871   C     0.91865   0.79794   0.95982   0.00000  Uiso   1.00
C872   C     0.68955   0.98615   0.74812   0.00000  Uiso   1.00
C873   C     0.97713   0.68052   0.75196   0.00000  Uiso   1.00
C874   C     0.68793   0.83796   0.84094   0.00000  Uiso   1.00
H875   H     0.74751   0.93877   0.54950   0.00000  Uiso   1.00
H876   H     0.85508   0.80162   0.90433   0.00000  Uiso   1.00
H877   H     0.73264   0.67001   0.74445   0.00000  Uiso   1.00
H878   H     0.93404   0.99666   0.75564   0.00000  Uiso   1.00
H879   H     0.82903   0.79148   0.71383   0.00000  Uiso   1.00
H880   H     0.83763   0.87517   0.78619   0.00000  Uiso   1.00
H881   H     0.94417   0.77564   0.93590   0.00000  Uiso   1.00
H882   H     0.89448   0.86764   0.61284   0.00000  Uiso   1.00
H883   H     0.76728   0.79891   0.89255   0.00000  Uiso   1.00
H884   H     0.70971   0.78545   0.59007   0.00000  Uiso   1.00
H885   H     0.96642   0.90115   0.90348   0.00000  Uiso   1.00
H886   H     0.67049   0.93315   0.98556   0.00000  Uiso   1.00
H887   H     0.68186   0.77110   0.50314   0.00000  Uiso   1.00
H888   H     0.83795   0.91488   0.58052   0.00000  Uiso   1.00
N889   N     0.81362   0.81883   0.73739   0.00000  Uiso   1.00
N890   N     0.85305   0.84784   0.76260   0.00000  Uiso   1.00
O891   O     0.96386   0.91298   0.75309   0.00000  Uiso   1.00
O892   O     0.70281   0.75369   0.74690   0.00000  Uiso   1.00
O893   O     0.72488   0.90368   0.74501   0.00000  Uiso   1.00
O894   O     0.94178   0.76298   0.75498   0.00000  Uiso   1.00
O895   O     0.96995   0.84063   0.82247   0.00000  Uiso   1.00
O896   O     0.69672   0.82603   0.67753   0.00000  Uiso   1.00
O897   O     0.73098   0.83134   0.81439   0.00000  Uiso   1.00
O898   O     0.93569   0.83533   0.68561   0.00000  Uiso   1.00
Zn899  Zn    0.93700   0.83954   0.75539   0.00000  Uiso   1.00
Zn900  Zn    0.72967   0.82713   0.74460   0.00000  Uiso   1.00
loop_
_geom_bond_atom_site_label_1
_geom_bond_atom_site_label_2
_geom_bond_distance
_geom_bond_site_symmetry_2
_ccdc_geom_bond_type
C1     C22     1.403   .     S
C1     O43     1.290   .     A
C1     O141    1.277   1_455 S
C2     C4      1.451   .     S
C2     O48     1.299   .     A
C2     O96     1.292   .     S
C3     C9      1.385   .     A
C3     C24     1.448   .     S
C3     C7      1.399   .     A
C4     C10     1.388   .     A
C4     C58     1.400   .     S
C5     C14     1.404   .     A
C5     H36     1.084   .     S
C5     C7      1.393   .     A
C6     C15     1.403   .     A
C6     C58     1.391   .     S
C6     H87     1.084   .     S
C7     H135    1.083   1_455 S
C8     H34     1.083   .     S
C8     C104    1.400   1_455 S
C8     C106    1.391   1_455 S
C9     C11     1.392   .     A
C9     H33     1.079   .     S
C10    H32     1.077   .     S
C10    C13     1.393   .     A
C11    C16     1.414   .     A
C11    C14     1.418   .     A
C12    O44     1.290   .     A
C12    C23     1.403   .     S
C12    O92     1.277   .     S
C13    C17     1.416   .     A
C13    C15     1.419   .     A
C14    C470    1.389   .     S
C15    C471    1.389   1_554 S
C16    C19     1.418   .     A
C16    C467    1.414   .     S
C17    C18     1.419   .     A
C17    C466    1.414   1_554 S
C18    C20     1.387   .     A
C18    H38     1.078   .     S
C19    C21     1.385   .     A
C19    H26     1.078   .     S
C20    H25     1.084   .     S
C20    C464    1.389   1_554 S
C21    H31     1.084   .     S
C21    C465    1.389   .     S
C22    C273    1.339   1_455 S
C22    H177    1.088   .     S
C23    C372    1.339   1_545 S
C23    H328    1.088   1_545 S
C24    O47     1.298   .     A
C24    O145    1.292   1_455 S
H27    C322    1.088   1_545 S
H28    C173    1.088   .     S
H29    N39     1.029   .     S
H30    N40     1.029   .     S
H35    C57     1.083   .     S
H37    C106    1.084   1_455 S
N39    Zn50    2.021   .     S
N39    N40     1.291   .     D
N40    Zn49    2.021   .     S
O41    Zn49    1.952   .     S
O41    C51     1.277   .     S
O42    Zn50    1.952   .     S
O42    C112    1.277   1_455 S
O43    Zn50    1.979   .     S
O44    Zn49    1.979   .     S
O45    Zn49    1.964   .     S
O45    C74     1.292   .     S
O46    Zn50    1.964   .     S
O46    C102    1.292   1_455 S
O47    Zn50    1.920   .     S
O48    Zn49    1.920   .     S
C51    C72     1.403   .     S
C51    O93     1.290   .     A
C52    C54     1.451   .     S
C52    O98     1.299   .     A
C52    O146    1.292   .     S
C53    C59     1.385   .     A
C53    C74     1.448   .     S
C53    C57     1.399   .     A
C54    C60     1.388   .     A
C54    C108    1.400   .     S
C55    C64     1.404   .     A
C55    H86     1.084   .     S
C55    C57     1.393   .     A
C56    C65     1.403   .     A
C56    C108    1.391   .     S
C56    H137    1.084   .     S
C58    H84     1.083   .     S
C59    C61     1.392   .     A
C59    H83     1.079   .     S
C60    H82     1.077   .     S
C60    C63     1.393   .     A
C61    C66     1.414   .     A
C61    C64     1.418   .     A
C62    O94     1.290   .     A
C62    C73     1.403   .     S
C62    O142    1.277   .     S
C63    C67     1.416   .     A
C63    C65     1.419   .     A
C64    C520    1.389   .     S
C65    C521    1.389   1_554 S
C66    C69     1.418   .     A
C66    C517    1.414   .     S
C67    C68     1.419   .     A
C67    C516    1.414   1_554 S
C68    C70     1.387   .     A
C68    H88     1.078   .     S
C69    C71     1.385   .     A
C69    H76     1.078   .     S
C70    H75     1.084   .     S
C70    C514    1.389   1_554 S
C71    H81     1.084   .     S
C71    C515    1.389   .     S
C72    C173    1.339   .     S
C72    H227    1.088   .     S
C73    C422    1.339   1_545 S
C73    H378    1.088   1_545 S
C74    O97     1.298   .     A
H77    C372    1.088   1_545 S
H78    C223    1.088   .     S
H79    N89     1.029   .     S
H80    N90     1.029   .     S
H85    C107    1.083   .     S
N89    Zn100   2.021   .     S
N89    N90     1.291   .     D
N90    Zn99    2.021   .     S
O91    Zn99    1.952   .     S
O91    C101    1.277   .     S
O92    Zn100   1.952   .     S
O93    Zn100   1.979   .     S
O94    Zn99    1.979   .     S
O95    Zn99    1.964   .     S
O95    C124    1.292   .     S
O96    Zn100   1.964   .     S
O97    Zn100   1.920   .     S
O98    Zn99    1.920   .     S
C101   C122    1.403   .     S
C101   O143    1.290   .     A
C102   C104    1.451   .     S
C102   O148    1.299   .     A
C102   O46     1.292   1_655 S
C103   C109    1.385   .     A
C103   C124    1.448   .     S
C103   C107    1.399   .     A
C104   C110    1.388   .     A
C104   C8      1.400   1_655 S
C105   C114    1.404   .     A
C105   H136    1.084   .     S
C105   C107    1.393   .     A
C106   C115    1.403   .     A
C106   C8      1.391   1_655 S
C106   H37     1.084   1_655 S
C108   H134    1.083   .     S
C109   C111    1.392   .     A
C109   H133    1.079   .     S
C110   H132    1.077   .     S
C110   C113    1.393   .     A
C111   C116    1.414   .     A
C111   C114    1.418   .     A
C112   O144    1.290   .     A
C112   C123    1.403   .     S
C112   O42     1.277   1_655 S
C113   C117    1.416   .     A
C113   C115    1.419   .     A
C114   C570    1.389   .     S
C115   C571    1.389   1_554 S
C116   C119    1.418   .     A
C116   C567    1.414   .     S
C117   C118    1.419   .     A
C117   C566    1.414   1_554 S
C118   C120    1.387   .     A
C118   H138    1.078   .     S
C119   C121    1.385   .     A
C119   H126    1.078   .     S
C120   H125    1.084   .     S
C120   C564    1.389   1_554 S
C121   H131    1.084   .     S
C121   C565    1.389   .     S
C122   C223    1.339   .     S
C122   H277    1.088   .     S
C123   C322    1.339   1_645 S
C123   H428    1.088   1_545 S
C124   O147    1.298   .     A
H127   C422    1.088   1_545 S
H128   C273    1.088   .     S
H129   N139    1.029   .     S
H130   N140    1.029   .     S
H135   C7      1.083   1_655 S
N139   Zn150   2.021   .     S
N139   N140    1.291   .     D
N140   Zn149   2.021   .     S
O141   Zn149   1.952   .     S
O141   C1      1.277   1_655 S
O142   Zn150   1.952   .     S
O143   Zn150   1.979   .     S
O144   Zn149   1.979   .     S
O145   Zn149   1.964   .     S
O145   C24     1.292   1_655 S
O146   Zn150   1.964   .     S
O147   Zn150   1.920   .     S
O148   Zn149   1.920   .     S
C151   C172    1.403   .     S
C151   O193    1.290   .     A
C151   O291    1.277   1_455 S
C152   C154    1.451   .     S
C152   O198    1.299   .     A
C152   O246    1.292   .     S
C153   C159    1.385   .     A
C153   C174    1.448   .     S
C153   C157    1.399   .     A
C154   C160    1.388   .     A
C154   C208    1.400   .     S
C155   C164    1.404   .     A
C155   H186    1.084   .     S
C155   C157    1.393   .     A
C156   C165    1.403   .     A
C156   C208    1.391   .     S
C156   H237    1.084   .     S
C157   H285    1.083   1_455 S
C158   H184    1.083   .     S
C158   C254    1.400   1_455 S
C158   C256    1.391   1_455 S
C159   C161    1.392   .     A
C159   H183    1.079   .     S
C160   H182    1.077   .     S
C160   C163    1.393   .     A
C161   C166    1.414   .     A
C161   C164    1.418   .     A
C162   O194    1.290   .     A
C162   C173    1.403   .     S
C162   O242    1.277   .     S
C163   C167    1.416   .     A
C163   C165    1.419   .     A
C164   C620    1.389   .     S
C165   C621    1.389   1_554 S
C166   C169    1.418   .     A
C166   C617    1.414   .     S
C167   C168    1.419   .     A
C167   C616    1.414   1_554 S
C168   C170    1.387   .     A
C168   H188    1.078   .     S
C169   C171    1.385   .     A
C169   H176    1.078   .     S
C170   H175    1.084   .     S
C170   C614    1.389   1_554 S
C171   H181    1.084   .     S
C171   C615    1.389   .     S
C172   C423    1.339   1_455 S
C172   H327    1.088   .     S
C174   O197    1.298   .     A
C174   O295    1.292   1_455 S
H178   C323    1.088   .     S
H179   N189    1.029   .     S
H180   N190    1.029   .     S
H185   C207    1.083   .     S
H187   C256    1.084   1_455 S
N189   Zn200   2.021   .     S
N189   N190    1.291   .     D
N190   Zn199   2.021   .     S
O191   Zn199   1.952   .     S
O191   C201    1.277   .     S
O192   Zn200   1.952   .     S
O192   C262    1.277   1_455 S
O193   Zn200   1.979   .     S
O194   Zn199   1.979   .     S
O195   Zn199   1.964   .     S
O195   C224    1.292   .     S
O196   Zn200   1.964   .     S
O196   C252    1.292   1_455 S
O197   Zn200   1.920   .     S
O198   Zn199   1.920   .     S
C201   C222    1.403   .     S
C201   O243    1.290   .     A
C202   C204    1.451   .     S
C202   O248    1.299   .     A
C202   O296    1.292   .     S
C203   C209    1.385   .     A
C203   C224    1.448   .     S
C203   C207    1.399   .     A
C204   C210    1.388   .     A
C204   C258    1.400   .     S
C205   C214    1.404   .     A
C205   H236    1.084   .     S
C205   C207    1.393   .     A
C206   C215    1.403   .     A
C206   C258    1.391   .     S
C206   H287    1.084   .     S
C208   H234    1.083   .     S
C209   C211    1.392   .     A
C209   H233    1.079   .     S
C210   H232    1.077   .     S
C210   C213    1.393   .     A
C211   C216    1.414   .     A
C211   C214    1.418   .     A
C212   O244    1.290   .     A
C212   C223    1.403   .     S
C212   O292    1.277   .     S
C213   C217    1.416   .     A
C213   C215    1.419   .     A
C214   C670    1.389   .     S
C215   C671    1.389   1_554 S
C216   C219    1.418   .     A
C216   C667    1.414   .     S
C217   C218    1.419   .     A
C217   C666    1.414   1_554 S
C218   C220    1.387   .     A
C218   H238    1.078   .     S
C219   C221    1.385   .     A
C219   H226    1.078   .     S
C220   H225    1.084   .     S
C220   C664    1.389   1_554 S
C221   H231    1.084   .     S
C221   C665    1.389   .     S
C222   C323    1.339   .     S
C222   H377    1.088   .     S
C224   O247    1.298   .     A
H228   C373    1.088   .     S
H229   N239    1.029   .     S
H230   N240    1.029   .     S
H235   C257    1.083   .     S
N239   Zn250   2.021   .     S
N239   N240    1.291   .     D
N240   Zn249   2.021   .     S
O241   Zn249   1.952   .     S
O241   C251    1.277   .     S
O242   Zn250   1.952   .     S
O243   Zn250   1.979   .     S
O244   Zn249   1.979   .     S
O245   Zn249   1.964   .     S
O245   C274    1.292   .     S
O246   Zn250   1.964   .     S
O247   Zn250   1.920   .     S
O248   Zn249   1.920   .     S
C251   C272    1.403   .     S
C251   O293    1.290   .     A
C252   C254    1.451   .     S
C252   O298    1.299   .     A
C252   O196    1.292   1_655 S
C253   C259    1.385   .     A
C253   C274    1.448   .     S
C253   C257    1.399   .     A
C254   C260    1.388   .     A
C254   C158    1.400   1_655 S
C255   C264    1.404   .     A
C255   H286    1.084   .     S
C255   C257    1.393   .     A
C256   C265    1.403   .     A
C256   C158    1.391   1_655 S
C256   H187    1.084   1_655 S
C258   H284    1.083   .     S
C259   C261    1.392   .     A
C259   H283    1.079   .     S
C260   H282    1.077   .     S
C260   C263    1.393   .     A
C261   C266    1.414   .     A
C261   C264    1.418   .     A
C262   O294    1.290   .     A
C262   C273    1.403   .     S
C262   O192    1.277   1_655 S
C263   C267    1.416   .     A
C263   C265    1.419   .     A
C264   C720    1.389   .     S
C265   C721    1.389   1_554 S
C266   C269    1.418   .     A
C266   C717    1.414   .     S
C267   C268    1.419   .     A
C267   C716    1.414   1_554 S
C268   C270    1.387   .     A
C268   H288    1.078   .     S
C269   C271    1.385   .     A
C269   H276    1.078   .     S
C270   H275    1.084   .     S
C270   C714    1.389   1_554 S
C271   H281    1.084   .     S
C271   C715    1.389   .     S
C272   C373    1.339   .     S
C272   H427    1.088   .     S
C273   C22     1.339   1_655 S
C274   O297    1.298   .     A
H278   C423    1.088   .     S
H279   N289    1.029   .     S
H280   N290    1.029   .     S
H285   C157    1.083   1_655 S
N289   Zn300   2.021   .     S
N289   N290    1.291   .     D
N290   Zn299   2.021   .     S
O291   Zn299   1.952   .     S
O291   C151    1.277   1_655 S
O292   Zn300   1.952   .     S
O293   Zn300   1.979   .     S
O294   Zn299   1.979   .     S
O295   Zn299   1.964   .     S
O295   C174    1.292   1_655 S
O296   Zn300   1.964   .     S
O297   Zn300   1.920   .     S
O298   Zn299   1.920   .     S
C301   C322    1.403   .     S
C301   O343    1.290   .     A
C301   O441    1.277   1_455 S
C302   C304    1.451   .     S
C302   O348    1.299   .     A
C302   O396    1.292   .     S
C303   C309    1.385   .     A
C303   C324    1.448   .     S
C303   C307    1.399   .     A
C304   C310    1.388   .     A
C304   C358    1.400   .     S
C305   C314    1.404   .     A
C305   H336    1.084   .     S
C305   C307    1.393   .     A
C306   C315    1.403   .     A
C306   C358    1.391   .     S
C306   H387    1.084   .     S
C307   H435    1.083   1_455 S
C308   H334    1.083   .     S
C308   C404    1.400   1_455 S
C308   C406    1.391   1_455 S
C309   C311    1.392   .     A
C309   H333    1.079   .     S
C310   H332    1.077   .     S
C310   C313    1.393   .     A
C311   C316    1.414   .     A
C311   C314    1.418   .     A
C312   O344    1.290   .     A
C312   C323    1.403   .     S
C312   O392    1.277   .     S
C313   C317    1.416   .     A
C313   C315    1.419   .     A
C314   C770    1.389   .     S
C315   C771    1.389   1_554 S
C316   C319    1.418   .     A
C316   C767    1.414   .     S
C317   C318    1.419   .     A
C317   C766    1.414   1_554 S
C318   C320    1.387   .     A
C318   H338    1.078   .     S
C319   C321    1.385   .     A
C319   H326    1.078   .     S
C320   H325    1.084   .     S
C320   C764    1.389   1_554 S
C321   H331    1.084   .     S
C321   C765    1.389   .     S
C322   C123    1.339   1_465 S
C322   H27     1.088   1_565 S
C324   O347    1.298   .     A
C324   O445    1.292   1_455 S
H328   C23     1.088   1_565 S
H329   N339    1.029   .     S
H330   N340    1.029   .     S
H335   C357    1.083   .     S
H337   C406    1.084   1_455 S
N339   Zn350   2.021   .     S
N339   N340    1.291   .     D
N340   Zn349   2.021   .     S
O341   Zn349   1.952   .     S
O341   C351    1.277   .     S
O342   Zn350   1.952   .     S
O342   C412    1.277   1_455 S
O343   Zn350   1.979   .     S
O344   Zn349   1.979   .     S
O345   Zn349   1.964   .     S
O345   C374    1.292   .     S
O346   Zn350   1.964   .     S
O346   C402    1.292   1_455 S
O347   Zn350   1.920   .     S
O348   Zn349   1.920   .     S
C351   C372    1.403   .     S
C351   O393    1.290   .     A
C352   C354    1.451   .     S
C352   O398    1.299   .     A
C352   O446    1.292   .     S
C353   C359    1.385   .     A
C353   C374    1.448   .     S
C353   C357    1.399   .     A
C354   C360    1.388   .     A
C354   C408    1.400   .     S
C355   C364    1.404   .     A
C355   H386    1.084   .     S
C355   C357    1.393   .     A
C356   C365    1.403   .     A
C356   C408    1.391   .     S
C356   H437    1.084   .     S
C358   H384    1.083   .     S
C359   C361    1.392   .     A
C359   H383    1.079   .     S
C360   H382    1.077   .     S
C360   C363    1.393   .     A
C361   C366    1.414   .     A
C361   C364    1.418   .     A
C362   O394    1.290   .     A
C362   C373    1.403   .     S
C362   O442    1.277   .     S
C363   C367    1.416   .     A
C363   C365    1.419   .     A
C364   C820    1.389   .     S
C365   C821    1.389   1_554 S
C366   C369    1.418   .     A
C366   C817    1.414   .     S
C367   C368    1.419   .     A
C367   C816    1.414   1_554 S
C368   C370    1.387   .     A
C368   H388    1.078   .     S
C369   C371    1.385   .     A
C369   H376    1.078   .     S
C370   H375    1.084   .     S
C370   C814    1.389   1_554 S
C371   H381    1.084   .     S
C371   C815    1.389   .     S
C372   C23     1.339   1_565 S
C372   H77     1.088   1_565 S
C374   O397    1.298   .     A
H378   C73     1.088   1_565 S
H379   N389    1.029   .     S
H380   N390    1.029   .     S
H385   C407    1.083   .     S
N389   Zn400   2.021   .     S
N389   N390    1.291   .     D
N390   Zn399   2.021   .     S
O391   Zn399   1.952   .     S
O391   C401    1.277   .     S
O392   Zn400   1.952   .     S
O393   Zn400   1.979   .     S
O394   Zn399   1.979   .     S
O395   Zn399   1.964   .     S
O395   C424    1.292   .     S
O396   Zn400   1.964   .     S
O397   Zn400   1.920   .     S
O398   Zn399   1.920   .     S
C401   C422    1.403   .     S
C401   O443    1.290   .     A
C402   C404    1.451   .     S
C402   O448    1.299   .     A
C402   O346    1.292   1_655 S
C403   C409    1.385   .     A
C403   C424    1.448   .     S
C403   C407    1.399   .     A
C404   C410    1.388   .     A
C404   C308    1.400   1_655 S
C405   C414    1.404   .     A
C405   H436    1.084   .     S
C405   C407    1.393   .     A
C406   C415    1.403   .     A
C406   C308    1.391   1_655 S
C406   H337    1.084   1_655 S
C408   H434    1.083   .     S
C409   C411    1.392   .     A
C409   H433    1.079   .     S
C410   H432    1.077   .     S
C410   C413    1.393   .     A
C411   C416    1.414   .     A
C411   C414    1.418   .     A
C412   O444    1.290   .     A
C412   C423    1.403   .     S
C412   O342    1.277   1_655 S
C413   C417    1.416   .     A
C413   C415    1.419   .     A
C414   C870    1.389   .     S
C415   C871    1.389   1_554 S
C416   C419    1.418   .     A
C416   C867    1.414   .     S
C417   C418    1.419   .     A
C417   C866    1.414   1_554 S
C418   C420    1.387   .     A
C418   H438    1.078   .     S
C419   C421    1.385   .     A
C419   H426    1.078   .     S
C420   H425    1.084   .     S
C420   C864    1.389   1_554 S
C421   H431    1.084   .     S
C421   C865    1.389   .     S
C422   C73     1.339   1_565 S
C422   H127    1.088   1_565 S
C423   C172    1.339   1_655 S
C424   O447    1.298   .     A
H428   C123    1.088   1_565 S
H429   N439    1.029   .     S
H430   N440    1.029   .     S
H435   C307    1.083   1_655 S
N439   Zn450   2.021   .     S
N439   N440    1.291   .     D
N440   Zn449   2.021   .     S
O441   Zn449   1.952   .     S
O441   C301    1.277   1_655 S
O442   Zn450   1.952   .     S
O443   Zn450   1.979   .     S
O444   Zn449   1.979   .     S
O445   Zn449   1.964   .     S
O445   C324    1.292   1_655 S
O446   Zn450   1.964   .     S
O447   Zn450   1.920   .     S
O448   Zn449   1.920   .     S
C451   C472    1.403   .     S
C451   O493    1.290   .     A
C451   O591    1.277   1_455 S
C452   C454    1.451   .     S
C452   O498    1.299   .     A
C452   O546    1.292   .     S
C453   C459    1.385   .     A
C453   C474    1.448   .     S
C453   C457    1.399   .     A
C454   C460    1.388   .     A
C454   C508    1.400   .     S
C455   C464    1.404   .     A
C455   H486    1.084   .     S
C455   C457    1.393   .     A
C456   C465    1.403   .     A
C456   C508    1.391   .     S
C456   H537    1.084   .     S
C457   H585    1.083   1_455 S
C458   H484    1.083   .     S
C458   C554    1.400   1_455 S
C458   C556    1.391   1_455 S
C459   C461    1.392   .     A
C459   H483    1.079   .     S
C460   H482    1.077   .     S
C460   C463    1.393   .     A
C461   C466    1.414   .     A
C461   C464    1.418   .     A
C462   O494    1.290   .     A
C462   C473    1.403   .     S
C462   O542    1.277   .     S
C463   C467    1.416   .     A
C463   C465    1.419   .     A
C464   C20     1.389   1_556 S
C466   C469    1.418   .     A
C466   C17     1.414   1_556 S
C467   C468    1.419   .     A
C468   C470    1.387   .     A
C468   H488    1.078   .     S
C469   C471    1.385   .     A
C469   H476    1.078   .     S
C470   H475    1.084   .     S
C471   H481    1.084   .     S
C471   C15     1.389   1_556 S
C472   C723    1.339   1_455 S
C472   H627    1.088   .     S
C473   C822    1.339   1_545 S
C473   H778    1.088   1_545 S
C474   O497    1.298   .     A
C474   O595    1.292   1_455 S
H477   C772    1.088   1_545 S
H478   C623    1.088   .     S
H479   N489    1.029   .     S
H480   N490    1.029   .     S
H485   C507    1.083   .     S
H487   C556    1.084   1_455 S
N489   Zn500   2.021   .     S
N489   N490    1.291   .     D
N490   Zn499   2.021   .     S
O491   Zn499   1.952   .     S
O491   C501    1.277   .     S
O492   Zn500   1.952   .     S
O492   C562    1.277   1_455 S
O493   Zn500   1.979   .     S
O494   Zn499   1.979   .     S
O495   Zn499   1.964   .     S
O495   C524    1.292   .     S
O496   Zn500   1.964   .     S
O496   C552    1.292   1_455 S
O497   Zn500   1.920   .     S
O498   Zn499   1.920   .     S
C501   C522    1.403   .     S
C501   O543    1.290   .     A
C502   C504    1.451   .     S
C502   O548    1.299   .     A
C502   O596    1.292   .     S
C503   C509    1.385   .     A
C503   C524    1.448   .     S
C503   C507    1.399   .     A
C504   C510    1.388   .     A
C504   C558    1.400   .     S
C505   C514    1.404   .     A
C505   H536    1.084   .     S
C505   C507    1.393   .     A
C506   C515    1.403   .     A
C506   C558    1.391   .     S
C506   H587    1.084   .     S
C508   H534    1.083   .     S
C509   C511    1.392   .     A
C509   H533    1.079   .     S
C510   H532    1.077   .     S
C510   C513    1.393   .     A
C511   C516    1.414   .     A
C511   C514    1.418   .     A
C512   O544    1.290   .     A
C512   C523    1.403   .     S
C512   O592    1.277   .     S
C513   C517    1.416   .     A
C513   C515    1.419   .     A
C514   C70     1.389   1_556 S
C516   C519    1.418   .     A
C516   C67     1.414   1_556 S
C517   C518    1.419   .     A
C518   C520    1.387   .     A
C518   H538    1.078   .     S
C519   C521    1.385   .     A
C519   H526    1.078   .     S
C520   H525    1.084   .     S
C521   H531    1.084   .     S
C521   C65     1.389   1_556 S
C522   C623    1.339   .     S
C522   H677    1.088   .     S
C523   C872    1.339   1_545 S
C523   H828    1.088   1_545 S
C524   O547    1.298   .     A
H527   C822    1.088   1_545 S
H528   C673    1.088   .     S
H529   N539    1.029   .     S
H530   N540    1.029   .     S
H535   C557    1.083   .     S
N539   Zn550   2.021   .     S
N539   N540    1.291   .     D
N540   Zn549   2.021   .     S
O541   Zn549   1.952   .     S
O541   C551    1.277   .     S
O542   Zn550   1.952   .     S
O543   Zn550   1.979   .     S
O544   Zn549   1.979   .     S
O545   Zn549   1.964   .     S
O545   C574    1.292   .     S
O546   Zn550   1.964   .     S
O547   Zn550   1.920   .     S
O548   Zn549   1.920   .     S
C551   C572    1.403   .     S
C551   O593    1.290   .     A
C552   C554    1.451   .     S
C552   O598    1.299   .     A
C552   O496    1.292   1_655 S
C553   C559    1.385   .     A
C553   C574    1.448   .     S
C553   C557    1.399   .     A
C554   C560    1.388   .     A
C554   C458    1.400   1_655 S
C555   C564    1.404   .     A
C555   H586    1.084   .     S
C555   C557    1.393   .     A
C556   C565    1.403   .     A
C556   C458    1.391   1_655 S
C556   H487    1.084   1_655 S
C558   H584    1.083   .     S
C559   C561    1.392   .     A
C559   H583    1.079   .     S
C560   H582    1.077   .     S
C560   C563    1.393   .     A
C561   C566    1.414   .     A
C561   C564    1.418   .     A
C562   O594    1.290   .     A
C562   C573    1.403   .     S
C562   O492    1.277   1_655 S
C563   C567    1.416   .     A
C563   C565    1.419   .     A
C564   C120    1.389   1_556 S
C566   C569    1.418   .     A
C566   C117    1.414   1_556 S
C567   C568    1.419   .     A
C568   C570    1.387   .     A
C568   H588    1.078   .     S
C569   C571    1.385   .     A
C569   H576    1.078   .     S
C570   H575    1.084   .     S
C571   H581    1.084   .     S
C571   C115    1.389   1_556 S
C572   C673    1.339   .     S
C572   H727    1.088   .     S
C573   C772    1.339   1_645 S
C573   H878    1.088   1_545 S
C574   O597    1.298   .     A
H577   C872    1.088   1_545 S
H578   C723    1.088   .     S
H579   N589    1.029   .     S
H580   N590    1.029   .     S
H585   C457    1.083   1_655 S
N589   Zn600   2.021   .     S
N589   N590    1.291   .     D
N590   Zn599   2.021   .     S
O591   Zn599   1.952   .     S
O591   C451    1.277   1_655 S
O592   Zn600   1.952   .     S
O593   Zn600   1.979   .     S
O594   Zn599   1.979   .     S
O595   Zn599   1.964   .     S
O595   C474    1.292   1_655 S
O596   Zn600   1.964   .     S
O597   Zn600   1.920   .     S
O598   Zn599   1.920   .     S
C601   C622    1.403   .     S
C601   O643    1.290   .     A
C601   O741    1.277   1_455 S
C602   C604    1.451   .     S
C602   O648    1.299   .     A
C602   O696    1.292   .     S
C603   C609    1.385   .     A
C603   C624    1.448   .     S
C603   C607    1.399   .     A
C604   C610    1.388   .     A
C604   C658    1.400   .     S
C605   C614    1.404   .     A
C605   H636    1.084   .     S
C605   C607    1.393   .     A
C606   C615    1.403   .     A
C606   C658    1.391   .     S
C606   H687    1.084   .     S
C607   H735    1.083   1_455 S
C608   H634    1.083   .     S
C608   C704    1.400   1_455 S
C608   C706    1.391   1_455 S
C609   C611    1.392   .     A
C609   H633    1.079   .     S
C610   H632    1.077   .     S
C610   C613    1.393   .     A
C611   C616    1.414   .     A
C611   C614    1.418   .     A
C612   O644    1.290   .     A
C612   C623    1.403   .     S
C612   O692    1.277   .     S
C613   C617    1.416   .     A
C613   C615    1.419   .     A
C614   C170    1.389   1_556 S
C616   C619    1.418   .     A
C616   C167    1.414   1_556 S
C617   C618    1.419   .     A
C618   C620    1.387   .     A
C618   H638    1.078   .     S
C619   C621    1.385   .     A
C619   H626    1.078   .     S
C620   H625    1.084   .     S
C621   H631    1.084   .     S
C621   C165    1.389   1_556 S
C622   C873    1.339   1_455 S
C622   H777    1.088   .     S
C624   O647    1.298   .     A
C624   O745    1.292   1_455 S
H628   C773    1.088   .     S
H629   N639    1.029   .     S
H630   N640    1.029   .     S
H635   C657    1.083   .     S
H637   C706    1.084   1_455 S
N639   Zn650   2.021   .     S
N639   N640    1.291   .     D
N640   Zn649   2.021   .     S
O641   Zn649   1.952   .     S
O641   C651    1.277   .     S
O642   Zn650   1.952   .     S
O642   C712    1.277   1_455 S
O643   Zn650   1.979   .     S
O644   Zn649   1.979   .     S
O645   Zn649   1.964   .     S
O645   C674    1.292   .     S
O646   Zn650   1.964   .     S
O646   C702    1.292   1_455 S
O647   Zn650   1.920   .     S
O648   Zn649   1.920   .     S
C651   C672    1.403   .     S
C651   O693    1.290   .     A
C652   C654    1.451   .     S
C652   O698    1.299   .     A
C652   O746    1.292   .     S
C653   C659    1.385   .     A
C653   C674    1.448   .     S
C653   C657    1.399   .     A
C654   C660    1.388   .     A
C654   C708    1.400   .     S
C655   C664    1.404   .     A
C655   H686    1.084   .     S
C655   C657    1.393   .     A
C656   C665    1.403   .     A
C656   C708    1.391   .     S
C656   H737    1.084   .     S
C658   H684    1.083   .     S
C659   C661    1.392   .     A
C659   H683    1.079   .     S
C660   H682    1.077   .     S
C660   C663    1.393   .     A
C661   C666    1.414   .     A
C661   C664    1.418   .     A
C662   O694    1.290   .     A
C662   C673    1.403   .     S
C662   O742    1.277   .     S
C663   C667    1.416   .     A
C663   C665    1.419   .     A
C664   C220    1.389   1_556 S
C666   C669    1.418   .     A
C666   C217    1.414   1_556 S
C667   C668    1.419   .     A
C668   C670    1.387   .     A
C668   H688    1.078   .     S
C669   C671    1.385   .     A
C669   H676    1.078   .     S
C670   H675    1.084   .     S
C671   H681    1.084   .     S
C671   C215    1.389   1_556 S
C672   C773    1.339   .     S
C672   H827    1.088   .     S
C674   O697    1.298   .     A
H678   C823    1.088   .     S
H679   N689    1.029   .     S
H680   N690    1.029   .     S
H685   C707    1.083   .     S
N689   Zn700   2.021   .     S
N689   N690    1.291   .     D
N690   Zn699   2.021   .     S
O691   Zn699   1.952   .     S
O691   C701    1.277   .     S
O692   Zn700   1.952   .     S
O693   Zn700   1.979   .     S
O694   Zn699   1.979   .     S
O695   Zn699   1.964   .     S
O695   C724    1.292   .     S
O696   Zn700   1.964   .     S
O697   Zn700   1.920   .     S
O698   Zn699   1.920   .     S
C701   C722    1.403   .     S
C701   O743    1.290   .     A
C702   C704    1.451   .     S
C702   O748    1.299   .     A
C702   O646    1.292   1_655 S
C703   C709    1.385   .     A
C703   C724    1.448   .     S
C703   C707    1.399   .     A
C704   C710    1.388   .     A
C704   C608    1.400   1_655 S
C705   C714    1.404   .     A
C705   H736    1.084   .     S
C705   C707    1.393   .     A
C706   C715    1.403   .     A
C706   C608    1.391   1_655 S
C706   H637    1.084   1_655 S
C708   H734    1.083   .     S
C709   C711    1.392   .     A
C709   H733    1.079   .     S
C710   H732    1.077   .     S
C710   C713    1.393   .     A
C711   C716    1.414   .     A
C711   C714    1.418   .     A
C712   O744    1.290   .     A
C712   C723    1.403   .     S
C712   O642    1.277   1_655 S
C713   C717    1.416   .     A
C713   C715    1.419   .     A
C714   C270    1.389   1_556 S
C716   C719    1.418   .     A
C716   C267    1.414   1_556 S
C717   C718    1.419   .     A
C718   C720    1.387   .     A
C718   H738    1.078   .     S
C719   C721    1.385   .     A
C719   H726    1.078   .     S
C720   H725    1.084   .     S
C721   H731    1.084   .     S
C721   C265    1.389   1_556 S
C722   C823    1.339   .     S
C722   H877    1.088   .     S
C723   C472    1.339   1_655 S
C724   O747    1.298   .     A
H728   C873    1.088   .     S
H729   N739    1.029   .     S
H730   N740    1.029   .     S
H735   C607    1.083   1_655 S
N739   Zn750   2.021   .     S
N739   N740    1.291   .     D
N740   Zn749   2.021   .     S
O741   Zn749   1.952   .     S
O741   C601    1.277   1_655 S
O742   Zn750   1.952   .     S
O743   Zn750   1.979   .     S
O744   Zn749   1.979   .     S
O745   Zn749   1.964   .     S
O745   C624    1.292   1_655 S
O746   Zn750   1.964   .     S
O747   Zn750   1.920   .     S
O748   Zn749   1.920   .     S
C751   C772    1.403   .     S
C751   O793    1.290   .     A
C751   O891    1.277   1_455 S
C752   C754    1.451   .     S
C752   O798    1.299   .     A
C752   O846    1.292   .     S
C753   C759    1.385   .     A
C753   C774    1.448   .     S
C753   C757    1.399   .     A
C754   C760    1.388   .     A
C754   C808    1.400   .     S
C755   C764    1.404   .     A
C755   H786    1.084   .     S
C755   C757    1.393   .     A
C756   C765    1.403   .     A
C756   C808    1.391   .     S
C756   H837    1.084   .     S
C757   H885    1.083   1_455 S
C758   H784    1.083   .     S
C758   C854    1.400   1_455 S
C758   C856    1.391   1_455 S
C759   C761    1.392   .     A
C759   H783    1.079   .     S
C760   H782    1.077   .     S
C760   C763    1.393   .     A
C761   C766    1.414   .     A
C761   C764    1.418   .     A
C762   O794    1.290   .     A
C762   C773    1.403   .     S
C762   O842    1.277   .     S
C763   C767    1.416   .     A
C763   C765    1.419   .     A
C764   C320    1.389   1_556 S
C766   C769    1.418   .     A
C766   C317    1.414   1_556 S
C767   C768    1.419   .     A
C768   C770    1.387   .     A
C768   H788    1.078   .     S
C769   C771    1.385   .     A
C769   H776    1.078   .     S
C770   H775    1.084   .     S
C771   H781    1.084   .     S
C771   C315    1.389   1_556 S
C772   C573    1.339   1_465 S
C772   H477    1.088   1_565 S
C774   O797    1.298   .     A
C774   O895    1.292   1_455 S
H778   C473    1.088   1_565 S
H779   N789    1.029   .     S
H780   N790    1.029   .     S
H785   C807    1.083   .     S
H787   C856    1.084   1_455 S
N789   Zn800   2.021   .     S
N789   N790    1.291   .     D
N790   Zn799   2.021   .     S
O791   Zn799   1.952   .     S
O791   C801    1.277   .     S
O792   Zn800   1.952   .     S
O792   C862    1.277   1_455 S
O793   Zn800   1.979   .     S
O794   Zn799   1.979   .     S
O795   Zn799   1.964   .     S
O795   C824    1.292   .     S
O796   Zn800   1.964   .     S
O796   C852    1.292   1_455 S
O797   Zn800   1.920   .     S
O798   Zn799   1.920   .     S
C801   C822    1.403   .     S
C801   O843    1.290   .     A
C802   C804    1.451   .     S
C802   O848    1.299   .     A
C802   O896    1.292   .     S
C803   C809    1.385   .     A
C803   C824    1.448   .     S
C803   C807    1.399   .     A
C804   C810    1.388   .     A
C804   C858    1.400   .     S
C805   C814    1.404   .     A
C805   H836    1.084   .     S
C805   C807    1.393   .     A
C806   C815    1.403   .     A
C806   C858    1.391   .     S
C806   H887    1.084   .     S
C808   H834    1.083   .     S
C809   C811    1.392   .     A
C809   H833    1.079   .     S
C810   H832    1.077   .     S
C810   C813    1.393   .     A
C811   C816    1.414   .     A
C811   C814    1.418   .     A
C812   O844    1.290   .     A
C812   C823    1.403   .     S
C812   O892    1.277   .     S
C813   C817    1.416   .     A
C813   C815    1.419   .     A
C814   C370    1.389   1_556 S
C816   C819    1.418   .     A
C816   C367    1.414   1_556 S
C817   C818    1.419   .     A
C818   C820    1.387   .     A
C818   H838    1.078   .     S
C819   C821    1.385   .     A
C819   H826    1.078   .     S
C820   H825    1.084   .     S
C821   H831    1.084   .     S
C821   C365    1.389   1_556 S
C822   C473    1.339   1_565 S
C822   H527    1.088   1_565 S
C824   O847    1.298   .     A
H828   C523    1.088   1_565 S
H829   N839    1.029   .     S
H830   N840    1.029   .     S
H835   C857    1.083   .     S
N839   Zn850   2.021   .     S
N839   N840    1.291   .     D
N840   Zn849   2.021   .     S
O841   Zn849   1.952   .     S
O841   C851    1.277   .     S
O842   Zn850   1.952   .     S
O843   Zn850   1.979   .     S
O844   Zn849   1.979   .     S
O845   Zn849   1.964   .     S
O845   C874    1.292   .     S
O846   Zn850   1.964   .     S
O847   Zn850   1.920   .     S
O848   Zn849   1.920   .     S
C851   C872    1.403   .     S
C851   O893    1.290   .     A
C852   C854    1.451   .     S
C852   O898    1.299   .     A
C852   O796    1.292   1_655 S
C853   C859    1.385   .     A
C853   C874    1.448   .     S
C853   C857    1.399   .     A
C854   C860    1.388   .     A
C854   C758    1.400   1_655 S
C855   C864    1.404   .     A
C855   H886    1.084   .     S
C855   C857    1.393   .     A
C856   C865    1.403   .     A
C856   C758    1.391   1_655 S
C856   H787    1.084   1_655 S
C858   H884    1.083   .     S
C859   C861    1.392   .     A
C859   H883    1.079   .     S
C860   H882    1.077   .     S
C860   C863    1.393   .     A
C861   C866    1.414   .     A
C861   C864    1.418   .     A
C862   O894    1.290   .     A
C862   C873    1.403   .     S
C862   O792    1.277   1_655 S
C863   C867    1.416   .     A
C863   C865    1.419   .     A
C864   C420    1.389   1_556 S
C866   C869    1.418   .     A
C866   C417    1.414   1_556 S
C867   C868    1.419   .     A
C868   C870    1.387   .     A
C868   H888    1.078   .     S
C869   C871    1.385   .     A
C869   H876    1.078   .     S
C870   H875    1.084   .     S
C871   H881    1.084   .     S
C871   C415    1.389   1_556 S
C872   C523    1.339   1_565 S
C872   H577    1.088   1_565 S
C873   C622    1.339   1_655 S
C874   O897    1.298   .     A
H878   C573    1.088   1_565 S
H879   N889    1.029   .     S
H880   N890    1.029   .     S
H885   C757    1.083   1_655 S
N889   Zn900   2.021   .     S
N889   N890    1.291   .     D
N890   Zn899   2.021   .     S
O891   Zn899   1.952   .     S
O891   C751    1.277   1_655 S
O892   Zn900   1.952   .     S
O893   Zn900   1.979   .     S
O894   Zn899   1.979   .     S
O895   Zn899   1.964   .     S
O895   C774    1.292   1_655 S
O896   Zn900   1.964   .     S
O897   Zn900   1.920   .     S
O898   Zn899   1.920   .     S
