data_str_m3_o10_o17_pcu_sym.188
_audit_creation_date              2020-01-03
_audit_creation_method            'Materials Studio'
_symmetry_space_group_name_H-M    'P1'
_symmetry_Int_Tables_number       1
_symmetry_cell_setting            triclinic
loop_
_symmetry_equiv_pos_as_xyz
  x,y,z
_cell_length_a                    23.3249
_cell_length_b                    25.6800
_cell_length_c                    29.7543
_cell_angle_alpha                 90.9515
_cell_angle_beta                  86.0459
_cell_angle_gamma                 93.6795
loop_
_atom_site_label
_atom_site_type_symbol
_atom_site_fract_x
_atom_site_fract_y
_atom_site_fract_z
_atom_site_U_iso_or_equiv
_atom_site_adp_type
_atom_site_occupancy
C1     C     0.18192   0.26490   0.24891   0.00000  Uiso   1.00
C2     C     0.15141   0.06844   0.25109   0.00000  Uiso   1.00
C3     C     0.19392   0.25956   0.47514   0.00000  Uiso   1.00
C4     C     0.13941   0.07377   0.02486   0.00000  Uiso   1.00
C5     C     0.18995   0.31942   0.24821   0.00000  Uiso   1.00
C6     C     0.14338   0.01392   0.25179   0.00000  Uiso   1.00
C7     C     0.16743   0.16630   0.33631   0.00000  Uiso   1.00
C8     C     0.16590   0.16703   0.16369   0.00000  Uiso   1.00
C9     C     0.15109   0.12185   0.09393   0.00000  Uiso   1.00
C10    C     0.18224   0.21149   0.40607   0.00000  Uiso   1.00
C11    C     0.16434   0.16852   0.11621   0.00000  Uiso   1.00
C12    C     0.16899   0.16481   0.38379   0.00000  Uiso   1.00
C13    C     0.17788   0.21544   0.09348   0.00000  Uiso   1.00
C14    C     0.15546   0.11789   0.40652   0.00000  Uiso   1.00
C15    C     0.17885   0.21510   0.04645   0.00000  Uiso   1.00
C16    C     0.15448   0.11824   0.45355   0.00000  Uiso   1.00
C17    C     0.16601   0.16733   0.02349   0.00000  Uiso   1.00
C18    C     0.16732   0.16601   0.47651   0.00000  Uiso   1.00
C19    C     0.15194   0.12078   0.04750   0.00000  Uiso   1.00
C20    C     0.18139   0.21255   0.45250   0.00000  Uiso   1.00
C21    C     0.19267   0.26091   0.02179   0.00000  Uiso   1.00
C22    C     0.14066   0.07242   0.47821   0.00000  Uiso   1.00
H23    H     0.14095   0.08629   0.11292   0.00000  Uiso   1.00
H24    H     0.19238   0.24704   0.38708   0.00000  Uiso   1.00
H25    H     0.20277   0.29799   0.03811   0.00000  Uiso   1.00
H26    H     0.13056   0.03534   0.46189   0.00000  Uiso   1.00
H27    H     0.20471   0.29533   0.45671   0.00000  Uiso   1.00
H28    H     0.12862   0.03801   0.04329   0.00000  Uiso   1.00
H29    H     0.23392   0.00312   0.24471   0.00000  Uiso   1.00
H30    H     0.09941   0.33021   0.25529   0.00000  Uiso   1.00
H31    H     0.00453   0.12755   0.21607   0.00000  Uiso   1.00
H32    H     0.32881   0.20578   0.28393   0.00000  Uiso   1.00
N33    N     0.31678   0.15265   0.23783   0.00000  Uiso   1.00
N34    N     0.01656   0.18068   0.26217   0.00000  Uiso   1.00
O35    O     0.12975   0.24619   0.25299   0.00000  Uiso   1.00
O36    O     0.20358   0.08714   0.24702   0.00000  Uiso   1.00
O37    O     0.22613   0.23721   0.24519   0.00000  Uiso   1.00
O38    O     0.10720   0.09613   0.25482   0.00000  Uiso   1.00
O39    O     0.11847   0.17117   0.31998   0.00000  Uiso   1.00
O40    O     0.21486   0.16216   0.18003   0.00000  Uiso   1.00
O41    O     0.21485   0.16219   0.31218   0.00000  Uiso   1.00
O42    O     0.11848   0.17115   0.18783   0.00000  Uiso   1.00
Zn43   Zn    0.10231   0.17266   0.25521   0.00000  Uiso   1.00
Zn44   Zn    0.23102   0.16067   0.24479   0.00000  Uiso   1.00
Cl45   Cl    0.19343   0.27367   0.12448   0.00000  Uiso   1.00
Cl46   Cl    0.13990   0.05967   0.37552   0.00000  Uiso   1.00
C47    C     0.51526   0.26490   0.24891   0.00000  Uiso   1.00
C48    C     0.48474   0.06844   0.25109   0.00000  Uiso   1.00
C49    C     0.52725   0.25956   0.47514   0.00000  Uiso   1.00
C50    C     0.47275   0.07377   0.02486   0.00000  Uiso   1.00
C51    C     0.52328   0.31942   0.24821   0.00000  Uiso   1.00
C52    C     0.47672   0.01392   0.25179   0.00000  Uiso   1.00
C53    C     0.50076   0.16630   0.33631   0.00000  Uiso   1.00
C54    C     0.49924   0.16703   0.16369   0.00000  Uiso   1.00
C55    C     0.48442   0.12185   0.09393   0.00000  Uiso   1.00
C56    C     0.51557   0.21149   0.40607   0.00000  Uiso   1.00
C57    C     0.49767   0.16852   0.11621   0.00000  Uiso   1.00
C58    C     0.50233   0.16481   0.38379   0.00000  Uiso   1.00
C59    C     0.51121   0.21544   0.09348   0.00000  Uiso   1.00
C60    C     0.48879   0.11789   0.40652   0.00000  Uiso   1.00
C61    C     0.51219   0.21510   0.04645   0.00000  Uiso   1.00
C62    C     0.48781   0.11824   0.45355   0.00000  Uiso   1.00
C63    C     0.49934   0.16733   0.02349   0.00000  Uiso   1.00
C64    C     0.50066   0.16601   0.47651   0.00000  Uiso   1.00
C65    C     0.48528   0.12078   0.04750   0.00000  Uiso   1.00
C66    C     0.51472   0.21255   0.45250   0.00000  Uiso   1.00
C67    C     0.52601   0.26091   0.02179   0.00000  Uiso   1.00
C68    C     0.47399   0.07242   0.47821   0.00000  Uiso   1.00
H69    H     0.47429   0.08629   0.11292   0.00000  Uiso   1.00
H70    H     0.52571   0.24704   0.38708   0.00000  Uiso   1.00
H71    H     0.53611   0.29799   0.03811   0.00000  Uiso   1.00
H72    H     0.46389   0.03534   0.46189   0.00000  Uiso   1.00
H73    H     0.53804   0.29533   0.45671   0.00000  Uiso   1.00
H74    H     0.46196   0.03801   0.04329   0.00000  Uiso   1.00
H75    H     0.56725   0.00312   0.24471   0.00000  Uiso   1.00
H76    H     0.43275   0.33021   0.25529   0.00000  Uiso   1.00
H77    H     0.33786   0.12755   0.21607   0.00000  Uiso   1.00
H78    H     0.66214   0.20578   0.28393   0.00000  Uiso   1.00
N79    N     0.65011   0.15265   0.23783   0.00000  Uiso   1.00
N80    N     0.34989   0.18068   0.26217   0.00000  Uiso   1.00
O81    O     0.46308   0.24619   0.25299   0.00000  Uiso   1.00
O82    O     0.53692   0.08714   0.24702   0.00000  Uiso   1.00
O83    O     0.55946   0.23721   0.24519   0.00000  Uiso   1.00
O84    O     0.44054   0.09613   0.25482   0.00000  Uiso   1.00
O85    O     0.45181   0.17117   0.31998   0.00000  Uiso   1.00
O86    O     0.54819   0.16216   0.18003   0.00000  Uiso   1.00
O87    O     0.54819   0.16219   0.31218   0.00000  Uiso   1.00
O88    O     0.45181   0.17115   0.18783   0.00000  Uiso   1.00
Zn89   Zn    0.43565   0.17266   0.25521   0.00000  Uiso   1.00
Zn90   Zn    0.56435   0.16067   0.24479   0.00000  Uiso   1.00
Cl91   Cl    0.52677   0.27367   0.12448   0.00000  Uiso   1.00
Cl92   Cl    0.47323   0.05967   0.37552   0.00000  Uiso   1.00
C93    C     0.84859   0.26490   0.24891   0.00000  Uiso   1.00
C94    C     0.81807   0.06844   0.25109   0.00000  Uiso   1.00
C95    C     0.86059   0.25956   0.47514   0.00000  Uiso   1.00
C96    C     0.80608   0.07377   0.02486   0.00000  Uiso   1.00
C97    C     0.85662   0.31942   0.24821   0.00000  Uiso   1.00
C98    C     0.81005   0.01392   0.25179   0.00000  Uiso   1.00
C99    C     0.83410   0.16630   0.33631   0.00000  Uiso   1.00
C100   C     0.83257   0.16703   0.16369   0.00000  Uiso   1.00
C101   C     0.81776   0.12185   0.09393   0.00000  Uiso   1.00
C102   C     0.84891   0.21149   0.40607   0.00000  Uiso   1.00
C103   C     0.83101   0.16852   0.11621   0.00000  Uiso   1.00
C104   C     0.83566   0.16481   0.38379   0.00000  Uiso   1.00
C105   C     0.84454   0.21544   0.09348   0.00000  Uiso   1.00
C106   C     0.82212   0.11789   0.40652   0.00000  Uiso   1.00
C107   C     0.84552   0.21510   0.04645   0.00000  Uiso   1.00
C108   C     0.82115   0.11824   0.45355   0.00000  Uiso   1.00
C109   C     0.83268   0.16733   0.02349   0.00000  Uiso   1.00
C110   C     0.83399   0.16601   0.47651   0.00000  Uiso   1.00
C111   C     0.81861   0.12078   0.04750   0.00000  Uiso   1.00
C112   C     0.84806   0.21255   0.45250   0.00000  Uiso   1.00
C113   C     0.85934   0.26091   0.02179   0.00000  Uiso   1.00
C114   C     0.80732   0.07242   0.47821   0.00000  Uiso   1.00
H115   H     0.80762   0.08629   0.11292   0.00000  Uiso   1.00
H116   H     0.85905   0.24704   0.38708   0.00000  Uiso   1.00
H117   H     0.86944   0.29799   0.03811   0.00000  Uiso   1.00
H118   H     0.79723   0.03534   0.46189   0.00000  Uiso   1.00
H119   H     0.87138   0.29533   0.45671   0.00000  Uiso   1.00
H120   H     0.79529   0.03801   0.04329   0.00000  Uiso   1.00
H121   H     0.90059   0.00312   0.24471   0.00000  Uiso   1.00
H122   H     0.76608   0.33021   0.25529   0.00000  Uiso   1.00
H123   H     0.67119   0.12755   0.21607   0.00000  Uiso   1.00
H124   H     0.99547   0.20578   0.28393   0.00000  Uiso   1.00
N125   N     0.98344   0.15265   0.23783   0.00000  Uiso   1.00
N126   N     0.68322   0.18068   0.26217   0.00000  Uiso   1.00
O127   O     0.79642   0.24619   0.25299   0.00000  Uiso   1.00
O128   O     0.87025   0.08714   0.24702   0.00000  Uiso   1.00
O129   O     0.89280   0.23721   0.24519   0.00000  Uiso   1.00
O130   O     0.77387   0.09613   0.25482   0.00000  Uiso   1.00
O131   O     0.78514   0.17117   0.31998   0.00000  Uiso   1.00
O132   O     0.88153   0.16216   0.18003   0.00000  Uiso   1.00
O133   O     0.88152   0.16219   0.31218   0.00000  Uiso   1.00
O134   O     0.78515   0.17115   0.18783   0.00000  Uiso   1.00
Zn135  Zn    0.76898   0.17266   0.25521   0.00000  Uiso   1.00
Zn136  Zn    0.89769   0.16067   0.24479   0.00000  Uiso   1.00
Cl137  Cl    0.86010   0.27367   0.12448   0.00000  Uiso   1.00
Cl138  Cl    0.80657   0.05967   0.37552   0.00000  Uiso   1.00
C139   C     0.18192   0.59823   0.24891   0.00000  Uiso   1.00
C140   C     0.15141   0.40177   0.25109   0.00000  Uiso   1.00
C141   C     0.19392   0.59289   0.47514   0.00000  Uiso   1.00
C142   C     0.13941   0.40711   0.02486   0.00000  Uiso   1.00
C143   C     0.18995   0.65275   0.24821   0.00000  Uiso   1.00
C144   C     0.14338   0.34725   0.25179   0.00000  Uiso   1.00
C145   C     0.16743   0.49964   0.33631   0.00000  Uiso   1.00
C146   C     0.16590   0.50036   0.16369   0.00000  Uiso   1.00
C147   C     0.15109   0.45518   0.09393   0.00000  Uiso   1.00
C148   C     0.18224   0.54482   0.40607   0.00000  Uiso   1.00
C149   C     0.16434   0.50185   0.11621   0.00000  Uiso   1.00
C150   C     0.16899   0.49815   0.38379   0.00000  Uiso   1.00
C151   C     0.17788   0.54878   0.09348   0.00000  Uiso   1.00
C152   C     0.15546   0.45122   0.40652   0.00000  Uiso   1.00
C153   C     0.17885   0.54843   0.04645   0.00000  Uiso   1.00
C154   C     0.15448   0.45157   0.45355   0.00000  Uiso   1.00
C155   C     0.16601   0.50066   0.02349   0.00000  Uiso   1.00
C156   C     0.16732   0.49934   0.47651   0.00000  Uiso   1.00
C157   C     0.15194   0.45411   0.04750   0.00000  Uiso   1.00
C158   C     0.18139   0.54589   0.45250   0.00000  Uiso   1.00
C159   C     0.19267   0.59424   0.02179   0.00000  Uiso   1.00
C160   C     0.14066   0.40576   0.47821   0.00000  Uiso   1.00
H161   H     0.14095   0.41963   0.11292   0.00000  Uiso   1.00
H162   H     0.19238   0.58037   0.38708   0.00000  Uiso   1.00
H163   H     0.20277   0.63133   0.03811   0.00000  Uiso   1.00
H164   H     0.13056   0.36867   0.46189   0.00000  Uiso   1.00
H165   H     0.20471   0.62866   0.45671   0.00000  Uiso   1.00
H166   H     0.12862   0.37134   0.04329   0.00000  Uiso   1.00
H167   H     0.23392   0.33646   0.24471   0.00000  Uiso   1.00
H168   H     0.09941   0.66354   0.25529   0.00000  Uiso   1.00
H169   H     0.00453   0.46088   0.21607   0.00000  Uiso   1.00
H170   H     0.32881   0.53912   0.28393   0.00000  Uiso   1.00
N171   N     0.31678   0.48598   0.23783   0.00000  Uiso   1.00
N172   N     0.01656   0.51402   0.26217   0.00000  Uiso   1.00
O173   O     0.12975   0.57952   0.25299   0.00000  Uiso   1.00
O174   O     0.20358   0.42048   0.24702   0.00000  Uiso   1.00
O175   O     0.22613   0.57054   0.24519   0.00000  Uiso   1.00
O176   O     0.10720   0.42946   0.25482   0.00000  Uiso   1.00
O177   O     0.11847   0.50450   0.31998   0.00000  Uiso   1.00
O178   O     0.21486   0.49550   0.18003   0.00000  Uiso   1.00
O179   O     0.21485   0.49552   0.31218   0.00000  Uiso   1.00
O180   O     0.11848   0.50448   0.18783   0.00000  Uiso   1.00
Zn181  Zn    0.10231   0.50600   0.25521   0.00000  Uiso   1.00
Zn182  Zn    0.23102   0.49400   0.24479   0.00000  Uiso   1.00
Cl183  Cl    0.19343   0.60700   0.12448   0.00000  Uiso   1.00
Cl184  Cl    0.13990   0.39300   0.37552   0.00000  Uiso   1.00
C185   C     0.51526   0.59823   0.24891   0.00000  Uiso   1.00
C186   C     0.48474   0.40177   0.25109   0.00000  Uiso   1.00
C187   C     0.52725   0.59289   0.47514   0.00000  Uiso   1.00
C188   C     0.47275   0.40711   0.02486   0.00000  Uiso   1.00
C189   C     0.52328   0.65275   0.24821   0.00000  Uiso   1.00
C190   C     0.47672   0.34725   0.25179   0.00000  Uiso   1.00
C191   C     0.50076   0.49964   0.33631   0.00000  Uiso   1.00
C192   C     0.49924   0.50036   0.16369   0.00000  Uiso   1.00
C193   C     0.48442   0.45518   0.09393   0.00000  Uiso   1.00
C194   C     0.51557   0.54482   0.40607   0.00000  Uiso   1.00
C195   C     0.49767   0.50185   0.11621   0.00000  Uiso   1.00
C196   C     0.50233   0.49815   0.38379   0.00000  Uiso   1.00
C197   C     0.51121   0.54878   0.09348   0.00000  Uiso   1.00
C198   C     0.48879   0.45122   0.40652   0.00000  Uiso   1.00
C199   C     0.51219   0.54843   0.04645   0.00000  Uiso   1.00
C200   C     0.48781   0.45157   0.45355   0.00000  Uiso   1.00
C201   C     0.49934   0.50066   0.02349   0.00000  Uiso   1.00
C202   C     0.50066   0.49934   0.47651   0.00000  Uiso   1.00
C203   C     0.48528   0.45411   0.04750   0.00000  Uiso   1.00
C204   C     0.51472   0.54589   0.45250   0.00000  Uiso   1.00
C205   C     0.52601   0.59424   0.02179   0.00000  Uiso   1.00
C206   C     0.47399   0.40576   0.47821   0.00000  Uiso   1.00
H207   H     0.47429   0.41963   0.11292   0.00000  Uiso   1.00
H208   H     0.52571   0.58037   0.38708   0.00000  Uiso   1.00
H209   H     0.53611   0.63133   0.03811   0.00000  Uiso   1.00
H210   H     0.46389   0.36867   0.46189   0.00000  Uiso   1.00
H211   H     0.53804   0.62866   0.45671   0.00000  Uiso   1.00
H212   H     0.46196   0.37134   0.04329   0.00000  Uiso   1.00
H213   H     0.56725   0.33646   0.24471   0.00000  Uiso   1.00
H214   H     0.43275   0.66354   0.25529   0.00000  Uiso   1.00
H215   H     0.33786   0.46088   0.21607   0.00000  Uiso   1.00
H216   H     0.66214   0.53912   0.28393   0.00000  Uiso   1.00
N217   N     0.65011   0.48598   0.23783   0.00000  Uiso   1.00
N218   N     0.34989   0.51402   0.26217   0.00000  Uiso   1.00
O219   O     0.46308   0.57952   0.25299   0.00000  Uiso   1.00
O220   O     0.53692   0.42048   0.24702   0.00000  Uiso   1.00
O221   O     0.55946   0.57054   0.24519   0.00000  Uiso   1.00
O222   O     0.44054   0.42946   0.25482   0.00000  Uiso   1.00
O223   O     0.45181   0.50450   0.31998   0.00000  Uiso   1.00
O224   O     0.54819   0.49550   0.18003   0.00000  Uiso   1.00
O225   O     0.54819   0.49552   0.31218   0.00000  Uiso   1.00
O226   O     0.45181   0.50448   0.18783   0.00000  Uiso   1.00
Zn227  Zn    0.43565   0.50600   0.25521   0.00000  Uiso   1.00
Zn228  Zn    0.56435   0.49400   0.24479   0.00000  Uiso   1.00
Cl229  Cl    0.52677   0.60700   0.12448   0.00000  Uiso   1.00
Cl230  Cl    0.47323   0.39300   0.37552   0.00000  Uiso   1.00
C231   C     0.84859   0.59823   0.24891   0.00000  Uiso   1.00
C232   C     0.81807   0.40177   0.25109   0.00000  Uiso   1.00
C233   C     0.86059   0.59289   0.47514   0.00000  Uiso   1.00
C234   C     0.80608   0.40711   0.02486   0.00000  Uiso   1.00
C235   C     0.85662   0.65275   0.24821   0.00000  Uiso   1.00
C236   C     0.81005   0.34725   0.25179   0.00000  Uiso   1.00
C237   C     0.83410   0.49964   0.33631   0.00000  Uiso   1.00
C238   C     0.83257   0.50036   0.16369   0.00000  Uiso   1.00
C239   C     0.81776   0.45518   0.09393   0.00000  Uiso   1.00
C240   C     0.84891   0.54482   0.40607   0.00000  Uiso   1.00
C241   C     0.83101   0.50185   0.11621   0.00000  Uiso   1.00
C242   C     0.83566   0.49815   0.38379   0.00000  Uiso   1.00
C243   C     0.84454   0.54878   0.09348   0.00000  Uiso   1.00
C244   C     0.82212   0.45122   0.40652   0.00000  Uiso   1.00
C245   C     0.84552   0.54843   0.04645   0.00000  Uiso   1.00
C246   C     0.82115   0.45157   0.45355   0.00000  Uiso   1.00
C247   C     0.83268   0.50066   0.02349   0.00000  Uiso   1.00
C248   C     0.83399   0.49934   0.47651   0.00000  Uiso   1.00
C249   C     0.81861   0.45411   0.04750   0.00000  Uiso   1.00
C250   C     0.84806   0.54589   0.45250   0.00000  Uiso   1.00
C251   C     0.85934   0.59424   0.02179   0.00000  Uiso   1.00
C252   C     0.80732   0.40576   0.47821   0.00000  Uiso   1.00
H253   H     0.80762   0.41963   0.11292   0.00000  Uiso   1.00
H254   H     0.85905   0.58037   0.38708   0.00000  Uiso   1.00
H255   H     0.86944   0.63133   0.03811   0.00000  Uiso   1.00
H256   H     0.79723   0.36867   0.46189   0.00000  Uiso   1.00
H257   H     0.87138   0.62866   0.45671   0.00000  Uiso   1.00
H258   H     0.79529   0.37134   0.04329   0.00000  Uiso   1.00
H259   H     0.90059   0.33646   0.24471   0.00000  Uiso   1.00
H260   H     0.76608   0.66354   0.25529   0.00000  Uiso   1.00
H261   H     0.67119   0.46088   0.21607   0.00000  Uiso   1.00
H262   H     0.99547   0.53912   0.28393   0.00000  Uiso   1.00
N263   N     0.98344   0.48598   0.23783   0.00000  Uiso   1.00
N264   N     0.68322   0.51402   0.26217   0.00000  Uiso   1.00
O265   O     0.79642   0.57952   0.25299   0.00000  Uiso   1.00
O266   O     0.87025   0.42048   0.24702   0.00000  Uiso   1.00
O267   O     0.89280   0.57054   0.24519   0.00000  Uiso   1.00
O268   O     0.77387   0.42946   0.25482   0.00000  Uiso   1.00
O269   O     0.78514   0.50450   0.31998   0.00000  Uiso   1.00
O270   O     0.88153   0.49550   0.18003   0.00000  Uiso   1.00
O271   O     0.88152   0.49552   0.31218   0.00000  Uiso   1.00
O272   O     0.78515   0.50448   0.18783   0.00000  Uiso   1.00
Zn273  Zn    0.76898   0.50600   0.25521   0.00000  Uiso   1.00
Zn274  Zn    0.89769   0.49400   0.24479   0.00000  Uiso   1.00
Cl275  Cl    0.86010   0.60700   0.12448   0.00000  Uiso   1.00
Cl276  Cl    0.80657   0.39300   0.37552   0.00000  Uiso   1.00
C277   C     0.18192   0.93156   0.24891   0.00000  Uiso   1.00
C278   C     0.15141   0.73510   0.25109   0.00000  Uiso   1.00
C279   C     0.19392   0.92623   0.47514   0.00000  Uiso   1.00
C280   C     0.13941   0.74044   0.02486   0.00000  Uiso   1.00
C281   C     0.18995   0.98608   0.24821   0.00000  Uiso   1.00
C282   C     0.14338   0.68058   0.25179   0.00000  Uiso   1.00
C283   C     0.16743   0.83297   0.33631   0.00000  Uiso   1.00
C284   C     0.16590   0.83370   0.16369   0.00000  Uiso   1.00
C285   C     0.15109   0.78851   0.09393   0.00000  Uiso   1.00
C286   C     0.18224   0.87815   0.40607   0.00000  Uiso   1.00
C287   C     0.16434   0.83519   0.11621   0.00000  Uiso   1.00
C288   C     0.16899   0.83148   0.38379   0.00000  Uiso   1.00
C289   C     0.17788   0.88211   0.09348   0.00000  Uiso   1.00
C290   C     0.15546   0.78455   0.40652   0.00000  Uiso   1.00
C291   C     0.17885   0.88176   0.04645   0.00000  Uiso   1.00
C292   C     0.15448   0.78490   0.45355   0.00000  Uiso   1.00
C293   C     0.16601   0.83399   0.02349   0.00000  Uiso   1.00
C294   C     0.16732   0.83267   0.47651   0.00000  Uiso   1.00
C295   C     0.15194   0.78745   0.04750   0.00000  Uiso   1.00
C296   C     0.18139   0.87922   0.45250   0.00000  Uiso   1.00
C297   C     0.19267   0.92758   0.02179   0.00000  Uiso   1.00
C298   C     0.14066   0.73909   0.47821   0.00000  Uiso   1.00
H299   H     0.14095   0.75296   0.11292   0.00000  Uiso   1.00
H300   H     0.19238   0.91371   0.38708   0.00000  Uiso   1.00
H301   H     0.20277   0.96466   0.03811   0.00000  Uiso   1.00
H302   H     0.13056   0.70201   0.46189   0.00000  Uiso   1.00
H303   H     0.20471   0.96199   0.45671   0.00000  Uiso   1.00
H304   H     0.12862   0.70467   0.04329   0.00000  Uiso   1.00
H305   H     0.23392   0.66979   0.24471   0.00000  Uiso   1.00
H306   H     0.09941   0.99688   0.25529   0.00000  Uiso   1.00
H307   H     0.00453   0.79422   0.21607   0.00000  Uiso   1.00
H308   H     0.32881   0.87245   0.28393   0.00000  Uiso   1.00
N309   N     0.31678   0.81932   0.23783   0.00000  Uiso   1.00
N310   N     0.01656   0.84735   0.26217   0.00000  Uiso   1.00
O311   O     0.12975   0.91286   0.25299   0.00000  Uiso   1.00
O312   O     0.20358   0.75381   0.24702   0.00000  Uiso   1.00
O313   O     0.22613   0.90387   0.24519   0.00000  Uiso   1.00
O314   O     0.10720   0.76279   0.25482   0.00000  Uiso   1.00
O315   O     0.11847   0.83784   0.31998   0.00000  Uiso   1.00
O316   O     0.21486   0.82883   0.18003   0.00000  Uiso   1.00
O317   O     0.21485   0.82885   0.31218   0.00000  Uiso   1.00
O318   O     0.11848   0.83781   0.18783   0.00000  Uiso   1.00
Zn319  Zn    0.10231   0.83933   0.25521   0.00000  Uiso   1.00
Zn320  Zn    0.23102   0.82734   0.24479   0.00000  Uiso   1.00
Cl321  Cl    0.19343   0.94033   0.12448   0.00000  Uiso   1.00
Cl322  Cl    0.13990   0.72633   0.37552   0.00000  Uiso   1.00
C323   C     0.51526   0.93156   0.24891   0.00000  Uiso   1.00
C324   C     0.48474   0.73510   0.25109   0.00000  Uiso   1.00
C325   C     0.52725   0.92623   0.47514   0.00000  Uiso   1.00
C326   C     0.47275   0.74044   0.02486   0.00000  Uiso   1.00
C327   C     0.52328   0.98608   0.24821   0.00000  Uiso   1.00
C328   C     0.47672   0.68058   0.25179   0.00000  Uiso   1.00
C329   C     0.50076   0.83297   0.33631   0.00000  Uiso   1.00
C330   C     0.49924   0.83370   0.16369   0.00000  Uiso   1.00
C331   C     0.48442   0.78851   0.09393   0.00000  Uiso   1.00
C332   C     0.51557   0.87815   0.40607   0.00000  Uiso   1.00
C333   C     0.49767   0.83519   0.11621   0.00000  Uiso   1.00
C334   C     0.50233   0.83148   0.38379   0.00000  Uiso   1.00
C335   C     0.51121   0.88211   0.09348   0.00000  Uiso   1.00
C336   C     0.48879   0.78455   0.40652   0.00000  Uiso   1.00
C337   C     0.51219   0.88176   0.04645   0.00000  Uiso   1.00
C338   C     0.48781   0.78490   0.45355   0.00000  Uiso   1.00
C339   C     0.49934   0.83399   0.02349   0.00000  Uiso   1.00
C340   C     0.50066   0.83267   0.47651   0.00000  Uiso   1.00
C341   C     0.48528   0.78745   0.04750   0.00000  Uiso   1.00
C342   C     0.51472   0.87922   0.45250   0.00000  Uiso   1.00
C343   C     0.52601   0.92758   0.02179   0.00000  Uiso   1.00
C344   C     0.47399   0.73909   0.47821   0.00000  Uiso   1.00
H345   H     0.47429   0.75296   0.11292   0.00000  Uiso   1.00
H346   H     0.52571   0.91371   0.38708   0.00000  Uiso   1.00
H347   H     0.53611   0.96466   0.03811   0.00000  Uiso   1.00
H348   H     0.46389   0.70201   0.46189   0.00000  Uiso   1.00
H349   H     0.53804   0.96199   0.45671   0.00000  Uiso   1.00
H350   H     0.46196   0.70467   0.04329   0.00000  Uiso   1.00
H351   H     0.56725   0.66979   0.24471   0.00000  Uiso   1.00
H352   H     0.43275   0.99688   0.25529   0.00000  Uiso   1.00
H353   H     0.33786   0.79422   0.21607   0.00000  Uiso   1.00
H354   H     0.66214   0.87245   0.28393   0.00000  Uiso   1.00
N355   N     0.65011   0.81932   0.23783   0.00000  Uiso   1.00
N356   N     0.34989   0.84735   0.26217   0.00000  Uiso   1.00
O357   O     0.46308   0.91286   0.25299   0.00000  Uiso   1.00
O358   O     0.53692   0.75381   0.24702   0.00000  Uiso   1.00
O359   O     0.55946   0.90387   0.24519   0.00000  Uiso   1.00
O360   O     0.44054   0.76279   0.25482   0.00000  Uiso   1.00
O361   O     0.45181   0.83784   0.31998   0.00000  Uiso   1.00
O362   O     0.54819   0.82883   0.18003   0.00000  Uiso   1.00
O363   O     0.54819   0.82885   0.31218   0.00000  Uiso   1.00
O364   O     0.45181   0.83781   0.18783   0.00000  Uiso   1.00
Zn365  Zn    0.43565   0.83933   0.25521   0.00000  Uiso   1.00
Zn366  Zn    0.56435   0.82734   0.24479   0.00000  Uiso   1.00
Cl367  Cl    0.52677   0.94033   0.12448   0.00000  Uiso   1.00
Cl368  Cl    0.47323   0.72633   0.37552   0.00000  Uiso   1.00
C369   C     0.84859   0.93156   0.24891   0.00000  Uiso   1.00
C370   C     0.81807   0.73510   0.25109   0.00000  Uiso   1.00
C371   C     0.86059   0.92623   0.47514   0.00000  Uiso   1.00
C372   C     0.80608   0.74044   0.02486   0.00000  Uiso   1.00
C373   C     0.85662   0.98608   0.24821   0.00000  Uiso   1.00
C374   C     0.81005   0.68058   0.25179   0.00000  Uiso   1.00
C375   C     0.83410   0.83297   0.33631   0.00000  Uiso   1.00
C376   C     0.83257   0.83370   0.16369   0.00000  Uiso   1.00
C377   C     0.81776   0.78851   0.09393   0.00000  Uiso   1.00
C378   C     0.84891   0.87815   0.40607   0.00000  Uiso   1.00
C379   C     0.83101   0.83519   0.11621   0.00000  Uiso   1.00
C380   C     0.83566   0.83148   0.38379   0.00000  Uiso   1.00
C381   C     0.84454   0.88211   0.09348   0.00000  Uiso   1.00
C382   C     0.82212   0.78455   0.40652   0.00000  Uiso   1.00
C383   C     0.84552   0.88176   0.04645   0.00000  Uiso   1.00
C384   C     0.82115   0.78490   0.45355   0.00000  Uiso   1.00
C385   C     0.83268   0.83399   0.02349   0.00000  Uiso   1.00
C386   C     0.83399   0.83267   0.47651   0.00000  Uiso   1.00
C387   C     0.81861   0.78745   0.04750   0.00000  Uiso   1.00
C388   C     0.84806   0.87922   0.45250   0.00000  Uiso   1.00
C389   C     0.85934   0.92758   0.02179   0.00000  Uiso   1.00
C390   C     0.80732   0.73909   0.47821   0.00000  Uiso   1.00
H391   H     0.80762   0.75296   0.11292   0.00000  Uiso   1.00
H392   H     0.85905   0.91371   0.38708   0.00000  Uiso   1.00
H393   H     0.86944   0.96466   0.03811   0.00000  Uiso   1.00
H394   H     0.79723   0.70201   0.46189   0.00000  Uiso   1.00
H395   H     0.87138   0.96199   0.45671   0.00000  Uiso   1.00
H396   H     0.79529   0.70467   0.04329   0.00000  Uiso   1.00
H397   H     0.90059   0.66979   0.24471   0.00000  Uiso   1.00
H398   H     0.76608   0.99688   0.25529   0.00000  Uiso   1.00
H399   H     0.67119   0.79422   0.21607   0.00000  Uiso   1.00
H400   H     0.99547   0.87245   0.28393   0.00000  Uiso   1.00
N401   N     0.98344   0.81932   0.23783   0.00000  Uiso   1.00
N402   N     0.68322   0.84735   0.26217   0.00000  Uiso   1.00
O403   O     0.79642   0.91286   0.25299   0.00000  Uiso   1.00
O404   O     0.87025   0.75381   0.24702   0.00000  Uiso   1.00
O405   O     0.89280   0.90387   0.24519   0.00000  Uiso   1.00
O406   O     0.77387   0.76279   0.25482   0.00000  Uiso   1.00
O407   O     0.78514   0.83784   0.31998   0.00000  Uiso   1.00
O408   O     0.88153   0.82883   0.18003   0.00000  Uiso   1.00
O409   O     0.88152   0.82885   0.31218   0.00000  Uiso   1.00
O410   O     0.78515   0.83781   0.18783   0.00000  Uiso   1.00
Zn411  Zn    0.76898   0.83933   0.25521   0.00000  Uiso   1.00
Zn412  Zn    0.89769   0.82734   0.24479   0.00000  Uiso   1.00
Cl413  Cl    0.86010   0.94033   0.12448   0.00000  Uiso   1.00
Cl414  Cl    0.80657   0.72633   0.37552   0.00000  Uiso   1.00
C415   C     0.18192   0.26490   0.74891   0.00000  Uiso   1.00
C416   C     0.15141   0.06844   0.75109   0.00000  Uiso   1.00
C417   C     0.19392   0.25956   0.97514   0.00000  Uiso   1.00
C418   C     0.13941   0.07377   0.52486   0.00000  Uiso   1.00
C419   C     0.18995   0.31942   0.74821   0.00000  Uiso   1.00
C420   C     0.14338   0.01392   0.75179   0.00000  Uiso   1.00
C421   C     0.16743   0.16630   0.83631   0.00000  Uiso   1.00
C422   C     0.16590   0.16703   0.66369   0.00000  Uiso   1.00
C423   C     0.15109   0.12185   0.59393   0.00000  Uiso   1.00
C424   C     0.18224   0.21149   0.90607   0.00000  Uiso   1.00
C425   C     0.16434   0.16852   0.61621   0.00000  Uiso   1.00
C426   C     0.16899   0.16481   0.88379   0.00000  Uiso   1.00
C427   C     0.17788   0.21544   0.59348   0.00000  Uiso   1.00
C428   C     0.15546   0.11789   0.90652   0.00000  Uiso   1.00
C429   C     0.17885   0.21510   0.54645   0.00000  Uiso   1.00
C430   C     0.15448   0.11824   0.95355   0.00000  Uiso   1.00
C431   C     0.16601   0.16733   0.52349   0.00000  Uiso   1.00
C432   C     0.16732   0.16601   0.97651   0.00000  Uiso   1.00
C433   C     0.15194   0.12078   0.54750   0.00000  Uiso   1.00
C434   C     0.18139   0.21255   0.95250   0.00000  Uiso   1.00
C435   C     0.19267   0.26091   0.52179   0.00000  Uiso   1.00
C436   C     0.14066   0.07242   0.97821   0.00000  Uiso   1.00
H437   H     0.14095   0.08629   0.61292   0.00000  Uiso   1.00
H438   H     0.19238   0.24704   0.88708   0.00000  Uiso   1.00
H439   H     0.20277   0.29799   0.53811   0.00000  Uiso   1.00
H440   H     0.13056   0.03534   0.96189   0.00000  Uiso   1.00
H441   H     0.20471   0.29533   0.95671   0.00000  Uiso   1.00
H442   H     0.12862   0.03801   0.54329   0.00000  Uiso   1.00
H443   H     0.23392   0.00312   0.74471   0.00000  Uiso   1.00
H444   H     0.09941   0.33021   0.75529   0.00000  Uiso   1.00
H445   H     0.00453   0.12755   0.71607   0.00000  Uiso   1.00
H446   H     0.32881   0.20578   0.78393   0.00000  Uiso   1.00
N447   N     0.31678   0.15265   0.73783   0.00000  Uiso   1.00
N448   N     0.01656   0.18068   0.76217   0.00000  Uiso   1.00
O449   O     0.12975   0.24619   0.75299   0.00000  Uiso   1.00
O450   O     0.20358   0.08714   0.74702   0.00000  Uiso   1.00
O451   O     0.22613   0.23721   0.74519   0.00000  Uiso   1.00
O452   O     0.10720   0.09613   0.75482   0.00000  Uiso   1.00
O453   O     0.11847   0.17117   0.81998   0.00000  Uiso   1.00
O454   O     0.21486   0.16216   0.68003   0.00000  Uiso   1.00
O455   O     0.21485   0.16219   0.81218   0.00000  Uiso   1.00
O456   O     0.11848   0.17115   0.68783   0.00000  Uiso   1.00
Zn457  Zn    0.10231   0.17266   0.75521   0.00000  Uiso   1.00
Zn458  Zn    0.23102   0.16067   0.74479   0.00000  Uiso   1.00
Cl459  Cl    0.19343   0.27367   0.62448   0.00000  Uiso   1.00
Cl460  Cl    0.13990   0.05967   0.87552   0.00000  Uiso   1.00
C461   C     0.51526   0.26490   0.74891   0.00000  Uiso   1.00
C462   C     0.48474   0.06844   0.75109   0.00000  Uiso   1.00
C463   C     0.52725   0.25956   0.97514   0.00000  Uiso   1.00
C464   C     0.47275   0.07377   0.52486   0.00000  Uiso   1.00
C465   C     0.52328   0.31942   0.74821   0.00000  Uiso   1.00
C466   C     0.47672   0.01392   0.75179   0.00000  Uiso   1.00
C467   C     0.50076   0.16630   0.83631   0.00000  Uiso   1.00
C468   C     0.49924   0.16703   0.66369   0.00000  Uiso   1.00
C469   C     0.48442   0.12185   0.59393   0.00000  Uiso   1.00
C470   C     0.51557   0.21149   0.90607   0.00000  Uiso   1.00
C471   C     0.49767   0.16852   0.61621   0.00000  Uiso   1.00
C472   C     0.50233   0.16481   0.88379   0.00000  Uiso   1.00
C473   C     0.51121   0.21544   0.59348   0.00000  Uiso   1.00
C474   C     0.48879   0.11789   0.90652   0.00000  Uiso   1.00
C475   C     0.51219   0.21510   0.54645   0.00000  Uiso   1.00
C476   C     0.48781   0.11824   0.95355   0.00000  Uiso   1.00
C477   C     0.49934   0.16733   0.52349   0.00000  Uiso   1.00
C478   C     0.50066   0.16601   0.97651   0.00000  Uiso   1.00
C479   C     0.48528   0.12078   0.54750   0.00000  Uiso   1.00
C480   C     0.51472   0.21255   0.95250   0.00000  Uiso   1.00
C481   C     0.52601   0.26091   0.52179   0.00000  Uiso   1.00
C482   C     0.47399   0.07242   0.97821   0.00000  Uiso   1.00
H483   H     0.47429   0.08629   0.61292   0.00000  Uiso   1.00
H484   H     0.52571   0.24704   0.88708   0.00000  Uiso   1.00
H485   H     0.53611   0.29799   0.53811   0.00000  Uiso   1.00
H486   H     0.46389   0.03534   0.96189   0.00000  Uiso   1.00
H487   H     0.53804   0.29533   0.95671   0.00000  Uiso   1.00
H488   H     0.46196   0.03801   0.54329   0.00000  Uiso   1.00
H489   H     0.56725   0.00312   0.74471   0.00000  Uiso   1.00
H490   H     0.43275   0.33021   0.75529   0.00000  Uiso   1.00
H491   H     0.33786   0.12755   0.71607   0.00000  Uiso   1.00
H492   H     0.66214   0.20578   0.78393   0.00000  Uiso   1.00
N493   N     0.65011   0.15265   0.73783   0.00000  Uiso   1.00
N494   N     0.34989   0.18068   0.76217   0.00000  Uiso   1.00
O495   O     0.46308   0.24619   0.75299   0.00000  Uiso   1.00
O496   O     0.53692   0.08714   0.74702   0.00000  Uiso   1.00
O497   O     0.55946   0.23721   0.74519   0.00000  Uiso   1.00
O498   O     0.44054   0.09613   0.75482   0.00000  Uiso   1.00
O499   O     0.45181   0.17117   0.81998   0.00000  Uiso   1.00
O500   O     0.54819   0.16216   0.68003   0.00000  Uiso   1.00
O501   O     0.54819   0.16219   0.81218   0.00000  Uiso   1.00
O502   O     0.45181   0.17115   0.68783   0.00000  Uiso   1.00
Zn503  Zn    0.43565   0.17266   0.75521   0.00000  Uiso   1.00
Zn504  Zn    0.56435   0.16067   0.74479   0.00000  Uiso   1.00
Cl505  Cl    0.52677   0.27367   0.62448   0.00000  Uiso   1.00
Cl506  Cl    0.47323   0.05967   0.87552   0.00000  Uiso   1.00
C507   C     0.84859   0.26490   0.74891   0.00000  Uiso   1.00
C508   C     0.81807   0.06844   0.75109   0.00000  Uiso   1.00
C509   C     0.86059   0.25956   0.97514   0.00000  Uiso   1.00
C510   C     0.80608   0.07377   0.52486   0.00000  Uiso   1.00
C511   C     0.85662   0.31942   0.74821   0.00000  Uiso   1.00
C512   C     0.81005   0.01392   0.75179   0.00000  Uiso   1.00
C513   C     0.83410   0.16630   0.83631   0.00000  Uiso   1.00
C514   C     0.83257   0.16703   0.66369   0.00000  Uiso   1.00
C515   C     0.81776   0.12185   0.59393   0.00000  Uiso   1.00
C516   C     0.84891   0.21149   0.90607   0.00000  Uiso   1.00
C517   C     0.83101   0.16852   0.61621   0.00000  Uiso   1.00
C518   C     0.83566   0.16481   0.88379   0.00000  Uiso   1.00
C519   C     0.84454   0.21544   0.59348   0.00000  Uiso   1.00
C520   C     0.82212   0.11789   0.90652   0.00000  Uiso   1.00
C521   C     0.84552   0.21510   0.54645   0.00000  Uiso   1.00
C522   C     0.82115   0.11824   0.95355   0.00000  Uiso   1.00
C523   C     0.83268   0.16733   0.52349   0.00000  Uiso   1.00
C524   C     0.83399   0.16601   0.97651   0.00000  Uiso   1.00
C525   C     0.81861   0.12078   0.54750   0.00000  Uiso   1.00
C526   C     0.84806   0.21255   0.95250   0.00000  Uiso   1.00
C527   C     0.85934   0.26091   0.52179   0.00000  Uiso   1.00
C528   C     0.80732   0.07242   0.97821   0.00000  Uiso   1.00
H529   H     0.80762   0.08629   0.61292   0.00000  Uiso   1.00
H530   H     0.85905   0.24704   0.88708   0.00000  Uiso   1.00
H531   H     0.86944   0.29799   0.53811   0.00000  Uiso   1.00
H532   H     0.79723   0.03534   0.96189   0.00000  Uiso   1.00
H533   H     0.87138   0.29533   0.95671   0.00000  Uiso   1.00
H534   H     0.79529   0.03801   0.54329   0.00000  Uiso   1.00
H535   H     0.90059   0.00312   0.74471   0.00000  Uiso   1.00
H536   H     0.76608   0.33021   0.75529   0.00000  Uiso   1.00
H537   H     0.67119   0.12755   0.71607   0.00000  Uiso   1.00
H538   H     0.99547   0.20578   0.78393   0.00000  Uiso   1.00
N539   N     0.98344   0.15265   0.73783   0.00000  Uiso   1.00
N540   N     0.68322   0.18068   0.76217   0.00000  Uiso   1.00
O541   O     0.79642   0.24619   0.75299   0.00000  Uiso   1.00
O542   O     0.87025   0.08714   0.74702   0.00000  Uiso   1.00
O543   O     0.89280   0.23721   0.74519   0.00000  Uiso   1.00
O544   O     0.77387   0.09613   0.75482   0.00000  Uiso   1.00
O545   O     0.78514   0.17117   0.81998   0.00000  Uiso   1.00
O546   O     0.88153   0.16216   0.68003   0.00000  Uiso   1.00
O547   O     0.88152   0.16219   0.81218   0.00000  Uiso   1.00
O548   O     0.78515   0.17115   0.68783   0.00000  Uiso   1.00
Zn549  Zn    0.76898   0.17266   0.75521   0.00000  Uiso   1.00
Zn550  Zn    0.89769   0.16067   0.74479   0.00000  Uiso   1.00
Cl551  Cl    0.86010   0.27367   0.62448   0.00000  Uiso   1.00
Cl552  Cl    0.80657   0.05967   0.87552   0.00000  Uiso   1.00
C553   C     0.18192   0.59823   0.74891   0.00000  Uiso   1.00
C554   C     0.15141   0.40177   0.75109   0.00000  Uiso   1.00
C555   C     0.19392   0.59289   0.97514   0.00000  Uiso   1.00
C556   C     0.13941   0.40711   0.52486   0.00000  Uiso   1.00
C557   C     0.18995   0.65275   0.74821   0.00000  Uiso   1.00
C558   C     0.14338   0.34725   0.75179   0.00000  Uiso   1.00
C559   C     0.16743   0.49964   0.83631   0.00000  Uiso   1.00
C560   C     0.16590   0.50036   0.66369   0.00000  Uiso   1.00
C561   C     0.15109   0.45518   0.59393   0.00000  Uiso   1.00
C562   C     0.18224   0.54482   0.90607   0.00000  Uiso   1.00
C563   C     0.16434   0.50185   0.61621   0.00000  Uiso   1.00
C564   C     0.16899   0.49815   0.88379   0.00000  Uiso   1.00
C565   C     0.17788   0.54878   0.59348   0.00000  Uiso   1.00
C566   C     0.15546   0.45122   0.90652   0.00000  Uiso   1.00
C567   C     0.17885   0.54843   0.54645   0.00000  Uiso   1.00
C568   C     0.15448   0.45157   0.95355   0.00000  Uiso   1.00
C569   C     0.16601   0.50066   0.52349   0.00000  Uiso   1.00
C570   C     0.16732   0.49934   0.97651   0.00000  Uiso   1.00
C571   C     0.15194   0.45411   0.54750   0.00000  Uiso   1.00
C572   C     0.18139   0.54589   0.95250   0.00000  Uiso   1.00
C573   C     0.19267   0.59424   0.52179   0.00000  Uiso   1.00
C574   C     0.14066   0.40576   0.97821   0.00000  Uiso   1.00
H575   H     0.14095   0.41963   0.61292   0.00000  Uiso   1.00
H576   H     0.19238   0.58037   0.88708   0.00000  Uiso   1.00
H577   H     0.20277   0.63133   0.53811   0.00000  Uiso   1.00
H578   H     0.13056   0.36867   0.96189   0.00000  Uiso   1.00
H579   H     0.20471   0.62866   0.95671   0.00000  Uiso   1.00
H580   H     0.12862   0.37134   0.54329   0.00000  Uiso   1.00
H581   H     0.23392   0.33646   0.74471   0.00000  Uiso   1.00
H582   H     0.09941   0.66354   0.75529   0.00000  Uiso   1.00
H583   H     0.00453   0.46088   0.71607   0.00000  Uiso   1.00
H584   H     0.32881   0.53912   0.78393   0.00000  Uiso   1.00
N585   N     0.31678   0.48598   0.73783   0.00000  Uiso   1.00
N586   N     0.01656   0.51402   0.76217   0.00000  Uiso   1.00
O587   O     0.12975   0.57952   0.75299   0.00000  Uiso   1.00
O588   O     0.20358   0.42048   0.74702   0.00000  Uiso   1.00
O589   O     0.22613   0.57054   0.74519   0.00000  Uiso   1.00
O590   O     0.10720   0.42946   0.75482   0.00000  Uiso   1.00
O591   O     0.11847   0.50450   0.81998   0.00000  Uiso   1.00
O592   O     0.21486   0.49550   0.68003   0.00000  Uiso   1.00
O593   O     0.21485   0.49552   0.81218   0.00000  Uiso   1.00
O594   O     0.11848   0.50448   0.68783   0.00000  Uiso   1.00
Zn595  Zn    0.10231   0.50600   0.75521   0.00000  Uiso   1.00
Zn596  Zn    0.23102   0.49400   0.74479   0.00000  Uiso   1.00
Cl597  Cl    0.19343   0.60700   0.62448   0.00000  Uiso   1.00
Cl598  Cl    0.13990   0.39300   0.87552   0.00000  Uiso   1.00
C599   C     0.51526   0.59823   0.74891   0.00000  Uiso   1.00
C600   C     0.48474   0.40177   0.75109   0.00000  Uiso   1.00
C601   C     0.52725   0.59289   0.97514   0.00000  Uiso   1.00
C602   C     0.47275   0.40711   0.52486   0.00000  Uiso   1.00
C603   C     0.52328   0.65275   0.74821   0.00000  Uiso   1.00
C604   C     0.47672   0.34725   0.75179   0.00000  Uiso   1.00
C605   C     0.50076   0.49964   0.83631   0.00000  Uiso   1.00
C606   C     0.49924   0.50036   0.66369   0.00000  Uiso   1.00
C607   C     0.48442   0.45518   0.59393   0.00000  Uiso   1.00
C608   C     0.51557   0.54482   0.90607   0.00000  Uiso   1.00
C609   C     0.49767   0.50185   0.61621   0.00000  Uiso   1.00
C610   C     0.50233   0.49815   0.88379   0.00000  Uiso   1.00
C611   C     0.51121   0.54878   0.59348   0.00000  Uiso   1.00
C612   C     0.48879   0.45122   0.90652   0.00000  Uiso   1.00
C613   C     0.51219   0.54843   0.54645   0.00000  Uiso   1.00
C614   C     0.48781   0.45157   0.95355   0.00000  Uiso   1.00
C615   C     0.49934   0.50066   0.52349   0.00000  Uiso   1.00
C616   C     0.50066   0.49934   0.97651   0.00000  Uiso   1.00
C617   C     0.48528   0.45411   0.54750   0.00000  Uiso   1.00
C618   C     0.51472   0.54589   0.95250   0.00000  Uiso   1.00
C619   C     0.52601   0.59424   0.52179   0.00000  Uiso   1.00
C620   C     0.47399   0.40576   0.97821   0.00000  Uiso   1.00
H621   H     0.47429   0.41963   0.61292   0.00000  Uiso   1.00
H622   H     0.52571   0.58037   0.88708   0.00000  Uiso   1.00
H623   H     0.53611   0.63133   0.53811   0.00000  Uiso   1.00
H624   H     0.46389   0.36867   0.96189   0.00000  Uiso   1.00
H625   H     0.53804   0.62866   0.95671   0.00000  Uiso   1.00
H626   H     0.46196   0.37134   0.54329   0.00000  Uiso   1.00
H627   H     0.56725   0.33646   0.74471   0.00000  Uiso   1.00
H628   H     0.43275   0.66354   0.75529   0.00000  Uiso   1.00
H629   H     0.33786   0.46088   0.71607   0.00000  Uiso   1.00
H630   H     0.66214   0.53912   0.78393   0.00000  Uiso   1.00
N631   N     0.65011   0.48598   0.73783   0.00000  Uiso   1.00
N632   N     0.34989   0.51402   0.76217   0.00000  Uiso   1.00
O633   O     0.46308   0.57952   0.75299   0.00000  Uiso   1.00
O634   O     0.53692   0.42048   0.74702   0.00000  Uiso   1.00
O635   O     0.55946   0.57054   0.74519   0.00000  Uiso   1.00
O636   O     0.44054   0.42946   0.75482   0.00000  Uiso   1.00
O637   O     0.45181   0.50450   0.81998   0.00000  Uiso   1.00
O638   O     0.54819   0.49550   0.68003   0.00000  Uiso   1.00
O639   O     0.54819   0.49552   0.81218   0.00000  Uiso   1.00
O640   O     0.45181   0.50448   0.68783   0.00000  Uiso   1.00
Zn641  Zn    0.43565   0.50600   0.75521   0.00000  Uiso   1.00
Zn642  Zn    0.56435   0.49400   0.74479   0.00000  Uiso   1.00
Cl643  Cl    0.52677   0.60700   0.62448   0.00000  Uiso   1.00
Cl644  Cl    0.47323   0.39300   0.87552   0.00000  Uiso   1.00
C645   C     0.84859   0.59823   0.74891   0.00000  Uiso   1.00
C646   C     0.81807   0.40177   0.75109   0.00000  Uiso   1.00
C647   C     0.86059   0.59289   0.97514   0.00000  Uiso   1.00
C648   C     0.80608   0.40711   0.52486   0.00000  Uiso   1.00
C649   C     0.85662   0.65275   0.74821   0.00000  Uiso   1.00
C650   C     0.81005   0.34725   0.75179   0.00000  Uiso   1.00
C651   C     0.83410   0.49964   0.83631   0.00000  Uiso   1.00
C652   C     0.83257   0.50036   0.66369   0.00000  Uiso   1.00
C653   C     0.81776   0.45518   0.59393   0.00000  Uiso   1.00
C654   C     0.84891   0.54482   0.90607   0.00000  Uiso   1.00
C655   C     0.83101   0.50185   0.61621   0.00000  Uiso   1.00
C656   C     0.83566   0.49815   0.88379   0.00000  Uiso   1.00
C657   C     0.84454   0.54878   0.59348   0.00000  Uiso   1.00
C658   C     0.82212   0.45122   0.90652   0.00000  Uiso   1.00
C659   C     0.84552   0.54843   0.54645   0.00000  Uiso   1.00
C660   C     0.82115   0.45157   0.95355   0.00000  Uiso   1.00
C661   C     0.83268   0.50066   0.52349   0.00000  Uiso   1.00
C662   C     0.83399   0.49934   0.97651   0.00000  Uiso   1.00
C663   C     0.81861   0.45411   0.54750   0.00000  Uiso   1.00
C664   C     0.84806   0.54589   0.95250   0.00000  Uiso   1.00
C665   C     0.85934   0.59424   0.52179   0.00000  Uiso   1.00
C666   C     0.80732   0.40576   0.97821   0.00000  Uiso   1.00
H667   H     0.80762   0.41963   0.61292   0.00000  Uiso   1.00
H668   H     0.85905   0.58037   0.88708   0.00000  Uiso   1.00
H669   H     0.86944   0.63133   0.53811   0.00000  Uiso   1.00
H670   H     0.79723   0.36867   0.96189   0.00000  Uiso   1.00
H671   H     0.87138   0.62866   0.95671   0.00000  Uiso   1.00
H672   H     0.79529   0.37134   0.54329   0.00000  Uiso   1.00
H673   H     0.90059   0.33646   0.74471   0.00000  Uiso   1.00
H674   H     0.76608   0.66354   0.75529   0.00000  Uiso   1.00
H675   H     0.67119   0.46088   0.71607   0.00000  Uiso   1.00
H676   H     0.99547   0.53912   0.78393   0.00000  Uiso   1.00
N677   N     0.98344   0.48598   0.73783   0.00000  Uiso   1.00
N678   N     0.68322   0.51402   0.76217   0.00000  Uiso   1.00
O679   O     0.79642   0.57952   0.75299   0.00000  Uiso   1.00
O680   O     0.87025   0.42048   0.74702   0.00000  Uiso   1.00
O681   O     0.89280   0.57054   0.74519   0.00000  Uiso   1.00
O682   O     0.77387   0.42946   0.75482   0.00000  Uiso   1.00
O683   O     0.78514   0.50450   0.81998   0.00000  Uiso   1.00
O684   O     0.88153   0.49550   0.68003   0.00000  Uiso   1.00
O685   O     0.88152   0.49552   0.81218   0.00000  Uiso   1.00
O686   O     0.78515   0.50448   0.68783   0.00000  Uiso   1.00
Zn687  Zn    0.76898   0.50600   0.75521   0.00000  Uiso   1.00
Zn688  Zn    0.89769   0.49400   0.74479   0.00000  Uiso   1.00
Cl689  Cl    0.86010   0.60700   0.62448   0.00000  Uiso   1.00
Cl690  Cl    0.80657   0.39300   0.87552   0.00000  Uiso   1.00
C691   C     0.18192   0.93156   0.74891   0.00000  Uiso   1.00
C692   C     0.15141   0.73510   0.75109   0.00000  Uiso   1.00
C693   C     0.19392   0.92623   0.97514   0.00000  Uiso   1.00
C694   C     0.13941   0.74044   0.52486   0.00000  Uiso   1.00
C695   C     0.18995   0.98608   0.74821   0.00000  Uiso   1.00
C696   C     0.14338   0.68058   0.75179   0.00000  Uiso   1.00
C697   C     0.16743   0.83297   0.83631   0.00000  Uiso   1.00
C698   C     0.16590   0.83370   0.66369   0.00000  Uiso   1.00
C699   C     0.15109   0.78851   0.59393   0.00000  Uiso   1.00
C700   C     0.18224   0.87815   0.90607   0.00000  Uiso   1.00
C701   C     0.16434   0.83519   0.61621   0.00000  Uiso   1.00
C702   C     0.16899   0.83148   0.88379   0.00000  Uiso   1.00
C703   C     0.17788   0.88211   0.59348   0.00000  Uiso   1.00
C704   C     0.15546   0.78455   0.90652   0.00000  Uiso   1.00
C705   C     0.17885   0.88176   0.54645   0.00000  Uiso   1.00
C706   C     0.15448   0.78490   0.95355   0.00000  Uiso   1.00
C707   C     0.16601   0.83399   0.52349   0.00000  Uiso   1.00
C708   C     0.16732   0.83267   0.97651   0.00000  Uiso   1.00
C709   C     0.15194   0.78745   0.54750   0.00000  Uiso   1.00
C710   C     0.18139   0.87922   0.95250   0.00000  Uiso   1.00
C711   C     0.19267   0.92758   0.52179   0.00000  Uiso   1.00
C712   C     0.14066   0.73909   0.97821   0.00000  Uiso   1.00
H713   H     0.14095   0.75296   0.61292   0.00000  Uiso   1.00
H714   H     0.19238   0.91371   0.88708   0.00000  Uiso   1.00
H715   H     0.20277   0.96466   0.53811   0.00000  Uiso   1.00
H716   H     0.13056   0.70201   0.96189   0.00000  Uiso   1.00
H717   H     0.20471   0.96199   0.95671   0.00000  Uiso   1.00
H718   H     0.12862   0.70467   0.54329   0.00000  Uiso   1.00
H719   H     0.23392   0.66979   0.74471   0.00000  Uiso   1.00
H720   H     0.09941   0.99688   0.75529   0.00000  Uiso   1.00
H721   H     0.00453   0.79422   0.71607   0.00000  Uiso   1.00
H722   H     0.32881   0.87245   0.78393   0.00000  Uiso   1.00
N723   N     0.31678   0.81932   0.73783   0.00000  Uiso   1.00
N724   N     0.01656   0.84735   0.76217   0.00000  Uiso   1.00
O725   O     0.12975   0.91286   0.75299   0.00000  Uiso   1.00
O726   O     0.20358   0.75381   0.74702   0.00000  Uiso   1.00
O727   O     0.22613   0.90387   0.74519   0.00000  Uiso   1.00
O728   O     0.10720   0.76279   0.75482   0.00000  Uiso   1.00
O729   O     0.11847   0.83784   0.81998   0.00000  Uiso   1.00
O730   O     0.21486   0.82883   0.68003   0.00000  Uiso   1.00
O731   O     0.21485   0.82885   0.81218   0.00000  Uiso   1.00
O732   O     0.11848   0.83781   0.68783   0.00000  Uiso   1.00
Zn733  Zn    0.10231   0.83933   0.75521   0.00000  Uiso   1.00
Zn734  Zn    0.23102   0.82734   0.74479   0.00000  Uiso   1.00
Cl735  Cl    0.19343   0.94033   0.62448   0.00000  Uiso   1.00
Cl736  Cl    0.13990   0.72633   0.87552   0.00000  Uiso   1.00
C737   C     0.51526   0.93156   0.74891   0.00000  Uiso   1.00
C738   C     0.48474   0.73510   0.75109   0.00000  Uiso   1.00
C739   C     0.52725   0.92623   0.97514   0.00000  Uiso   1.00
C740   C     0.47275   0.74044   0.52486   0.00000  Uiso   1.00
C741   C     0.52328   0.98608   0.74821   0.00000  Uiso   1.00
C742   C     0.47672   0.68058   0.75179   0.00000  Uiso   1.00
C743   C     0.50076   0.83297   0.83631   0.00000  Uiso   1.00
C744   C     0.49924   0.83370   0.66369   0.00000  Uiso   1.00
C745   C     0.48442   0.78851   0.59393   0.00000  Uiso   1.00
C746   C     0.51557   0.87815   0.90607   0.00000  Uiso   1.00
C747   C     0.49767   0.83519   0.61621   0.00000  Uiso   1.00
C748   C     0.50233   0.83148   0.88379   0.00000  Uiso   1.00
C749   C     0.51121   0.88211   0.59348   0.00000  Uiso   1.00
C750   C     0.48879   0.78455   0.90652   0.00000  Uiso   1.00
C751   C     0.51219   0.88176   0.54645   0.00000  Uiso   1.00
C752   C     0.48781   0.78490   0.95355   0.00000  Uiso   1.00
C753   C     0.49934   0.83399   0.52349   0.00000  Uiso   1.00
C754   C     0.50066   0.83267   0.97651   0.00000  Uiso   1.00
C755   C     0.48528   0.78745   0.54750   0.00000  Uiso   1.00
C756   C     0.51472   0.87922   0.95250   0.00000  Uiso   1.00
C757   C     0.52601   0.92758   0.52179   0.00000  Uiso   1.00
C758   C     0.47399   0.73909   0.97821   0.00000  Uiso   1.00
H759   H     0.47429   0.75296   0.61292   0.00000  Uiso   1.00
H760   H     0.52571   0.91371   0.88708   0.00000  Uiso   1.00
H761   H     0.53611   0.96466   0.53811   0.00000  Uiso   1.00
H762   H     0.46389   0.70201   0.96189   0.00000  Uiso   1.00
H763   H     0.53804   0.96199   0.95671   0.00000  Uiso   1.00
H764   H     0.46196   0.70467   0.54329   0.00000  Uiso   1.00
H765   H     0.56725   0.66979   0.74471   0.00000  Uiso   1.00
H766   H     0.43275   0.99688   0.75529   0.00000  Uiso   1.00
H767   H     0.33786   0.79422   0.71607   0.00000  Uiso   1.00
H768   H     0.66214   0.87245   0.78393   0.00000  Uiso   1.00
N769   N     0.65011   0.81932   0.73783   0.00000  Uiso   1.00
N770   N     0.34989   0.84735   0.76217   0.00000  Uiso   1.00
O771   O     0.46308   0.91286   0.75299   0.00000  Uiso   1.00
O772   O     0.53692   0.75381   0.74702   0.00000  Uiso   1.00
O773   O     0.55946   0.90387   0.74519   0.00000  Uiso   1.00
O774   O     0.44054   0.76279   0.75482   0.00000  Uiso   1.00
O775   O     0.45181   0.83784   0.81998   0.00000  Uiso   1.00
O776   O     0.54819   0.82883   0.68003   0.00000  Uiso   1.00
O777   O     0.54819   0.82885   0.81218   0.00000  Uiso   1.00
O778   O     0.45181   0.83781   0.68783   0.00000  Uiso   1.00
Zn779  Zn    0.43565   0.83933   0.75521   0.00000  Uiso   1.00
Zn780  Zn    0.56435   0.82734   0.74479   0.00000  Uiso   1.00
Cl781  Cl    0.52677   0.94033   0.62448   0.00000  Uiso   1.00
Cl782  Cl    0.47323   0.72633   0.87552   0.00000  Uiso   1.00
C783   C     0.84859   0.93156   0.74891   0.00000  Uiso   1.00
C784   C     0.81807   0.73510   0.75109   0.00000  Uiso   1.00
C785   C     0.86059   0.92623   0.97514   0.00000  Uiso   1.00
C786   C     0.80608   0.74044   0.52486   0.00000  Uiso   1.00
C787   C     0.85662   0.98608   0.74821   0.00000  Uiso   1.00
C788   C     0.81005   0.68058   0.75179   0.00000  Uiso   1.00
C789   C     0.83410   0.83297   0.83631   0.00000  Uiso   1.00
C790   C     0.83257   0.83370   0.66369   0.00000  Uiso   1.00
C791   C     0.81776   0.78851   0.59393   0.00000  Uiso   1.00
C792   C     0.84891   0.87815   0.90607   0.00000  Uiso   1.00
C793   C     0.83101   0.83519   0.61621   0.00000  Uiso   1.00
C794   C     0.83566   0.83148   0.88379   0.00000  Uiso   1.00
C795   C     0.84454   0.88211   0.59348   0.00000  Uiso   1.00
C796   C     0.82212   0.78455   0.90652   0.00000  Uiso   1.00
C797   C     0.84552   0.88176   0.54645   0.00000  Uiso   1.00
C798   C     0.82115   0.78490   0.95355   0.00000  Uiso   1.00
C799   C     0.83268   0.83399   0.52349   0.00000  Uiso   1.00
C800   C     0.83399   0.83267   0.97651   0.00000  Uiso   1.00
C801   C     0.81861   0.78745   0.54750   0.00000  Uiso   1.00
C802   C     0.84806   0.87922   0.95250   0.00000  Uiso   1.00
C803   C     0.85934   0.92758   0.52179   0.00000  Uiso   1.00
C804   C     0.80732   0.73909   0.97821   0.00000  Uiso   1.00
H805   H     0.80762   0.75296   0.61292   0.00000  Uiso   1.00
H806   H     0.85905   0.91371   0.88708   0.00000  Uiso   1.00
H807   H     0.86944   0.96466   0.53811   0.00000  Uiso   1.00
H808   H     0.79723   0.70201   0.96189   0.00000  Uiso   1.00
H809   H     0.87138   0.96199   0.95671   0.00000  Uiso   1.00
H810   H     0.79529   0.70467   0.54329   0.00000  Uiso   1.00
H811   H     0.90059   0.66979   0.74471   0.00000  Uiso   1.00
H812   H     0.76608   0.99688   0.75529   0.00000  Uiso   1.00
H813   H     0.67119   0.79422   0.71607   0.00000  Uiso   1.00
H814   H     0.99547   0.87245   0.78393   0.00000  Uiso   1.00
N815   N     0.98344   0.81932   0.73783   0.00000  Uiso   1.00
N816   N     0.68322   0.84735   0.76217   0.00000  Uiso   1.00
O817   O     0.79642   0.91286   0.75299   0.00000  Uiso   1.00
O818   O     0.87025   0.75381   0.74702   0.00000  Uiso   1.00
O819   O     0.89280   0.90387   0.74519   0.00000  Uiso   1.00
O820   O     0.77387   0.76279   0.75482   0.00000  Uiso   1.00
O821   O     0.78514   0.83784   0.81998   0.00000  Uiso   1.00
O822   O     0.88153   0.82883   0.68003   0.00000  Uiso   1.00
O823   O     0.88152   0.82885   0.81218   0.00000  Uiso   1.00
O824   O     0.78515   0.83781   0.68783   0.00000  Uiso   1.00
Zn825  Zn    0.76898   0.83933   0.75521   0.00000  Uiso   1.00
Zn826  Zn    0.89769   0.82734   0.74479   0.00000  Uiso   1.00
Cl827  Cl    0.86010   0.94033   0.62448   0.00000  Uiso   1.00
Cl828  Cl    0.80657   0.72633   0.87552   0.00000  Uiso   1.00
loop_
_geom_bond_atom_site_label_1
_geom_bond_atom_site_label_2
_geom_bond_distance
_geom_bond_site_symmetry_2
_ccdc_geom_bond_type
C1     O37     1.287   .     A
C1     C5      1.401   .     S
C1     O35     1.278   .     A
C2     O38     1.287   .     A
C2     C6      1.401   .     S
C2     O36     1.278   .     A
C3     H27     1.084   .     S
C3     C20     1.397   .     A
C3     C435    1.386   .     S
C4     H28     1.084   .     S
C4     C19     1.397   .     A
C4     C436    1.386   1_554 S
C5     C144    1.335   .     S
C5     H167    1.088   .     S
C6     C281    1.335   1_545 S
C6     H306    1.088   1_545 S
C7     O39     1.286   .     A
C7     C12     1.417   .     S
C7     O41     1.286   .     A
C8     C11     1.417   .     S
C8     O42     1.286   .     A
C8     O40     1.286   .     A
C9     C11     1.388   .     A
C9     H23     1.086   .     S
C9     C19     1.380   .     A
C10    H24     1.086   .     S
C10    C12     1.388   .     A
C10    C20     1.380   .     A
C11    C13     1.399   .     A
C12    C14     1.399   .     A
C13    Cl45    1.774   .     S
C13    C15     1.398   .     A
C14    Cl46    1.774   .     S
C14    C16     1.398   .     A
C15    C21     1.405   .     A
C15    C17     1.419   .     A
C16    C18     1.419   .     A
C16    C22     1.405   .     A
C17    C19     1.412   .     A
C17    C432    1.396   1_554 S
C18    C20     1.412   .     A
C18    C431    1.396   .     S
C21    H25     1.082   .     S
C21    C417    1.386   1_554 S
C22    H26     1.082   .     S
C22    C418    1.386   .     S
H29    C281    1.088   1_545 S
H30    C144    1.088   .     S
H31    N125    1.029   1_455 S
H32    N80     1.029   .     S
N33    Zn44    2.020   .     S
N33    H77     1.029   .     S
N33    N80     1.276   .     S
N34    Zn43    2.020   .     S
N34    N125    1.276   1_455 S
N34    H124    1.029   1_455 S
O35    Zn43    1.955   .     S
O36    Zn44    1.955   .     S
O37    Zn44    1.976   .     S
O38    Zn43    1.976   .     S
O39    Zn43    1.990   .     S
O40    Zn44    1.990   .     S
O41    Zn44    2.015   .     S
O42    Zn43    2.015   .     S
C47    O83     1.287   .     A
C47    C51     1.401   .     S
C47    O81     1.278   .     A
C48    O84     1.287   .     A
C48    C52     1.401   .     S
C48    O82     1.278   .     A
C49    H73     1.084   .     S
C49    C66     1.397   .     A
C49    C481    1.386   .     S
C50    H74     1.084   .     S
C50    C65     1.397   .     A
C50    C482    1.386   1_554 S
C51    C190    1.335   .     S
C51    H213    1.088   .     S
C52    C327    1.335   1_545 S
C52    H352    1.088   1_545 S
C53    O85     1.286   .     A
C53    C58     1.417   .     S
C53    O87     1.286   .     A
C54    C57     1.417   .     S
C54    O88     1.286   .     A
C54    O86     1.286   .     A
C55    C57     1.388   .     A
C55    H69     1.086   .     S
C55    C65     1.380   .     A
C56    H70     1.086   .     S
C56    C58     1.388   .     A
C56    C66     1.380   .     A
C57    C59     1.399   .     A
C58    C60     1.399   .     A
C59    Cl91    1.774   .     S
C59    C61     1.398   .     A
C60    Cl92    1.774   .     S
C60    C62     1.398   .     A
C61    C67     1.405   .     A
C61    C63     1.419   .     A
C62    C64     1.419   .     A
C62    C68     1.405   .     A
C63    C65     1.412   .     A
C63    C478    1.396   1_554 S
C64    C66     1.412   .     A
C64    C477    1.396   .     S
C67    H71     1.082   .     S
C67    C463    1.386   1_554 S
C68    H72     1.082   .     S
C68    C464    1.386   .     S
H75    C327    1.088   1_545 S
H76    C190    1.088   .     S
H78    N126    1.029   .     S
N79    Zn90    2.020   .     S
N79    H123    1.029   .     S
N79    N126    1.276   .     S
N80    Zn89    2.020   .     S
O81    Zn89    1.955   .     S
O82    Zn90    1.955   .     S
O83    Zn90    1.976   .     S
O84    Zn89    1.976   .     S
O85    Zn89    1.990   .     S
O86    Zn90    1.990   .     S
O87    Zn90    2.015   .     S
O88    Zn89    2.015   .     S
C93    O129    1.287   .     A
C93    C97     1.401   .     S
C93    O127    1.278   .     A
C94    O130    1.287   .     A
C94    C98     1.401   .     S
C94    O128    1.278   .     A
C95    H119    1.084   .     S
C95    C112    1.397   .     A
C95    C527    1.386   .     S
C96    H120    1.084   .     S
C96    C111    1.397   .     A
C96    C528    1.386   1_554 S
C97    C236    1.335   .     S
C97    H259    1.088   .     S
C98    C373    1.335   1_545 S
C98    H398    1.088   1_545 S
C99    O131    1.286   .     A
C99    C104    1.417   .     S
C99    O133    1.286   .     A
C100   C103    1.417   .     S
C100   O134    1.286   .     A
C100   O132    1.286   .     A
C101   C103    1.388   .     A
C101   H115    1.086   .     S
C101   C111    1.380   .     A
C102   H116    1.086   .     S
C102   C104    1.388   .     A
C102   C112    1.380   .     A
C103   C105    1.399   .     A
C104   C106    1.399   .     A
C105   Cl137   1.774   .     S
C105   C107    1.398   .     A
C106   Cl138   1.774   .     S
C106   C108    1.398   .     A
C107   C113    1.405   .     A
C107   C109    1.419   .     A
C108   C110    1.419   .     A
C108   C114    1.405   .     A
C109   C111    1.412   .     A
C109   C524    1.396   1_554 S
C110   C112    1.412   .     A
C110   C523    1.396   .     S
C113   H117    1.082   .     S
C113   C509    1.386   1_554 S
C114   H118    1.082   .     S
C114   C510    1.386   .     S
H121   C373    1.088   1_545 S
H122   C236    1.088   .     S
H124   N34     1.029   1_655 S
N125   Zn136   2.020   .     S
N125   H31     1.029   1_655 S
N125   N34     1.276   1_655 S
N126   Zn135   2.020   .     S
O127   Zn135   1.955   .     S
O128   Zn136   1.955   .     S
O129   Zn136   1.976   .     S
O130   Zn135   1.976   .     S
O131   Zn135   1.990   .     S
O132   Zn136   1.990   .     S
O133   Zn136   2.015   .     S
O134   Zn135   2.015   .     S
C139   O175    1.287   .     A
C139   C143    1.401   .     S
C139   O173    1.278   .     A
C140   O176    1.287   .     A
C140   C144    1.401   .     S
C140   O174    1.278   .     A
C141   H165    1.084   .     S
C141   C158    1.397   .     A
C141   C573    1.386   .     S
C142   H166    1.084   .     S
C142   C157    1.397   .     A
C142   C574    1.386   1_554 S
C143   C282    1.335   .     S
C143   H305    1.088   .     S
C145   O177    1.286   .     A
C145   C150    1.417   .     S
C145   O179    1.286   .     A
C146   C149    1.417   .     S
C146   O180    1.286   .     A
C146   O178    1.286   .     A
C147   C149    1.388   .     A
C147   H161    1.086   .     S
C147   C157    1.380   .     A
C148   H162    1.086   .     S
C148   C150    1.388   .     A
C148   C158    1.380   .     A
C149   C151    1.399   .     A
C150   C152    1.399   .     A
C151   Cl183   1.774   .     S
C151   C153    1.398   .     A
C152   Cl184   1.774   .     S
C152   C154    1.398   .     A
C153   C159    1.405   .     A
C153   C155    1.419   .     A
C154   C156    1.419   .     A
C154   C160    1.405   .     A
C155   C157    1.412   .     A
C155   C570    1.396   1_554 S
C156   C158    1.412   .     A
C156   C569    1.396   .     S
C159   H163    1.082   .     S
C159   C555    1.386   1_554 S
C160   H164    1.082   .     S
C160   C556    1.386   .     S
H168   C282    1.088   .     S
H169   N263    1.029   1_455 S
H170   N218    1.029   .     S
N171   Zn182   2.020   .     S
N171   H215    1.029   .     S
N171   N218    1.276   .     S
N172   Zn181   2.020   .     S
N172   N263    1.276   1_455 S
N172   H262    1.029   1_455 S
O173   Zn181   1.955   .     S
O174   Zn182   1.955   .     S
O175   Zn182   1.976   .     S
O176   Zn181   1.976   .     S
O177   Zn181   1.990   .     S
O178   Zn182   1.990   .     S
O179   Zn182   2.015   .     S
O180   Zn181   2.015   .     S
C185   O221    1.287   .     A
C185   C189    1.401   .     S
C185   O219    1.278   .     A
C186   O222    1.287   .     A
C186   C190    1.401   .     S
C186   O220    1.278   .     A
C187   H211    1.084   .     S
C187   C204    1.397   .     A
C187   C619    1.386   .     S
C188   H212    1.084   .     S
C188   C203    1.397   .     A
C188   C620    1.386   1_554 S
C189   C328    1.335   .     S
C189   H351    1.088   .     S
C191   O223    1.286   .     A
C191   C196    1.417   .     S
C191   O225    1.286   .     A
C192   C195    1.417   .     S
C192   O226    1.286   .     A
C192   O224    1.286   .     A
C193   C195    1.388   .     A
C193   H207    1.086   .     S
C193   C203    1.380   .     A
C194   H208    1.086   .     S
C194   C196    1.388   .     A
C194   C204    1.380   .     A
C195   C197    1.399   .     A
C196   C198    1.399   .     A
C197   Cl229   1.774   .     S
C197   C199    1.398   .     A
C198   Cl230   1.774   .     S
C198   C200    1.398   .     A
C199   C205    1.405   .     A
C199   C201    1.419   .     A
C200   C202    1.419   .     A
C200   C206    1.405   .     A
C201   C203    1.412   .     A
C201   C616    1.396   1_554 S
C202   C204    1.412   .     A
C202   C615    1.396   .     S
C205   H209    1.082   .     S
C205   C601    1.386   1_554 S
C206   H210    1.082   .     S
C206   C602    1.386   .     S
H214   C328    1.088   .     S
H216   N264    1.029   .     S
N217   Zn228   2.020   .     S
N217   H261    1.029   .     S
N217   N264    1.276   .     S
N218   Zn227   2.020   .     S
O219   Zn227   1.955   .     S
O220   Zn228   1.955   .     S
O221   Zn228   1.976   .     S
O222   Zn227   1.976   .     S
O223   Zn227   1.990   .     S
O224   Zn228   1.990   .     S
O225   Zn228   2.015   .     S
O226   Zn227   2.015   .     S
C231   O267    1.287   .     A
C231   C235    1.401   .     S
C231   O265    1.278   .     A
C232   O268    1.287   .     A
C232   C236    1.401   .     S
C232   O266    1.278   .     A
C233   H257    1.084   .     S
C233   C250    1.397   .     A
C233   C665    1.386   .     S
C234   H258    1.084   .     S
C234   C249    1.397   .     A
C234   C666    1.386   1_554 S
C235   C374    1.335   .     S
C235   H397    1.088   .     S
C237   O269    1.286   .     A
C237   C242    1.417   .     S
C237   O271    1.286   .     A
C238   C241    1.417   .     S
C238   O272    1.286   .     A
C238   O270    1.286   .     A
C239   C241    1.388   .     A
C239   H253    1.086   .     S
C239   C249    1.380   .     A
C240   H254    1.086   .     S
C240   C242    1.388   .     A
C240   C250    1.380   .     A
C241   C243    1.399   .     A
C242   C244    1.399   .     A
C243   Cl275   1.774   .     S
C243   C245    1.398   .     A
C244   Cl276   1.774   .     S
C244   C246    1.398   .     A
C245   C251    1.405   .     A
C245   C247    1.419   .     A
C246   C248    1.419   .     A
C246   C252    1.405   .     A
C247   C249    1.412   .     A
C247   C662    1.396   1_554 S
C248   C250    1.412   .     A
C248   C661    1.396   .     S
C251   H255    1.082   .     S
C251   C647    1.386   1_554 S
C252   H256    1.082   .     S
C252   C648    1.386   .     S
H260   C374    1.088   .     S
H262   N172    1.029   1_655 S
N263   Zn274   2.020   .     S
N263   H169    1.029   1_655 S
N263   N172    1.276   1_655 S
N264   Zn273   2.020   .     S
O265   Zn273   1.955   .     S
O266   Zn274   1.955   .     S
O267   Zn274   1.976   .     S
O268   Zn273   1.976   .     S
O269   Zn273   1.990   .     S
O270   Zn274   1.990   .     S
O271   Zn274   2.015   .     S
O272   Zn273   2.015   .     S
C277   O313    1.287   .     A
C277   C281    1.401   .     S
C277   O311    1.278   .     A
C278   O314    1.287   .     A
C278   C282    1.401   .     S
C278   O312    1.278   .     A
C279   H303    1.084   .     S
C279   C296    1.397   .     A
C279   C711    1.386   .     S
C280   H304    1.084   .     S
C280   C295    1.397   .     A
C280   C712    1.386   1_554 S
C281   C6      1.335   1_565 S
C281   H29     1.088   1_565 S
C283   O315    1.286   .     A
C283   C288    1.417   .     S
C283   O317    1.286   .     A
C284   C287    1.417   .     S
C284   O318    1.286   .     A
C284   O316    1.286   .     A
C285   C287    1.388   .     A
C285   H299    1.086   .     S
C285   C295    1.380   .     A
C286   H300    1.086   .     S
C286   C288    1.388   .     A
C286   C296    1.380   .     A
C287   C289    1.399   .     A
C288   C290    1.399   .     A
C289   Cl321   1.774   .     S
C289   C291    1.398   .     A
C290   Cl322   1.774   .     S
C290   C292    1.398   .     A
C291   C297    1.405   .     A
C291   C293    1.419   .     A
C292   C294    1.419   .     A
C292   C298    1.405   .     A
C293   C295    1.412   .     A
C293   C708    1.396   1_554 S
C294   C296    1.412   .     A
C294   C707    1.396   .     S
C297   H301    1.082   .     S
C297   C693    1.386   1_554 S
C298   H302    1.082   .     S
C298   C694    1.386   .     S
H306   C6      1.088   1_565 S
H307   N401    1.029   1_455 S
H308   N356    1.029   .     S
N309   Zn320   2.020   .     S
N309   H353    1.029   .     S
N309   N356    1.276   .     S
N310   Zn319   2.020   .     S
N310   N401    1.276   1_455 S
N310   H400    1.029   1_455 S
O311   Zn319   1.955   .     S
O312   Zn320   1.955   .     S
O313   Zn320   1.976   .     S
O314   Zn319   1.976   .     S
O315   Zn319   1.990   .     S
O316   Zn320   1.990   .     S
O317   Zn320   2.015   .     S
O318   Zn319   2.015   .     S
C323   O359    1.287   .     A
C323   C327    1.401   .     S
C323   O357    1.278   .     A
C324   O360    1.287   .     A
C324   C328    1.401   .     S
C324   O358    1.278   .     A
C325   H349    1.084   .     S
C325   C342    1.397   .     A
C325   C757    1.386   .     S
C326   H350    1.084   .     S
C326   C341    1.397   .     A
C326   C758    1.386   1_554 S
C327   C52     1.335   1_565 S
C327   H75     1.088   1_565 S
C329   O361    1.286   .     A
C329   C334    1.417   .     S
C329   O363    1.286   .     A
C330   C333    1.417   .     S
C330   O364    1.286   .     A
C330   O362    1.286   .     A
C331   C333    1.388   .     A
C331   H345    1.086   .     S
C331   C341    1.380   .     A
C332   H346    1.086   .     S
C332   C334    1.388   .     A
C332   C342    1.380   .     A
C333   C335    1.399   .     A
C334   C336    1.399   .     A
C335   Cl367   1.774   .     S
C335   C337    1.398   .     A
C336   Cl368   1.774   .     S
C336   C338    1.398   .     A
C337   C343    1.405   .     A
C337   C339    1.419   .     A
C338   C340    1.419   .     A
C338   C344    1.405   .     A
C339   C341    1.412   .     A
C339   C754    1.396   1_554 S
C340   C342    1.412   .     A
C340   C753    1.396   .     S
C343   H347    1.082   .     S
C343   C739    1.386   1_554 S
C344   H348    1.082   .     S
C344   C740    1.386   .     S
H352   C52     1.088   1_565 S
H354   N402    1.029   .     S
N355   Zn366   2.020   .     S
N355   H399    1.029   .     S
N355   N402    1.276   .     S
N356   Zn365   2.020   .     S
O357   Zn365   1.955   .     S
O358   Zn366   1.955   .     S
O359   Zn366   1.976   .     S
O360   Zn365   1.976   .     S
O361   Zn365   1.990   .     S
O362   Zn366   1.990   .     S
O363   Zn366   2.015   .     S
O364   Zn365   2.015   .     S
C369   O405    1.287   .     A
C369   C373    1.401   .     S
C369   O403    1.278   .     A
C370   O406    1.287   .     A
C370   C374    1.401   .     S
C370   O404    1.278   .     A
C371   H395    1.084   .     S
C371   C388    1.397   .     A
C371   C803    1.386   .     S
C372   H396    1.084   .     S
C372   C387    1.397   .     A
C372   C804    1.386   1_554 S
C373   C98     1.335   1_565 S
C373   H121    1.088   1_565 S
C375   O407    1.286   .     A
C375   C380    1.417   .     S
C375   O409    1.286   .     A
C376   C379    1.417   .     S
C376   O410    1.286   .     A
C376   O408    1.286   .     A
C377   C379    1.388   .     A
C377   H391    1.086   .     S
C377   C387    1.380   .     A
C378   H392    1.086   .     S
C378   C380    1.388   .     A
C378   C388    1.380   .     A
C379   C381    1.399   .     A
C380   C382    1.399   .     A
C381   Cl413   1.774   .     S
C381   C383    1.398   .     A
C382   Cl414   1.774   .     S
C382   C384    1.398   .     A
C383   C389    1.405   .     A
C383   C385    1.419   .     A
C384   C386    1.419   .     A
C384   C390    1.405   .     A
C385   C387    1.412   .     A
C385   C800    1.396   1_554 S
C386   C388    1.412   .     A
C386   C799    1.396   .     S
C389   H393    1.082   .     S
C389   C785    1.386   1_554 S
C390   H394    1.082   .     S
C390   C786    1.386   .     S
H398   C98     1.088   1_565 S
H400   N310    1.029   1_655 S
N401   Zn412   2.020   .     S
N401   H307    1.029   1_655 S
N401   N310    1.276   1_655 S
N402   Zn411   2.020   .     S
O403   Zn411   1.955   .     S
O404   Zn412   1.955   .     S
O405   Zn412   1.976   .     S
O406   Zn411   1.976   .     S
O407   Zn411   1.990   .     S
O408   Zn412   1.990   .     S
O409   Zn412   2.015   .     S
O410   Zn411   2.015   .     S
C415   O451    1.287   .     A
C415   C419    1.401   .     S
C415   O449    1.278   .     A
C416   O452    1.287   .     A
C416   C420    1.401   .     S
C416   O450    1.278   .     A
C417   H441    1.084   .     S
C417   C434    1.397   .     A
C417   C21     1.386   1_556 S
C418   H442    1.084   .     S
C418   C433    1.397   .     A
C419   C558    1.335   .     S
C419   H581    1.088   .     S
C420   C695    1.335   1_545 S
C420   H720    1.088   1_545 S
C421   O453    1.286   .     A
C421   C426    1.417   .     S
C421   O455    1.286   .     A
C422   C425    1.417   .     S
C422   O456    1.286   .     A
C422   O454    1.286   .     A
C423   C425    1.388   .     A
C423   H437    1.086   .     S
C423   C433    1.380   .     A
C424   H438    1.086   .     S
C424   C426    1.388   .     A
C424   C434    1.380   .     A
C425   C427    1.399   .     A
C426   C428    1.399   .     A
C427   Cl459   1.774   .     S
C427   C429    1.398   .     A
C428   Cl460   1.774   .     S
C428   C430    1.398   .     A
C429   C435    1.405   .     A
C429   C431    1.419   .     A
C430   C432    1.419   .     A
C430   C436    1.405   .     A
C431   C433    1.412   .     A
C432   C434    1.412   .     A
C432   C17     1.396   1_556 S
C435   H439    1.082   .     S
C436   H440    1.082   .     S
C436   C4      1.386   1_556 S
H443   C695    1.088   1_545 S
H444   C558    1.088   .     S
H445   N539    1.029   1_455 S
H446   N494    1.029   .     S
N447   Zn458   2.020   .     S
N447   H491    1.029   .     S
N447   N494    1.276   .     S
N448   Zn457   2.020   .     S
N448   N539    1.276   1_455 S
N448   H538    1.029   1_455 S
O449   Zn457   1.955   .     S
O450   Zn458   1.955   .     S
O451   Zn458   1.976   .     S
O452   Zn457   1.976   .     S
O453   Zn457   1.990   .     S
O454   Zn458   1.990   .     S
O455   Zn458   2.015   .     S
O456   Zn457   2.015   .     S
C461   O497    1.287   .     A
C461   C465    1.401   .     S
C461   O495    1.278   .     A
C462   O498    1.287   .     A
C462   C466    1.401   .     S
C462   O496    1.278   .     A
C463   H487    1.084   .     S
C463   C480    1.397   .     A
C463   C67     1.386   1_556 S
C464   H488    1.084   .     S
C464   C479    1.397   .     A
C465   C604    1.335   .     S
C465   H627    1.088   .     S
C466   C741    1.335   1_545 S
C466   H766    1.088   1_545 S
C467   O499    1.286   .     A
C467   C472    1.417   .     S
C467   O501    1.286   .     A
C468   C471    1.417   .     S
C468   O502    1.286   .     A
C468   O500    1.286   .     A
C469   C471    1.388   .     A
C469   H483    1.086   .     S
C469   C479    1.380   .     A
C470   H484    1.086   .     S
C470   C472    1.388   .     A
C470   C480    1.380   .     A
C471   C473    1.399   .     A
C472   C474    1.399   .     A
C473   Cl505   1.774   .     S
C473   C475    1.398   .     A
C474   Cl506   1.774   .     S
C474   C476    1.398   .     A
C475   C481    1.405   .     A
C475   C477    1.419   .     A
C476   C478    1.419   .     A
C476   C482    1.405   .     A
C477   C479    1.412   .     A
C478   C480    1.412   .     A
C478   C63     1.396   1_556 S
C481   H485    1.082   .     S
C482   H486    1.082   .     S
C482   C50     1.386   1_556 S
H489   C741    1.088   1_545 S
H490   C604    1.088   .     S
H492   N540    1.029   .     S
N493   Zn504   2.020   .     S
N493   H537    1.029   .     S
N493   N540    1.276   .     S
N494   Zn503   2.020   .     S
O495   Zn503   1.955   .     S
O496   Zn504   1.955   .     S
O497   Zn504   1.976   .     S
O498   Zn503   1.976   .     S
O499   Zn503   1.990   .     S
O500   Zn504   1.990   .     S
O501   Zn504   2.015   .     S
O502   Zn503   2.015   .     S
C507   O543    1.287   .     A
C507   C511    1.401   .     S
C507   O541    1.278   .     A
C508   O544    1.287   .     A
C508   C512    1.401   .     S
C508   O542    1.278   .     A
C509   H533    1.084   .     S
C509   C526    1.397   .     A
C509   C113    1.386   1_556 S
C510   H534    1.084   .     S
C510   C525    1.397   .     A
C511   C650    1.335   .     S
C511   H673    1.088   .     S
C512   C787    1.335   1_545 S
C512   H812    1.088   1_545 S
C513   O545    1.286   .     A
C513   C518    1.417   .     S
C513   O547    1.286   .     A
C514   C517    1.417   .     S
C514   O548    1.286   .     A
C514   O546    1.286   .     A
C515   C517    1.388   .     A
C515   H529    1.086   .     S
C515   C525    1.380   .     A
C516   H530    1.086   .     S
C516   C518    1.388   .     A
C516   C526    1.380   .     A
C517   C519    1.399   .     A
C518   C520    1.399   .     A
C519   Cl551   1.774   .     S
C519   C521    1.398   .     A
C520   Cl552   1.774   .     S
C520   C522    1.398   .     A
C521   C527    1.405   .     A
C521   C523    1.419   .     A
C522   C524    1.419   .     A
C522   C528    1.405   .     A
C523   C525    1.412   .     A
C524   C526    1.412   .     A
C524   C109    1.396   1_556 S
C527   H531    1.082   .     S
C528   H532    1.082   .     S
C528   C96     1.386   1_556 S
H535   C787    1.088   1_545 S
H536   C650    1.088   .     S
H538   N448    1.029   1_655 S
N539   Zn550   2.020   .     S
N539   H445    1.029   1_655 S
N539   N448    1.276   1_655 S
N540   Zn549   2.020   .     S
O541   Zn549   1.955   .     S
O542   Zn550   1.955   .     S
O543   Zn550   1.976   .     S
O544   Zn549   1.976   .     S
O545   Zn549   1.990   .     S
O546   Zn550   1.990   .     S
O547   Zn550   2.015   .     S
O548   Zn549   2.015   .     S
C553   O589    1.287   .     A
C553   C557    1.401   .     S
C553   O587    1.278   .     A
C554   O590    1.287   .     A
C554   C558    1.401   .     S
C554   O588    1.278   .     A
C555   H579    1.084   .     S
C555   C572    1.397   .     A
C555   C159    1.386   1_556 S
C556   H580    1.084   .     S
C556   C571    1.397   .     A
C557   C696    1.335   .     S
C557   H719    1.088   .     S
C559   O591    1.286   .     A
C559   C564    1.417   .     S
C559   O593    1.286   .     A
C560   C563    1.417   .     S
C560   O594    1.286   .     A
C560   O592    1.286   .     A
C561   C563    1.388   .     A
C561   H575    1.086   .     S
C561   C571    1.380   .     A
C562   H576    1.086   .     S
C562   C564    1.388   .     A
C562   C572    1.380   .     A
C563   C565    1.399   .     A
C564   C566    1.399   .     A
C565   Cl597   1.774   .     S
C565   C567    1.398   .     A
C566   Cl598   1.774   .     S
C566   C568    1.398   .     A
C567   C573    1.405   .     A
C567   C569    1.419   .     A
C568   C570    1.419   .     A
C568   C574    1.405   .     A
C569   C571    1.412   .     A
C570   C572    1.412   .     A
C570   C155    1.396   1_556 S
C573   H577    1.082   .     S
C574   H578    1.082   .     S
C574   C142    1.386   1_556 S
H582   C696    1.088   .     S
H583   N677    1.029   1_455 S
H584   N632    1.029   .     S
N585   Zn596   2.020   .     S
N585   H629    1.029   .     S
N585   N632    1.276   .     S
N586   Zn595   2.020   .     S
N586   N677    1.276   1_455 S
N586   H676    1.029   1_455 S
O587   Zn595   1.955   .     S
O588   Zn596   1.955   .     S
O589   Zn596   1.976   .     S
O590   Zn595   1.976   .     S
O591   Zn595   1.990   .     S
O592   Zn596   1.990   .     S
O593   Zn596   2.015   .     S
O594   Zn595   2.015   .     S
C599   O635    1.287   .     A
C599   C603    1.401   .     S
C599   O633    1.278   .     A
C600   O636    1.287   .     A
C600   C604    1.401   .     S
C600   O634    1.278   .     A
C601   H625    1.084   .     S
C601   C618    1.397   .     A
C601   C205    1.386   1_556 S
C602   H626    1.084   .     S
C602   C617    1.397   .     A
C603   C742    1.335   .     S
C603   H765    1.088   .     S
C605   O637    1.286   .     A
C605   C610    1.417   .     S
C605   O639    1.286   .     A
C606   C609    1.417   .     S
C606   O640    1.286   .     A
C606   O638    1.286   .     A
C607   C609    1.388   .     A
C607   H621    1.086   .     S
C607   C617    1.380   .     A
C608   H622    1.086   .     S
C608   C610    1.388   .     A
C608   C618    1.380   .     A
C609   C611    1.399   .     A
C610   C612    1.399   .     A
C611   Cl643   1.774   .     S
C611   C613    1.398   .     A
C612   Cl644   1.774   .     S
C612   C614    1.398   .     A
C613   C619    1.405   .     A
C613   C615    1.419   .     A
C614   C616    1.419   .     A
C614   C620    1.405   .     A
C615   C617    1.412   .     A
C616   C618    1.412   .     A
C616   C201    1.396   1_556 S
C619   H623    1.082   .     S
C620   H624    1.082   .     S
C620   C188    1.386   1_556 S
H628   C742    1.088   .     S
H630   N678    1.029   .     S
N631   Zn642   2.020   .     S
N631   H675    1.029   .     S
N631   N678    1.276   .     S
N632   Zn641   2.020   .     S
O633   Zn641   1.955   .     S
O634   Zn642   1.955   .     S
O635   Zn642   1.976   .     S
O636   Zn641   1.976   .     S
O637   Zn641   1.990   .     S
O638   Zn642   1.990   .     S
O639   Zn642   2.015   .     S
O640   Zn641   2.015   .     S
C645   O681    1.287   .     A
C645   C649    1.401   .     S
C645   O679    1.278   .     A
C646   O682    1.287   .     A
C646   C650    1.401   .     S
C646   O680    1.278   .     A
C647   H671    1.084   .     S
C647   C664    1.397   .     A
C647   C251    1.386   1_556 S
C648   H672    1.084   .     S
C648   C663    1.397   .     A
C649   C788    1.335   .     S
C649   H811    1.088   .     S
C651   O683    1.286   .     A
C651   C656    1.417   .     S
C651   O685    1.286   .     A
C652   C655    1.417   .     S
C652   O686    1.286   .     A
C652   O684    1.286   .     A
C653   C655    1.388   .     A
C653   H667    1.086   .     S
C653   C663    1.380   .     A
C654   H668    1.086   .     S
C654   C656    1.388   .     A
C654   C664    1.380   .     A
C655   C657    1.399   .     A
C656   C658    1.399   .     A
C657   Cl689   1.774   .     S
C657   C659    1.398   .     A
C658   Cl690   1.774   .     S
C658   C660    1.398   .     A
C659   C665    1.405   .     A
C659   C661    1.419   .     A
C660   C662    1.419   .     A
C660   C666    1.405   .     A
C661   C663    1.412   .     A
C662   C664    1.412   .     A
C662   C247    1.396   1_556 S
C665   H669    1.082   .     S
C666   H670    1.082   .     S
C666   C234    1.386   1_556 S
H674   C788    1.088   .     S
H676   N586    1.029   1_655 S
N677   Zn688   2.020   .     S
N677   H583    1.029   1_655 S
N677   N586    1.276   1_655 S
N678   Zn687   2.020   .     S
O679   Zn687   1.955   .     S
O680   Zn688   1.955   .     S
O681   Zn688   1.976   .     S
O682   Zn687   1.976   .     S
O683   Zn687   1.990   .     S
O684   Zn688   1.990   .     S
O685   Zn688   2.015   .     S
O686   Zn687   2.015   .     S
C691   O727    1.287   .     A
C691   C695    1.401   .     S
C691   O725    1.278   .     A
C692   O728    1.287   .     A
C692   C696    1.401   .     S
C692   O726    1.278   .     A
C693   H717    1.084   .     S
C693   C710    1.397   .     A
C693   C297    1.386   1_556 S
C694   H718    1.084   .     S
C694   C709    1.397   .     A
C695   C420    1.335   1_565 S
C695   H443    1.088   1_565 S
C697   O729    1.286   .     A
C697   C702    1.417   .     S
C697   O731    1.286   .     A
C698   C701    1.417   .     S
C698   O732    1.286   .     A
C698   O730    1.286   .     A
C699   C701    1.388   .     A
C699   H713    1.086   .     S
C699   C709    1.380   .     A
C700   H714    1.086   .     S
C700   C702    1.388   .     A
C700   C710    1.380   .     A
C701   C703    1.399   .     A
C702   C704    1.399   .     A
C703   Cl735   1.774   .     S
C703   C705    1.398   .     A
C704   Cl736   1.774   .     S
C704   C706    1.398   .     A
C705   C711    1.405   .     A
C705   C707    1.419   .     A
C706   C708    1.419   .     A
C706   C712    1.405   .     A
C707   C709    1.412   .     A
C708   C710    1.412   .     A
C708   C293    1.396   1_556 S
C711   H715    1.082   .     S
C712   H716    1.082   .     S
C712   C280    1.386   1_556 S
H720   C420    1.088   1_565 S
H721   N815    1.029   1_455 S
H722   N770    1.029   .     S
N723   Zn734   2.020   .     S
N723   H767    1.029   .     S
N723   N770    1.276   .     S
N724   Zn733   2.020   .     S
N724   N815    1.276   1_455 S
N724   H814    1.029   1_455 S
O725   Zn733   1.955   .     S
O726   Zn734   1.955   .     S
O727   Zn734   1.976   .     S
O728   Zn733   1.976   .     S
O729   Zn733   1.990   .     S
O730   Zn734   1.990   .     S
O731   Zn734   2.015   .     S
O732   Zn733   2.015   .     S
C737   O773    1.287   .     A
C737   C741    1.401   .     S
C737   O771    1.278   .     A
C738   O774    1.287   .     A
C738   C742    1.401   .     S
C738   O772    1.278   .     A
C739   H763    1.084   .     S
C739   C756    1.397   .     A
C739   C343    1.386   1_556 S
C740   H764    1.084   .     S
C740   C755    1.397   .     A
C741   C466    1.335   1_565 S
C741   H489    1.088   1_565 S
C743   O775    1.286   .     A
C743   C748    1.417   .     S
C743   O777    1.286   .     A
C744   C747    1.417   .     S
C744   O778    1.286   .     A
C744   O776    1.286   .     A
C745   C747    1.388   .     A
C745   H759    1.086   .     S
C745   C755    1.380   .     A
C746   H760    1.086   .     S
C746   C748    1.388   .     A
C746   C756    1.380   .     A
C747   C749    1.399   .     A
C748   C750    1.399   .     A
C749   Cl781   1.774   .     S
C749   C751    1.398   .     A
C750   Cl782   1.774   .     S
C750   C752    1.398   .     A
C751   C757    1.405   .     A
C751   C753    1.419   .     A
C752   C754    1.419   .     A
C752   C758    1.405   .     A
C753   C755    1.412   .     A
C754   C756    1.412   .     A
C754   C339    1.396   1_556 S
C757   H761    1.082   .     S
C758   H762    1.082   .     S
C758   C326    1.386   1_556 S
H766   C466    1.088   1_565 S
H768   N816    1.029   .     S
N769   Zn780   2.020   .     S
N769   H813    1.029   .     S
N769   N816    1.276   .     S
N770   Zn779   2.020   .     S
O771   Zn779   1.955   .     S
O772   Zn780   1.955   .     S
O773   Zn780   1.976   .     S
O774   Zn779   1.976   .     S
O775   Zn779   1.990   .     S
O776   Zn780   1.990   .     S
O777   Zn780   2.015   .     S
O778   Zn779   2.015   .     S
C783   O819    1.287   .     A
C783   C787    1.401   .     S
C783   O817    1.278   .     A
C784   O820    1.287   .     A
C784   C788    1.401   .     S
C784   O818    1.278   .     A
C785   H809    1.084   .     S
C785   C802    1.397   .     A
C785   C389    1.386   1_556 S
C786   H810    1.084   .     S
C786   C801    1.397   .     A
C787   C512    1.335   1_565 S
C787   H535    1.088   1_565 S
C789   O821    1.286   .     A
C789   C794    1.417   .     S
C789   O823    1.286   .     A
C790   C793    1.417   .     S
C790   O824    1.286   .     A
C790   O822    1.286   .     A
C791   C793    1.388   .     A
C791   H805    1.086   .     S
C791   C801    1.380   .     A
C792   H806    1.086   .     S
C792   C794    1.388   .     A
C792   C802    1.380   .     A
C793   C795    1.399   .     A
C794   C796    1.399   .     A
C795   Cl827   1.774   .     S
C795   C797    1.398   .     A
C796   Cl828   1.774   .     S
C796   C798    1.398   .     A
C797   C803    1.405   .     A
C797   C799    1.419   .     A
C798   C800    1.419   .     A
C798   C804    1.405   .     A
C799   C801    1.412   .     A
C800   C802    1.412   .     A
C800   C385    1.396   1_556 S
C803   H807    1.082   .     S
C804   H808    1.082   .     S
C804   C372    1.386   1_556 S
H812   C512    1.088   1_565 S
H814   N724    1.029   1_655 S
N815   Zn826   2.020   .     S
N815   H721    1.029   1_655 S
N815   N724    1.276   1_655 S
N816   Zn825   2.020   .     S
O817   Zn825   1.955   .     S
O818   Zn826   1.955   .     S
O819   Zn826   1.976   .     S
O820   Zn825   1.976   .     S
O821   Zn825   1.990   .     S
O822   Zn826   1.990   .     S
O823   Zn826   2.015   .     S
O824   Zn825   2.015   .     S
