data_str_m1_o10_o16_pcu_sym.231
_audit_creation_date              2020-01-03
_audit_creation_method            'Materials Studio'
_symmetry_space_group_name_H-M    'P1'
_symmetry_Int_Tables_number       1
_symmetry_cell_setting            triclinic
loop_
_symmetry_equiv_pos_as_xyz
  x,y,z
_cell_length_a                    32.5396
_cell_length_b                    32.5123
_cell_length_c                    31.0799
_cell_angle_alpha                 96.0201
_cell_angle_beta                  74.4640
_cell_angle_gamma                 98.4376
loop_
_atom_site_label
_atom_site_type_symbol
_atom_site_fract_x
_atom_site_fract_y
_atom_site_fract_z
_atom_site_U_iso_or_equiv
_atom_site_adp_type
_atom_site_occupancy
C1     C     0.05279   0.15978   0.25999   0.00000  Uiso   1.00
C2     C     0.16621   0.15259   0.05933   0.00000  Uiso   1.00
C3     C     0.23752   0.13645   0.05644   0.00000  Uiso   1.00
C4     C     0.28086   0.17385   0.23993   0.00000  Uiso   1.00
C5     C     0.13787   0.18876   0.42022   0.00000  Uiso   1.00
C6     C     0.32680   0.17647   0.23562   0.00000  Uiso   1.00
C7     C     0.00746   0.15752   0.26408   0.00000  Uiso   1.00
C8     C     0.18060   0.32256   0.23617   0.00000  Uiso   1.00
C9     C     0.15227   0.01178   0.26401   0.00000  Uiso   1.00
C10    C     0.15634   0.05589   0.26014   0.00000  Uiso   1.00
C11    C     0.17667   0.27796   0.24008   0.00000  Uiso   1.00
C12    C     0.08076   0.19134   0.48905   0.00000  Uiso   1.00
C13    C     0.18569   0.14837   0.12935   0.00000  Uiso   1.00
C14    C     0.14896   0.18494   0.37087   0.00000  Uiso   1.00
C15    C     0.25032   0.14219   0.01077   0.00000  Uiso   1.00
C16    C     0.19558   0.14256   0.08080   0.00000  Uiso   1.00
C17    C     0.09580   0.19567   0.44307   0.00000  Uiso   1.00
C18    C     0.10767   0.17916   0.01232   0.00000  Uiso   1.00
C19    C     0.15074   0.17286   0.49069   0.00000  Uiso   1.00
C20    C     0.16639   0.17988   0.44440   0.00000  Uiso   1.00
C21    C     0.17887   0.15982   0.01340   0.00000  Uiso   1.00
C22    C     0.22198   0.15503   0.48952   0.00000  Uiso   1.00
C23    C     0.23724   0.16486   0.44510   0.00000  Uiso   1.00
C24    C     0.21027   0.17812   0.42324   0.00000  Uiso   1.00
H25    H     0.31892   0.14038   0.29102   0.00000  Uiso   1.00
H26    H     0.01597   0.19381   0.20919   0.00000  Uiso   1.00
H27    H     0.29387   0.14936   0.07370   0.00000  Uiso   1.00
H28    H     0.27864   0.09816   0.06313   0.00000  Uiso   1.00
H29    H     0.02065   0.20453   0.49039   0.00000  Uiso   1.00
H30    H     0.03859   0.22299   0.03535   0.00000  Uiso   1.00
H31    H     0.20674   0.00380   0.21048   0.00000  Uiso   1.00
H32    H     0.12588   0.33131   0.28994   0.00000  Uiso   1.00
H33    H     0.27056   0.16304   0.42729   0.00000  Uiso   1.00
H34    H     0.28308   0.13835   0.49236   0.00000  Uiso   1.00
H35    H     0.13481   0.15740   0.08021   0.00000  Uiso   1.00
H36    H     0.07393   0.20263   0.42473   0.00000  Uiso   1.00
H37    H     0.09365   0.17496   0.04734   0.00000  Uiso   1.00
H38    H     0.22466   0.18764   0.38967   0.00000  Uiso   1.00
N39    N     0.26760   0.12603   0.07859   0.00000  Uiso   1.00
N40    N     0.03732   0.19717   0.01246   0.00000  Uiso   1.00
O41    O     0.16667   0.16667   0.25000   0.00000  Uiso   1.00
O42    O     0.15451   0.12637   0.15459   0.00000  Uiso   1.00
O43    O     0.12940   0.20391   0.34968   0.00000  Uiso   1.00
O44    O     0.20824   0.17759   0.14606   0.00000  Uiso   1.00
O45    O     0.17451   0.15880   0.34968   0.00000  Uiso   1.00
O46    O     0.17930   0.08019   0.28214   0.00000  Uiso   1.00
O47    O     0.14632   0.26085   0.27013   0.00000  Uiso   1.00
O48    O     0.07412   0.13291   0.23413   0.00000  Uiso   1.00
O49    O     0.26693   0.19272   0.21361   0.00000  Uiso   1.00
O50    O     0.07071   0.18878   0.28213   0.00000  Uiso   1.00
O51    O     0.25491   0.15226   0.27014   0.00000  Uiso   1.00
O52    O     0.13760   0.06944   0.23413   0.00000  Uiso   1.00
O53    O     0.20345   0.25620   0.21360   0.00000  Uiso   1.00
Zn54   Zn    0.19338   0.13994   0.28734   0.00000  Uiso   1.00
Zn55   Zn    0.13379   0.12458   0.21876   0.00000  Uiso   1.00
Zn56   Zn    0.21056   0.19775   0.20657   0.00000  Uiso   1.00
Zn57   Zn    0.12893   0.20439   0.28733   0.00000  Uiso   1.00
C58    C     0.38613   0.15978   0.25999   0.00000  Uiso   1.00
C59    C     0.49954   0.15259   0.05933   0.00000  Uiso   1.00
C60    C     0.57085   0.13645   0.05644   0.00000  Uiso   1.00
C61    C     0.61420   0.17385   0.23993   0.00000  Uiso   1.00
C62    C     0.47120   0.18876   0.42022   0.00000  Uiso   1.00
C63    C     0.66013   0.17647   0.23562   0.00000  Uiso   1.00
C64    C     0.34080   0.15752   0.26408   0.00000  Uiso   1.00
C65    C     0.51393   0.32256   0.23617   0.00000  Uiso   1.00
C66    C     0.48560   0.01178   0.26401   0.00000  Uiso   1.00
C67    C     0.48967   0.05589   0.26014   0.00000  Uiso   1.00
C68    C     0.51000   0.27796   0.24008   0.00000  Uiso   1.00
C69    C     0.41409   0.19134   0.48905   0.00000  Uiso   1.00
C70    C     0.51902   0.14837   0.12935   0.00000  Uiso   1.00
C71    C     0.48229   0.18494   0.37087   0.00000  Uiso   1.00
C72    C     0.58365   0.14219   0.01077   0.00000  Uiso   1.00
C73    C     0.52892   0.14256   0.08080   0.00000  Uiso   1.00
C74    C     0.42913   0.19567   0.44307   0.00000  Uiso   1.00
C75    C     0.44101   0.17916   0.01232   0.00000  Uiso   1.00
C76    C     0.48408   0.17286   0.49069   0.00000  Uiso   1.00
C77    C     0.49973   0.17988   0.44440   0.00000  Uiso   1.00
C78    C     0.51220   0.15982   0.01340   0.00000  Uiso   1.00
C79    C     0.55531   0.15503   0.48952   0.00000  Uiso   1.00
C80    C     0.57057   0.16486   0.44510   0.00000  Uiso   1.00
C81    C     0.54360   0.17812   0.42324   0.00000  Uiso   1.00
H82    H     0.65226   0.14038   0.29102   0.00000  Uiso   1.00
H83    H     0.34931   0.19381   0.20919   0.00000  Uiso   1.00
H84    H     0.62721   0.14936   0.07370   0.00000  Uiso   1.00
H85    H     0.61197   0.09816   0.06313   0.00000  Uiso   1.00
H86    H     0.35398   0.20453   0.49039   0.00000  Uiso   1.00
H87    H     0.37192   0.22299   0.03535   0.00000  Uiso   1.00
H88    H     0.54007   0.00380   0.21048   0.00000  Uiso   1.00
H89    H     0.45921   0.33131   0.28994   0.00000  Uiso   1.00
H90    H     0.60389   0.16304   0.42729   0.00000  Uiso   1.00
H91    H     0.61641   0.13835   0.49236   0.00000  Uiso   1.00
H92    H     0.46814   0.15740   0.08021   0.00000  Uiso   1.00
H93    H     0.40726   0.20263   0.42473   0.00000  Uiso   1.00
H94    H     0.42698   0.17496   0.04734   0.00000  Uiso   1.00
H95    H     0.55799   0.18764   0.38967   0.00000  Uiso   1.00
N96    N     0.60093   0.12603   0.07859   0.00000  Uiso   1.00
N97    N     0.37065   0.19717   0.01246   0.00000  Uiso   1.00
O98    O     0.50000   0.16667   0.25000   0.00000  Uiso   1.00
O99    O     0.48784   0.12637   0.15459   0.00000  Uiso   1.00
O100   O     0.46274   0.20391   0.34968   0.00000  Uiso   1.00
O101   O     0.54157   0.17759   0.14606   0.00000  Uiso   1.00
O102   O     0.50785   0.15880   0.34968   0.00000  Uiso   1.00
O103   O     0.51264   0.08019   0.28214   0.00000  Uiso   1.00
O104   O     0.47965   0.26085   0.27013   0.00000  Uiso   1.00
O105   O     0.40745   0.13291   0.23413   0.00000  Uiso   1.00
O106   O     0.60026   0.19272   0.21361   0.00000  Uiso   1.00
O107   O     0.40405   0.18878   0.28213   0.00000  Uiso   1.00
O108   O     0.58824   0.15226   0.27014   0.00000  Uiso   1.00
O109   O     0.47093   0.06944   0.23413   0.00000  Uiso   1.00
O110   O     0.53678   0.25620   0.21360   0.00000  Uiso   1.00
Zn111  Zn    0.52672   0.13994   0.28734   0.00000  Uiso   1.00
Zn112  Zn    0.46713   0.12458   0.21876   0.00000  Uiso   1.00
Zn113  Zn    0.54389   0.19775   0.20657   0.00000  Uiso   1.00
Zn114  Zn    0.46226   0.20439   0.28733   0.00000  Uiso   1.00
C115   C     0.71946   0.15978   0.25999   0.00000  Uiso   1.00
C116   C     0.83288   0.15259   0.05933   0.00000  Uiso   1.00
C117   C     0.90418   0.13645   0.05644   0.00000  Uiso   1.00
C118   C     0.94753   0.17385   0.23993   0.00000  Uiso   1.00
C119   C     0.80454   0.18876   0.42022   0.00000  Uiso   1.00
C120   C     0.99346   0.17647   0.23562   0.00000  Uiso   1.00
C121   C     0.67413   0.15752   0.26408   0.00000  Uiso   1.00
C122   C     0.84726   0.32256   0.23617   0.00000  Uiso   1.00
C123   C     0.81893   0.01178   0.26401   0.00000  Uiso   1.00
C124   C     0.82301   0.05589   0.26014   0.00000  Uiso   1.00
C125   C     0.84334   0.27796   0.24008   0.00000  Uiso   1.00
C126   C     0.74742   0.19134   0.48905   0.00000  Uiso   1.00
C127   C     0.85236   0.14837   0.12935   0.00000  Uiso   1.00
C128   C     0.81562   0.18494   0.37087   0.00000  Uiso   1.00
C129   C     0.91699   0.14219   0.01077   0.00000  Uiso   1.00
C130   C     0.86225   0.14256   0.08080   0.00000  Uiso   1.00
C131   C     0.76246   0.19567   0.44307   0.00000  Uiso   1.00
C132   C     0.77434   0.17916   0.01232   0.00000  Uiso   1.00
C133   C     0.81741   0.17286   0.49069   0.00000  Uiso   1.00
C134   C     0.83306   0.17988   0.44440   0.00000  Uiso   1.00
C135   C     0.84553   0.15982   0.01340   0.00000  Uiso   1.00
C136   C     0.88865   0.15503   0.48952   0.00000  Uiso   1.00
C137   C     0.90390   0.16486   0.44510   0.00000  Uiso   1.00
C138   C     0.87693   0.17812   0.42324   0.00000  Uiso   1.00
H139   H     0.98559   0.14038   0.29102   0.00000  Uiso   1.00
H140   H     0.68264   0.19381   0.20919   0.00000  Uiso   1.00
H141   H     0.96054   0.14936   0.07370   0.00000  Uiso   1.00
H142   H     0.94531   0.09816   0.06313   0.00000  Uiso   1.00
H143   H     0.68732   0.20453   0.49039   0.00000  Uiso   1.00
H144   H     0.70526   0.22299   0.03535   0.00000  Uiso   1.00
H145   H     0.87340   0.00380   0.21048   0.00000  Uiso   1.00
H146   H     0.79255   0.33131   0.28994   0.00000  Uiso   1.00
H147   H     0.93723   0.16304   0.42729   0.00000  Uiso   1.00
H148   H     0.94975   0.13835   0.49236   0.00000  Uiso   1.00
H149   H     0.80148   0.15740   0.08021   0.00000  Uiso   1.00
H150   H     0.74059   0.20263   0.42473   0.00000  Uiso   1.00
H151   H     0.76031   0.17496   0.04734   0.00000  Uiso   1.00
H152   H     0.89133   0.18764   0.38967   0.00000  Uiso   1.00
N153   N     0.93427   0.12603   0.07859   0.00000  Uiso   1.00
N154   N     0.70398   0.19717   0.01246   0.00000  Uiso   1.00
O155   O     0.83333   0.16667   0.25000   0.00000  Uiso   1.00
O156   O     0.82118   0.12637   0.15459   0.00000  Uiso   1.00
O157   O     0.79607   0.20391   0.34968   0.00000  Uiso   1.00
O158   O     0.87491   0.17759   0.14606   0.00000  Uiso   1.00
O159   O     0.84118   0.15880   0.34968   0.00000  Uiso   1.00
O160   O     0.84597   0.08019   0.28214   0.00000  Uiso   1.00
O161   O     0.81298   0.26085   0.27013   0.00000  Uiso   1.00
O162   O     0.74078   0.13291   0.23413   0.00000  Uiso   1.00
O163   O     0.93360   0.19272   0.21361   0.00000  Uiso   1.00
O164   O     0.73738   0.18878   0.28213   0.00000  Uiso   1.00
O165   O     0.92158   0.15226   0.27014   0.00000  Uiso   1.00
O166   O     0.80426   0.06944   0.23413   0.00000  Uiso   1.00
O167   O     0.87012   0.25620   0.21360   0.00000  Uiso   1.00
Zn168  Zn    0.86005   0.13994   0.28734   0.00000  Uiso   1.00
Zn169  Zn    0.80046   0.12458   0.21876   0.00000  Uiso   1.00
Zn170  Zn    0.87723   0.19775   0.20657   0.00000  Uiso   1.00
Zn171  Zn    0.79560   0.20439   0.28733   0.00000  Uiso   1.00
C172   C     0.05279   0.49311   0.25999   0.00000  Uiso   1.00
C173   C     0.16621   0.48592   0.05933   0.00000  Uiso   1.00
C174   C     0.23752   0.46979   0.05644   0.00000  Uiso   1.00
C175   C     0.28086   0.50718   0.23993   0.00000  Uiso   1.00
C176   C     0.13787   0.52210   0.42022   0.00000  Uiso   1.00
C177   C     0.32680   0.50980   0.23562   0.00000  Uiso   1.00
C178   C     0.00746   0.49086   0.26408   0.00000  Uiso   1.00
C179   C     0.18060   0.65589   0.23617   0.00000  Uiso   1.00
C180   C     0.15227   0.34511   0.26401   0.00000  Uiso   1.00
C181   C     0.15634   0.38923   0.26014   0.00000  Uiso   1.00
C182   C     0.17667   0.61130   0.24008   0.00000  Uiso   1.00
C183   C     0.08076   0.52468   0.48905   0.00000  Uiso   1.00
C184   C     0.18569   0.48170   0.12935   0.00000  Uiso   1.00
C185   C     0.14896   0.51827   0.37087   0.00000  Uiso   1.00
C186   C     0.25032   0.47552   0.01077   0.00000  Uiso   1.00
C187   C     0.19558   0.47590   0.08080   0.00000  Uiso   1.00
C188   C     0.09580   0.52901   0.44307   0.00000  Uiso   1.00
C189   C     0.10767   0.51249   0.01232   0.00000  Uiso   1.00
C190   C     0.15074   0.50620   0.49069   0.00000  Uiso   1.00
C191   C     0.16639   0.51321   0.44440   0.00000  Uiso   1.00
C192   C     0.17887   0.49315   0.01340   0.00000  Uiso   1.00
C193   C     0.22198   0.48836   0.48952   0.00000  Uiso   1.00
C194   C     0.23724   0.49819   0.44510   0.00000  Uiso   1.00
C195   C     0.21027   0.51145   0.42324   0.00000  Uiso   1.00
H196   H     0.31892   0.47371   0.29102   0.00000  Uiso   1.00
H197   H     0.01597   0.52714   0.20919   0.00000  Uiso   1.00
H198   H     0.29387   0.48269   0.07370   0.00000  Uiso   1.00
H199   H     0.27864   0.43149   0.06313   0.00000  Uiso   1.00
H200   H     0.02065   0.53786   0.49039   0.00000  Uiso   1.00
H201   H     0.03859   0.55632   0.03535   0.00000  Uiso   1.00
H202   H     0.20674   0.33714   0.21048   0.00000  Uiso   1.00
H203   H     0.12588   0.66464   0.28994   0.00000  Uiso   1.00
H204   H     0.27056   0.49637   0.42729   0.00000  Uiso   1.00
H205   H     0.28308   0.47168   0.49236   0.00000  Uiso   1.00
H206   H     0.13481   0.49073   0.08021   0.00000  Uiso   1.00
H207   H     0.07393   0.53596   0.42473   0.00000  Uiso   1.00
H208   H     0.09365   0.50830   0.04734   0.00000  Uiso   1.00
H209   H     0.22466   0.52097   0.38967   0.00000  Uiso   1.00
N210   N     0.26760   0.45937   0.07859   0.00000  Uiso   1.00
N211   N     0.03732   0.53050   0.01246   0.00000  Uiso   1.00
O212   O     0.16667   0.50000   0.25000   0.00000  Uiso   1.00
O213   O     0.15451   0.45970   0.15459   0.00000  Uiso   1.00
O214   O     0.12940   0.53724   0.34968   0.00000  Uiso   1.00
O215   O     0.20824   0.51092   0.14606   0.00000  Uiso   1.00
O216   O     0.17451   0.49213   0.34968   0.00000  Uiso   1.00
O217   O     0.17930   0.41352   0.28214   0.00000  Uiso   1.00
O218   O     0.14632   0.59418   0.27013   0.00000  Uiso   1.00
O219   O     0.07412   0.46625   0.23413   0.00000  Uiso   1.00
O220   O     0.26693   0.52605   0.21361   0.00000  Uiso   1.00
O221   O     0.07071   0.52211   0.28213   0.00000  Uiso   1.00
O222   O     0.25491   0.48559   0.27014   0.00000  Uiso   1.00
O223   O     0.13760   0.40277   0.23413   0.00000  Uiso   1.00
O224   O     0.20345   0.58953   0.21360   0.00000  Uiso   1.00
Zn225  Zn    0.19338   0.47327   0.28734   0.00000  Uiso   1.00
Zn226  Zn    0.13379   0.45791   0.21876   0.00000  Uiso   1.00
Zn227  Zn    0.21056   0.53109   0.20657   0.00000  Uiso   1.00
Zn228  Zn    0.12893   0.53773   0.28733   0.00000  Uiso   1.00
C229   C     0.38613   0.49311   0.25999   0.00000  Uiso   1.00
C230   C     0.49954   0.48592   0.05933   0.00000  Uiso   1.00
C231   C     0.57085   0.46979   0.05644   0.00000  Uiso   1.00
C232   C     0.61420   0.50718   0.23993   0.00000  Uiso   1.00
C233   C     0.47120   0.52210   0.42022   0.00000  Uiso   1.00
C234   C     0.66013   0.50980   0.23562   0.00000  Uiso   1.00
C235   C     0.34080   0.49086   0.26408   0.00000  Uiso   1.00
C236   C     0.51393   0.65589   0.23617   0.00000  Uiso   1.00
C237   C     0.48560   0.34511   0.26401   0.00000  Uiso   1.00
C238   C     0.48967   0.38923   0.26014   0.00000  Uiso   1.00
C239   C     0.51000   0.61130   0.24008   0.00000  Uiso   1.00
C240   C     0.41409   0.52468   0.48905   0.00000  Uiso   1.00
C241   C     0.51902   0.48170   0.12935   0.00000  Uiso   1.00
C242   C     0.48229   0.51827   0.37087   0.00000  Uiso   1.00
C243   C     0.58365   0.47552   0.01077   0.00000  Uiso   1.00
C244   C     0.52892   0.47590   0.08080   0.00000  Uiso   1.00
C245   C     0.42913   0.52901   0.44307   0.00000  Uiso   1.00
C246   C     0.44101   0.51249   0.01232   0.00000  Uiso   1.00
C247   C     0.48408   0.50620   0.49069   0.00000  Uiso   1.00
C248   C     0.49973   0.51321   0.44440   0.00000  Uiso   1.00
C249   C     0.51220   0.49315   0.01340   0.00000  Uiso   1.00
C250   C     0.55531   0.48836   0.48952   0.00000  Uiso   1.00
C251   C     0.57057   0.49819   0.44510   0.00000  Uiso   1.00
C252   C     0.54360   0.51145   0.42324   0.00000  Uiso   1.00
H253   H     0.65226   0.47371   0.29102   0.00000  Uiso   1.00
H254   H     0.34931   0.52714   0.20919   0.00000  Uiso   1.00
H255   H     0.62721   0.48269   0.07370   0.00000  Uiso   1.00
H256   H     0.61197   0.43149   0.06313   0.00000  Uiso   1.00
H257   H     0.35398   0.53786   0.49039   0.00000  Uiso   1.00
H258   H     0.37192   0.55632   0.03535   0.00000  Uiso   1.00
H259   H     0.54007   0.33714   0.21048   0.00000  Uiso   1.00
H260   H     0.45921   0.66464   0.28994   0.00000  Uiso   1.00
H261   H     0.60389   0.49637   0.42729   0.00000  Uiso   1.00
H262   H     0.61641   0.47168   0.49236   0.00000  Uiso   1.00
H263   H     0.46814   0.49073   0.08021   0.00000  Uiso   1.00
H264   H     0.40726   0.53596   0.42473   0.00000  Uiso   1.00
H265   H     0.42698   0.50830   0.04734   0.00000  Uiso   1.00
H266   H     0.55799   0.52097   0.38967   0.00000  Uiso   1.00
N267   N     0.60093   0.45937   0.07859   0.00000  Uiso   1.00
N268   N     0.37065   0.53050   0.01246   0.00000  Uiso   1.00
O269   O     0.50000   0.50000   0.25000   0.00000  Uiso   1.00
O270   O     0.48784   0.45970   0.15459   0.00000  Uiso   1.00
O271   O     0.46274   0.53724   0.34968   0.00000  Uiso   1.00
O272   O     0.54157   0.51092   0.14606   0.00000  Uiso   1.00
O273   O     0.50785   0.49213   0.34968   0.00000  Uiso   1.00
O274   O     0.51264   0.41352   0.28214   0.00000  Uiso   1.00
O275   O     0.47965   0.59418   0.27013   0.00000  Uiso   1.00
O276   O     0.40745   0.46625   0.23413   0.00000  Uiso   1.00
O277   O     0.60026   0.52605   0.21361   0.00000  Uiso   1.00
O278   O     0.40405   0.52211   0.28213   0.00000  Uiso   1.00
O279   O     0.58824   0.48559   0.27014   0.00000  Uiso   1.00
O280   O     0.47093   0.40277   0.23413   0.00000  Uiso   1.00
O281   O     0.53678   0.58953   0.21360   0.00000  Uiso   1.00
Zn282  Zn    0.52672   0.47327   0.28734   0.00000  Uiso   1.00
Zn283  Zn    0.46713   0.45791   0.21876   0.00000  Uiso   1.00
Zn284  Zn    0.54389   0.53109   0.20657   0.00000  Uiso   1.00
Zn285  Zn    0.46226   0.53773   0.28733   0.00000  Uiso   1.00
C286   C     0.71946   0.49311   0.25999   0.00000  Uiso   1.00
C287   C     0.83288   0.48592   0.05933   0.00000  Uiso   1.00
C288   C     0.90418   0.46979   0.05644   0.00000  Uiso   1.00
C289   C     0.94753   0.50718   0.23993   0.00000  Uiso   1.00
C290   C     0.80454   0.52210   0.42022   0.00000  Uiso   1.00
C291   C     0.99346   0.50980   0.23562   0.00000  Uiso   1.00
C292   C     0.67413   0.49086   0.26408   0.00000  Uiso   1.00
C293   C     0.84726   0.65589   0.23617   0.00000  Uiso   1.00
C294   C     0.81893   0.34511   0.26401   0.00000  Uiso   1.00
C295   C     0.82301   0.38923   0.26014   0.00000  Uiso   1.00
C296   C     0.84334   0.61130   0.24008   0.00000  Uiso   1.00
C297   C     0.74742   0.52468   0.48905   0.00000  Uiso   1.00
C298   C     0.85236   0.48170   0.12935   0.00000  Uiso   1.00
C299   C     0.81562   0.51827   0.37087   0.00000  Uiso   1.00
C300   C     0.91699   0.47552   0.01077   0.00000  Uiso   1.00
C301   C     0.86225   0.47590   0.08080   0.00000  Uiso   1.00
C302   C     0.76246   0.52901   0.44307   0.00000  Uiso   1.00
C303   C     0.77434   0.51249   0.01232   0.00000  Uiso   1.00
C304   C     0.81741   0.50620   0.49069   0.00000  Uiso   1.00
C305   C     0.83306   0.51321   0.44440   0.00000  Uiso   1.00
C306   C     0.84553   0.49315   0.01340   0.00000  Uiso   1.00
C307   C     0.88865   0.48836   0.48952   0.00000  Uiso   1.00
C308   C     0.90390   0.49819   0.44510   0.00000  Uiso   1.00
C309   C     0.87693   0.51145   0.42324   0.00000  Uiso   1.00
H310   H     0.98559   0.47371   0.29102   0.00000  Uiso   1.00
H311   H     0.68264   0.52714   0.20919   0.00000  Uiso   1.00
H312   H     0.96054   0.48269   0.07370   0.00000  Uiso   1.00
H313   H     0.94531   0.43149   0.06313   0.00000  Uiso   1.00
H314   H     0.68732   0.53786   0.49039   0.00000  Uiso   1.00
H315   H     0.70526   0.55632   0.03535   0.00000  Uiso   1.00
H316   H     0.87340   0.33714   0.21048   0.00000  Uiso   1.00
H317   H     0.79255   0.66464   0.28994   0.00000  Uiso   1.00
H318   H     0.93723   0.49637   0.42729   0.00000  Uiso   1.00
H319   H     0.94975   0.47168   0.49236   0.00000  Uiso   1.00
H320   H     0.80148   0.49073   0.08021   0.00000  Uiso   1.00
H321   H     0.74059   0.53596   0.42473   0.00000  Uiso   1.00
H322   H     0.76031   0.50830   0.04734   0.00000  Uiso   1.00
H323   H     0.89133   0.52097   0.38967   0.00000  Uiso   1.00
N324   N     0.93427   0.45937   0.07859   0.00000  Uiso   1.00
N325   N     0.70398   0.53050   0.01246   0.00000  Uiso   1.00
O326   O     0.83333   0.50000   0.25000   0.00000  Uiso   1.00
O327   O     0.82118   0.45970   0.15459   0.00000  Uiso   1.00
O328   O     0.79607   0.53724   0.34968   0.00000  Uiso   1.00
O329   O     0.87491   0.51092   0.14606   0.00000  Uiso   1.00
O330   O     0.84118   0.49213   0.34968   0.00000  Uiso   1.00
O331   O     0.84597   0.41352   0.28214   0.00000  Uiso   1.00
O332   O     0.81298   0.59418   0.27013   0.00000  Uiso   1.00
O333   O     0.74078   0.46625   0.23413   0.00000  Uiso   1.00
O334   O     0.93360   0.52605   0.21361   0.00000  Uiso   1.00
O335   O     0.73738   0.52211   0.28213   0.00000  Uiso   1.00
O336   O     0.92158   0.48559   0.27014   0.00000  Uiso   1.00
O337   O     0.80426   0.40277   0.23413   0.00000  Uiso   1.00
O338   O     0.87012   0.58953   0.21360   0.00000  Uiso   1.00
Zn339  Zn    0.86005   0.47327   0.28734   0.00000  Uiso   1.00
Zn340  Zn    0.80046   0.45791   0.21876   0.00000  Uiso   1.00
Zn341  Zn    0.87723   0.53109   0.20657   0.00000  Uiso   1.00
Zn342  Zn    0.79560   0.53773   0.28733   0.00000  Uiso   1.00
C343   C     0.05279   0.82644   0.25999   0.00000  Uiso   1.00
C344   C     0.16621   0.81926   0.05933   0.00000  Uiso   1.00
C345   C     0.23752   0.80312   0.05644   0.00000  Uiso   1.00
C346   C     0.28086   0.84051   0.23993   0.00000  Uiso   1.00
C347   C     0.13787   0.85543   0.42022   0.00000  Uiso   1.00
C348   C     0.32680   0.84313   0.23562   0.00000  Uiso   1.00
C349   C     0.00746   0.82419   0.26408   0.00000  Uiso   1.00
C350   C     0.18060   0.98922   0.23617   0.00000  Uiso   1.00
C351   C     0.15227   0.67845   0.26401   0.00000  Uiso   1.00
C352   C     0.15634   0.72256   0.26014   0.00000  Uiso   1.00
C353   C     0.17667   0.94463   0.24008   0.00000  Uiso   1.00
C354   C     0.08076   0.85801   0.48905   0.00000  Uiso   1.00
C355   C     0.18569   0.81504   0.12935   0.00000  Uiso   1.00
C356   C     0.14896   0.85161   0.37087   0.00000  Uiso   1.00
C357   C     0.25032   0.80886   0.01077   0.00000  Uiso   1.00
C358   C     0.19558   0.80923   0.08080   0.00000  Uiso   1.00
C359   C     0.09580   0.86234   0.44307   0.00000  Uiso   1.00
C360   C     0.10767   0.84583   0.01232   0.00000  Uiso   1.00
C361   C     0.15074   0.83953   0.49069   0.00000  Uiso   1.00
C362   C     0.16639   0.84655   0.44440   0.00000  Uiso   1.00
C363   C     0.17887   0.82648   0.01340   0.00000  Uiso   1.00
C364   C     0.22198   0.82170   0.48952   0.00000  Uiso   1.00
C365   C     0.23724   0.83153   0.44510   0.00000  Uiso   1.00
C366   C     0.21027   0.84479   0.42324   0.00000  Uiso   1.00
H367   H     0.31892   0.80705   0.29102   0.00000  Uiso   1.00
H368   H     0.01597   0.86048   0.20919   0.00000  Uiso   1.00
H369   H     0.29387   0.81603   0.07370   0.00000  Uiso   1.00
H370   H     0.27864   0.76482   0.06313   0.00000  Uiso   1.00
H371   H     0.02065   0.87120   0.49039   0.00000  Uiso   1.00
H372   H     0.03859   0.88965   0.03535   0.00000  Uiso   1.00
H373   H     0.20674   0.67047   0.21048   0.00000  Uiso   1.00
H374   H     0.12588   0.99797   0.28994   0.00000  Uiso   1.00
H375   H     0.27056   0.82970   0.42729   0.00000  Uiso   1.00
H376   H     0.28308   0.80501   0.49236   0.00000  Uiso   1.00
H377   H     0.13481   0.82407   0.08021   0.00000  Uiso   1.00
H378   H     0.07393   0.86930   0.42473   0.00000  Uiso   1.00
H379   H     0.09365   0.84163   0.04734   0.00000  Uiso   1.00
H380   H     0.22466   0.85430   0.38967   0.00000  Uiso   1.00
N381   N     0.26760   0.79270   0.07859   0.00000  Uiso   1.00
N382   N     0.03732   0.86383   0.01246   0.00000  Uiso   1.00
O383   O     0.16667   0.83333   0.25000   0.00000  Uiso   1.00
O384   O     0.15451   0.79304   0.15459   0.00000  Uiso   1.00
O385   O     0.12940   0.87058   0.34968   0.00000  Uiso   1.00
O386   O     0.20824   0.84425   0.14606   0.00000  Uiso   1.00
O387   O     0.17451   0.82546   0.34968   0.00000  Uiso   1.00
O388   O     0.17930   0.74686   0.28214   0.00000  Uiso   1.00
O389   O     0.14632   0.92751   0.27013   0.00000  Uiso   1.00
O390   O     0.07412   0.79958   0.23413   0.00000  Uiso   1.00
O391   O     0.26693   0.85939   0.21361   0.00000  Uiso   1.00
O392   O     0.07071   0.85544   0.28213   0.00000  Uiso   1.00
O393   O     0.25491   0.81892   0.27014   0.00000  Uiso   1.00
O394   O     0.13760   0.73610   0.23413   0.00000  Uiso   1.00
O395   O     0.20345   0.92286   0.21360   0.00000  Uiso   1.00
Zn396  Zn    0.19338   0.80661   0.28734   0.00000  Uiso   1.00
Zn397  Zn    0.13379   0.79124   0.21876   0.00000  Uiso   1.00
Zn398  Zn    0.21056   0.86442   0.20657   0.00000  Uiso   1.00
Zn399  Zn    0.12893   0.87106   0.28733   0.00000  Uiso   1.00
C400   C     0.38613   0.82644   0.25999   0.00000  Uiso   1.00
C401   C     0.49954   0.81926   0.05933   0.00000  Uiso   1.00
C402   C     0.57085   0.80312   0.05644   0.00000  Uiso   1.00
C403   C     0.61420   0.84051   0.23993   0.00000  Uiso   1.00
C404   C     0.47120   0.85543   0.42022   0.00000  Uiso   1.00
C405   C     0.66013   0.84313   0.23562   0.00000  Uiso   1.00
C406   C     0.34080   0.82419   0.26408   0.00000  Uiso   1.00
C407   C     0.51393   0.98922   0.23617   0.00000  Uiso   1.00
C408   C     0.48560   0.67845   0.26401   0.00000  Uiso   1.00
C409   C     0.48967   0.72256   0.26014   0.00000  Uiso   1.00
C410   C     0.51000   0.94463   0.24008   0.00000  Uiso   1.00
C411   C     0.41409   0.85801   0.48905   0.00000  Uiso   1.00
C412   C     0.51902   0.81504   0.12935   0.00000  Uiso   1.00
C413   C     0.48229   0.85161   0.37087   0.00000  Uiso   1.00
C414   C     0.58365   0.80886   0.01077   0.00000  Uiso   1.00
C415   C     0.52892   0.80923   0.08080   0.00000  Uiso   1.00
C416   C     0.42913   0.86234   0.44307   0.00000  Uiso   1.00
C417   C     0.44101   0.84583   0.01232   0.00000  Uiso   1.00
C418   C     0.48408   0.83953   0.49069   0.00000  Uiso   1.00
C419   C     0.49973   0.84655   0.44440   0.00000  Uiso   1.00
C420   C     0.51220   0.82648   0.01340   0.00000  Uiso   1.00
C421   C     0.55531   0.82170   0.48952   0.00000  Uiso   1.00
C422   C     0.57057   0.83153   0.44510   0.00000  Uiso   1.00
C423   C     0.54360   0.84479   0.42324   0.00000  Uiso   1.00
H424   H     0.65226   0.80705   0.29102   0.00000  Uiso   1.00
H425   H     0.34931   0.86048   0.20919   0.00000  Uiso   1.00
H426   H     0.62721   0.81603   0.07370   0.00000  Uiso   1.00
H427   H     0.61197   0.76482   0.06313   0.00000  Uiso   1.00
H428   H     0.35398   0.87120   0.49039   0.00000  Uiso   1.00
H429   H     0.37192   0.88965   0.03535   0.00000  Uiso   1.00
H430   H     0.54007   0.67047   0.21048   0.00000  Uiso   1.00
H431   H     0.45921   0.99797   0.28994   0.00000  Uiso   1.00
H432   H     0.60389   0.82970   0.42729   0.00000  Uiso   1.00
H433   H     0.61641   0.80501   0.49236   0.00000  Uiso   1.00
H434   H     0.46814   0.82407   0.08021   0.00000  Uiso   1.00
H435   H     0.40726   0.86930   0.42473   0.00000  Uiso   1.00
H436   H     0.42698   0.84163   0.04734   0.00000  Uiso   1.00
H437   H     0.55799   0.85430   0.38967   0.00000  Uiso   1.00
N438   N     0.60093   0.79270   0.07859   0.00000  Uiso   1.00
N439   N     0.37065   0.86383   0.01246   0.00000  Uiso   1.00
O440   O     0.50000   0.83333   0.25000   0.00000  Uiso   1.00
O441   O     0.48784   0.79304   0.15459   0.00000  Uiso   1.00
O442   O     0.46274   0.87058   0.34968   0.00000  Uiso   1.00
O443   O     0.54157   0.84425   0.14606   0.00000  Uiso   1.00
O444   O     0.50785   0.82546   0.34968   0.00000  Uiso   1.00
O445   O     0.51264   0.74686   0.28214   0.00000  Uiso   1.00
O446   O     0.47965   0.92751   0.27013   0.00000  Uiso   1.00
O447   O     0.40745   0.79958   0.23413   0.00000  Uiso   1.00
O448   O     0.60026   0.85939   0.21361   0.00000  Uiso   1.00
O449   O     0.40405   0.85544   0.28213   0.00000  Uiso   1.00
O450   O     0.58824   0.81892   0.27014   0.00000  Uiso   1.00
O451   O     0.47093   0.73610   0.23413   0.00000  Uiso   1.00
O452   O     0.53678   0.92286   0.21360   0.00000  Uiso   1.00
Zn453  Zn    0.52672   0.80661   0.28734   0.00000  Uiso   1.00
Zn454  Zn    0.46713   0.79124   0.21876   0.00000  Uiso   1.00
Zn455  Zn    0.54389   0.86442   0.20657   0.00000  Uiso   1.00
Zn456  Zn    0.46226   0.87106   0.28733   0.00000  Uiso   1.00
C457   C     0.71946   0.82644   0.25999   0.00000  Uiso   1.00
C458   C     0.83288   0.81926   0.05933   0.00000  Uiso   1.00
C459   C     0.90418   0.80312   0.05644   0.00000  Uiso   1.00
C460   C     0.94753   0.84051   0.23993   0.00000  Uiso   1.00
C461   C     0.80454   0.85543   0.42022   0.00000  Uiso   1.00
C462   C     0.99346   0.84313   0.23562   0.00000  Uiso   1.00
C463   C     0.67413   0.82419   0.26408   0.00000  Uiso   1.00
C464   C     0.84726   0.98922   0.23617   0.00000  Uiso   1.00
C465   C     0.81893   0.67845   0.26401   0.00000  Uiso   1.00
C466   C     0.82301   0.72256   0.26014   0.00000  Uiso   1.00
C467   C     0.84334   0.94463   0.24008   0.00000  Uiso   1.00
C468   C     0.74742   0.85801   0.48905   0.00000  Uiso   1.00
C469   C     0.85236   0.81504   0.12935   0.00000  Uiso   1.00
C470   C     0.81562   0.85161   0.37087   0.00000  Uiso   1.00
C471   C     0.91699   0.80886   0.01077   0.00000  Uiso   1.00
C472   C     0.86225   0.80923   0.08080   0.00000  Uiso   1.00
C473   C     0.76246   0.86234   0.44307   0.00000  Uiso   1.00
C474   C     0.77434   0.84583   0.01232   0.00000  Uiso   1.00
C475   C     0.81741   0.83953   0.49069   0.00000  Uiso   1.00
C476   C     0.83306   0.84655   0.44440   0.00000  Uiso   1.00
C477   C     0.84553   0.82648   0.01340   0.00000  Uiso   1.00
C478   C     0.88865   0.82170   0.48952   0.00000  Uiso   1.00
C479   C     0.90390   0.83153   0.44510   0.00000  Uiso   1.00
C480   C     0.87693   0.84479   0.42324   0.00000  Uiso   1.00
H481   H     0.98559   0.80705   0.29102   0.00000  Uiso   1.00
H482   H     0.68264   0.86048   0.20919   0.00000  Uiso   1.00
H483   H     0.96054   0.81603   0.07370   0.00000  Uiso   1.00
H484   H     0.94531   0.76482   0.06313   0.00000  Uiso   1.00
H485   H     0.68732   0.87120   0.49039   0.00000  Uiso   1.00
H486   H     0.70526   0.88965   0.03535   0.00000  Uiso   1.00
H487   H     0.87340   0.67047   0.21048   0.00000  Uiso   1.00
H488   H     0.79255   0.99797   0.28994   0.00000  Uiso   1.00
H489   H     0.93723   0.82970   0.42729   0.00000  Uiso   1.00
H490   H     0.94975   0.80501   0.49236   0.00000  Uiso   1.00
H491   H     0.80148   0.82407   0.08021   0.00000  Uiso   1.00
H492   H     0.74059   0.86930   0.42473   0.00000  Uiso   1.00
H493   H     0.76031   0.84163   0.04734   0.00000  Uiso   1.00
H494   H     0.89133   0.85430   0.38967   0.00000  Uiso   1.00
N495   N     0.93427   0.79270   0.07859   0.00000  Uiso   1.00
N496   N     0.70398   0.86383   0.01246   0.00000  Uiso   1.00
O497   O     0.83333   0.83333   0.25000   0.00000  Uiso   1.00
O498   O     0.82118   0.79304   0.15459   0.00000  Uiso   1.00
O499   O     0.79607   0.87058   0.34968   0.00000  Uiso   1.00
O500   O     0.87491   0.84425   0.14606   0.00000  Uiso   1.00
O501   O     0.84118   0.82546   0.34968   0.00000  Uiso   1.00
O502   O     0.84597   0.74686   0.28214   0.00000  Uiso   1.00
O503   O     0.81298   0.92751   0.27013   0.00000  Uiso   1.00
O504   O     0.74078   0.79958   0.23413   0.00000  Uiso   1.00
O505   O     0.93360   0.85939   0.21361   0.00000  Uiso   1.00
O506   O     0.73738   0.85544   0.28213   0.00000  Uiso   1.00
O507   O     0.92158   0.81892   0.27014   0.00000  Uiso   1.00
O508   O     0.80426   0.73610   0.23413   0.00000  Uiso   1.00
O509   O     0.87012   0.92286   0.21360   0.00000  Uiso   1.00
Zn510  Zn    0.86005   0.80661   0.28734   0.00000  Uiso   1.00
Zn511  Zn    0.80046   0.79124   0.21876   0.00000  Uiso   1.00
Zn512  Zn    0.87723   0.86442   0.20657   0.00000  Uiso   1.00
Zn513  Zn    0.79560   0.87106   0.28733   0.00000  Uiso   1.00
C514   C     0.05279   0.15978   0.75999   0.00000  Uiso   1.00
C515   C     0.16621   0.15259   0.55933   0.00000  Uiso   1.00
C516   C     0.23752   0.13645   0.55644   0.00000  Uiso   1.00
C517   C     0.28086   0.17385   0.73993   0.00000  Uiso   1.00
C518   C     0.13787   0.18876   0.92022   0.00000  Uiso   1.00
C519   C     0.32680   0.17647   0.73562   0.00000  Uiso   1.00
C520   C     0.00746   0.15752   0.76408   0.00000  Uiso   1.00
C521   C     0.18060   0.32256   0.73617   0.00000  Uiso   1.00
C522   C     0.15227   0.01178   0.76401   0.00000  Uiso   1.00
C523   C     0.15634   0.05589   0.76014   0.00000  Uiso   1.00
C524   C     0.17667   0.27796   0.74008   0.00000  Uiso   1.00
C525   C     0.08076   0.19134   0.98905   0.00000  Uiso   1.00
C526   C     0.18569   0.14837   0.62935   0.00000  Uiso   1.00
C527   C     0.14896   0.18494   0.87087   0.00000  Uiso   1.00
C528   C     0.25032   0.14219   0.51077   0.00000  Uiso   1.00
C529   C     0.19558   0.14256   0.58080   0.00000  Uiso   1.00
C530   C     0.09580   0.19567   0.94307   0.00000  Uiso   1.00
C531   C     0.10767   0.17916   0.51232   0.00000  Uiso   1.00
C532   C     0.15074   0.17286   0.99069   0.00000  Uiso   1.00
C533   C     0.16639   0.17988   0.94440   0.00000  Uiso   1.00
C534   C     0.17887   0.15982   0.51340   0.00000  Uiso   1.00
C535   C     0.22198   0.15503   0.98952   0.00000  Uiso   1.00
C536   C     0.23724   0.16486   0.94510   0.00000  Uiso   1.00
C537   C     0.21027   0.17812   0.92324   0.00000  Uiso   1.00
H538   H     0.31892   0.14038   0.79102   0.00000  Uiso   1.00
H539   H     0.01597   0.19381   0.70919   0.00000  Uiso   1.00
H540   H     0.29387   0.14936   0.57370   0.00000  Uiso   1.00
H541   H     0.27864   0.09816   0.56313   0.00000  Uiso   1.00
H542   H     0.02065   0.20453   0.99039   0.00000  Uiso   1.00
H543   H     0.03859   0.22299   0.53535   0.00000  Uiso   1.00
H544   H     0.20674   0.00380   0.71048   0.00000  Uiso   1.00
H545   H     0.12588   0.33131   0.78994   0.00000  Uiso   1.00
H546   H     0.27056   0.16304   0.92729   0.00000  Uiso   1.00
H547   H     0.28308   0.13835   0.99236   0.00000  Uiso   1.00
H548   H     0.13481   0.15740   0.58021   0.00000  Uiso   1.00
H549   H     0.07393   0.20263   0.92473   0.00000  Uiso   1.00
H550   H     0.09365   0.17496   0.54734   0.00000  Uiso   1.00
H551   H     0.22466   0.18764   0.88967   0.00000  Uiso   1.00
N552   N     0.26760   0.12603   0.57859   0.00000  Uiso   1.00
N553   N     0.03732   0.19717   0.51246   0.00000  Uiso   1.00
O554   O     0.16667   0.16667   0.75000   0.00000  Uiso   1.00
O555   O     0.15451   0.12637   0.65459   0.00000  Uiso   1.00
O556   O     0.12940   0.20391   0.84968   0.00000  Uiso   1.00
O557   O     0.20824   0.17759   0.64606   0.00000  Uiso   1.00
O558   O     0.17451   0.15880   0.84968   0.00000  Uiso   1.00
O559   O     0.17930   0.08019   0.78214   0.00000  Uiso   1.00
O560   O     0.14632   0.26085   0.77013   0.00000  Uiso   1.00
O561   O     0.07412   0.13291   0.73413   0.00000  Uiso   1.00
O562   O     0.26693   0.19272   0.71361   0.00000  Uiso   1.00
O563   O     0.07071   0.18878   0.78213   0.00000  Uiso   1.00
O564   O     0.25491   0.15226   0.77014   0.00000  Uiso   1.00
O565   O     0.13760   0.06944   0.73413   0.00000  Uiso   1.00
O566   O     0.20345   0.25620   0.71360   0.00000  Uiso   1.00
Zn567  Zn    0.19338   0.13994   0.78734   0.00000  Uiso   1.00
Zn568  Zn    0.13379   0.12458   0.71876   0.00000  Uiso   1.00
Zn569  Zn    0.21056   0.19775   0.70657   0.00000  Uiso   1.00
Zn570  Zn    0.12893   0.20439   0.78733   0.00000  Uiso   1.00
C571   C     0.38613   0.15978   0.75999   0.00000  Uiso   1.00
C572   C     0.49954   0.15259   0.55933   0.00000  Uiso   1.00
C573   C     0.57085   0.13645   0.55644   0.00000  Uiso   1.00
C574   C     0.61420   0.17385   0.73993   0.00000  Uiso   1.00
C575   C     0.47120   0.18876   0.92022   0.00000  Uiso   1.00
C576   C     0.66013   0.17647   0.73562   0.00000  Uiso   1.00
C577   C     0.34080   0.15752   0.76408   0.00000  Uiso   1.00
C578   C     0.51393   0.32256   0.73617   0.00000  Uiso   1.00
C579   C     0.48560   0.01178   0.76401   0.00000  Uiso   1.00
C580   C     0.48967   0.05589   0.76014   0.00000  Uiso   1.00
C581   C     0.51000   0.27796   0.74008   0.00000  Uiso   1.00
C582   C     0.41409   0.19134   0.98905   0.00000  Uiso   1.00
C583   C     0.51902   0.14837   0.62935   0.00000  Uiso   1.00
C584   C     0.48229   0.18494   0.87087   0.00000  Uiso   1.00
C585   C     0.58365   0.14219   0.51077   0.00000  Uiso   1.00
C586   C     0.52892   0.14256   0.58080   0.00000  Uiso   1.00
C587   C     0.42913   0.19567   0.94307   0.00000  Uiso   1.00
C588   C     0.44101   0.17916   0.51232   0.00000  Uiso   1.00
C589   C     0.48408   0.17286   0.99069   0.00000  Uiso   1.00
C590   C     0.49973   0.17988   0.94440   0.00000  Uiso   1.00
C591   C     0.51220   0.15982   0.51340   0.00000  Uiso   1.00
C592   C     0.55531   0.15503   0.98952   0.00000  Uiso   1.00
C593   C     0.57057   0.16486   0.94510   0.00000  Uiso   1.00
C594   C     0.54360   0.17812   0.92324   0.00000  Uiso   1.00
H595   H     0.65226   0.14038   0.79102   0.00000  Uiso   1.00
H596   H     0.34931   0.19381   0.70919   0.00000  Uiso   1.00
H597   H     0.62721   0.14936   0.57370   0.00000  Uiso   1.00
H598   H     0.61197   0.09816   0.56313   0.00000  Uiso   1.00
H599   H     0.35398   0.20453   0.99039   0.00000  Uiso   1.00
H600   H     0.37192   0.22299   0.53535   0.00000  Uiso   1.00
H601   H     0.54007   0.00380   0.71048   0.00000  Uiso   1.00
H602   H     0.45921   0.33131   0.78994   0.00000  Uiso   1.00
H603   H     0.60389   0.16304   0.92729   0.00000  Uiso   1.00
H604   H     0.61641   0.13835   0.99236   0.00000  Uiso   1.00
H605   H     0.46814   0.15740   0.58021   0.00000  Uiso   1.00
H606   H     0.40726   0.20263   0.92473   0.00000  Uiso   1.00
H607   H     0.42698   0.17496   0.54734   0.00000  Uiso   1.00
H608   H     0.55799   0.18764   0.88967   0.00000  Uiso   1.00
N609   N     0.60093   0.12603   0.57859   0.00000  Uiso   1.00
N610   N     0.37065   0.19717   0.51246   0.00000  Uiso   1.00
O611   O     0.50000   0.16667   0.75000   0.00000  Uiso   1.00
O612   O     0.48784   0.12637   0.65459   0.00000  Uiso   1.00
O613   O     0.46274   0.20391   0.84968   0.00000  Uiso   1.00
O614   O     0.54157   0.17759   0.64606   0.00000  Uiso   1.00
O615   O     0.50785   0.15880   0.84968   0.00000  Uiso   1.00
O616   O     0.51264   0.08019   0.78214   0.00000  Uiso   1.00
O617   O     0.47965   0.26085   0.77013   0.00000  Uiso   1.00
O618   O     0.40745   0.13291   0.73413   0.00000  Uiso   1.00
O619   O     0.60026   0.19272   0.71361   0.00000  Uiso   1.00
O620   O     0.40405   0.18878   0.78213   0.00000  Uiso   1.00
O621   O     0.58824   0.15226   0.77014   0.00000  Uiso   1.00
O622   O     0.47093   0.06944   0.73413   0.00000  Uiso   1.00
O623   O     0.53678   0.25620   0.71360   0.00000  Uiso   1.00
Zn624  Zn    0.52672   0.13994   0.78734   0.00000  Uiso   1.00
Zn625  Zn    0.46713   0.12458   0.71876   0.00000  Uiso   1.00
Zn626  Zn    0.54389   0.19775   0.70657   0.00000  Uiso   1.00
Zn627  Zn    0.46226   0.20439   0.78733   0.00000  Uiso   1.00
C628   C     0.71946   0.15978   0.75999   0.00000  Uiso   1.00
C629   C     0.83288   0.15259   0.55933   0.00000  Uiso   1.00
C630   C     0.90418   0.13645   0.55644   0.00000  Uiso   1.00
C631   C     0.94753   0.17385   0.73993   0.00000  Uiso   1.00
C632   C     0.80454   0.18876   0.92022   0.00000  Uiso   1.00
C633   C     0.99346   0.17647   0.73562   0.00000  Uiso   1.00
C634   C     0.67413   0.15752   0.76408   0.00000  Uiso   1.00
C635   C     0.84726   0.32256   0.73617   0.00000  Uiso   1.00
C636   C     0.81893   0.01178   0.76401   0.00000  Uiso   1.00
C637   C     0.82301   0.05589   0.76014   0.00000  Uiso   1.00
C638   C     0.84334   0.27796   0.74008   0.00000  Uiso   1.00
C639   C     0.74742   0.19134   0.98905   0.00000  Uiso   1.00
C640   C     0.85236   0.14837   0.62935   0.00000  Uiso   1.00
C641   C     0.81562   0.18494   0.87087   0.00000  Uiso   1.00
C642   C     0.91699   0.14219   0.51077   0.00000  Uiso   1.00
C643   C     0.86225   0.14256   0.58080   0.00000  Uiso   1.00
C644   C     0.76246   0.19567   0.94307   0.00000  Uiso   1.00
C645   C     0.77434   0.17916   0.51232   0.00000  Uiso   1.00
C646   C     0.81741   0.17286   0.99069   0.00000  Uiso   1.00
C647   C     0.83306   0.17988   0.94440   0.00000  Uiso   1.00
C648   C     0.84553   0.15982   0.51340   0.00000  Uiso   1.00
C649   C     0.88865   0.15503   0.98952   0.00000  Uiso   1.00
C650   C     0.90390   0.16486   0.94510   0.00000  Uiso   1.00
C651   C     0.87693   0.17812   0.92324   0.00000  Uiso   1.00
H652   H     0.98559   0.14038   0.79102   0.00000  Uiso   1.00
H653   H     0.68264   0.19381   0.70919   0.00000  Uiso   1.00
H654   H     0.96054   0.14936   0.57370   0.00000  Uiso   1.00
H655   H     0.94531   0.09816   0.56313   0.00000  Uiso   1.00
H656   H     0.68732   0.20453   0.99039   0.00000  Uiso   1.00
H657   H     0.70526   0.22299   0.53535   0.00000  Uiso   1.00
H658   H     0.87340   0.00380   0.71048   0.00000  Uiso   1.00
H659   H     0.79255   0.33131   0.78994   0.00000  Uiso   1.00
H660   H     0.93723   0.16304   0.92729   0.00000  Uiso   1.00
H661   H     0.94975   0.13835   0.99236   0.00000  Uiso   1.00
H662   H     0.80148   0.15740   0.58021   0.00000  Uiso   1.00
H663   H     0.74059   0.20263   0.92473   0.00000  Uiso   1.00
H664   H     0.76031   0.17496   0.54734   0.00000  Uiso   1.00
H665   H     0.89133   0.18764   0.88967   0.00000  Uiso   1.00
N666   N     0.93427   0.12603   0.57859   0.00000  Uiso   1.00
N667   N     0.70398   0.19717   0.51246   0.00000  Uiso   1.00
O668   O     0.83333   0.16667   0.75000   0.00000  Uiso   1.00
O669   O     0.82118   0.12637   0.65459   0.00000  Uiso   1.00
O670   O     0.79607   0.20391   0.84968   0.00000  Uiso   1.00
O671   O     0.87491   0.17759   0.64606   0.00000  Uiso   1.00
O672   O     0.84118   0.15880   0.84968   0.00000  Uiso   1.00
O673   O     0.84597   0.08019   0.78214   0.00000  Uiso   1.00
O674   O     0.81298   0.26085   0.77013   0.00000  Uiso   1.00
O675   O     0.74078   0.13291   0.73413   0.00000  Uiso   1.00
O676   O     0.93360   0.19272   0.71361   0.00000  Uiso   1.00
O677   O     0.73738   0.18878   0.78213   0.00000  Uiso   1.00
O678   O     0.92158   0.15226   0.77014   0.00000  Uiso   1.00
O679   O     0.80426   0.06944   0.73413   0.00000  Uiso   1.00
O680   O     0.87012   0.25620   0.71360   0.00000  Uiso   1.00
Zn681  Zn    0.86005   0.13994   0.78734   0.00000  Uiso   1.00
Zn682  Zn    0.80046   0.12458   0.71876   0.00000  Uiso   1.00
Zn683  Zn    0.87723   0.19775   0.70657   0.00000  Uiso   1.00
Zn684  Zn    0.79560   0.20439   0.78733   0.00000  Uiso   1.00
C685   C     0.05279   0.49311   0.75999   0.00000  Uiso   1.00
C686   C     0.16621   0.48592   0.55933   0.00000  Uiso   1.00
C687   C     0.23752   0.46979   0.55644   0.00000  Uiso   1.00
C688   C     0.28086   0.50718   0.73993   0.00000  Uiso   1.00
C689   C     0.13787   0.52210   0.92022   0.00000  Uiso   1.00
C690   C     0.32680   0.50980   0.73562   0.00000  Uiso   1.00
C691   C     0.00746   0.49086   0.76408   0.00000  Uiso   1.00
C692   C     0.18060   0.65589   0.73617   0.00000  Uiso   1.00
C693   C     0.15227   0.34511   0.76401   0.00000  Uiso   1.00
C694   C     0.15634   0.38923   0.76014   0.00000  Uiso   1.00
C695   C     0.17667   0.61130   0.74008   0.00000  Uiso   1.00
C696   C     0.08076   0.52468   0.98905   0.00000  Uiso   1.00
C697   C     0.18569   0.48170   0.62935   0.00000  Uiso   1.00
C698   C     0.14896   0.51827   0.87087   0.00000  Uiso   1.00
C699   C     0.25032   0.47552   0.51077   0.00000  Uiso   1.00
C700   C     0.19558   0.47590   0.58080   0.00000  Uiso   1.00
C701   C     0.09580   0.52901   0.94307   0.00000  Uiso   1.00
C702   C     0.10767   0.51249   0.51232   0.00000  Uiso   1.00
C703   C     0.15074   0.50620   0.99069   0.00000  Uiso   1.00
C704   C     0.16639   0.51321   0.94440   0.00000  Uiso   1.00
C705   C     0.17887   0.49315   0.51340   0.00000  Uiso   1.00
C706   C     0.22198   0.48836   0.98952   0.00000  Uiso   1.00
C707   C     0.23724   0.49819   0.94510   0.00000  Uiso   1.00
C708   C     0.21027   0.51145   0.92324   0.00000  Uiso   1.00
H709   H     0.31892   0.47371   0.79102   0.00000  Uiso   1.00
H710   H     0.01597   0.52714   0.70919   0.00000  Uiso   1.00
H711   H     0.29387   0.48269   0.57370   0.00000  Uiso   1.00
H712   H     0.27864   0.43149   0.56313   0.00000  Uiso   1.00
H713   H     0.02065   0.53786   0.99039   0.00000  Uiso   1.00
H714   H     0.03859   0.55632   0.53535   0.00000  Uiso   1.00
H715   H     0.20674   0.33714   0.71048   0.00000  Uiso   1.00
H716   H     0.12588   0.66464   0.78994   0.00000  Uiso   1.00
H717   H     0.27056   0.49637   0.92729   0.00000  Uiso   1.00
H718   H     0.28308   0.47168   0.99236   0.00000  Uiso   1.00
H719   H     0.13481   0.49073   0.58021   0.00000  Uiso   1.00
H720   H     0.07393   0.53596   0.92473   0.00000  Uiso   1.00
H721   H     0.09365   0.50830   0.54734   0.00000  Uiso   1.00
H722   H     0.22466   0.52097   0.88967   0.00000  Uiso   1.00
N723   N     0.26760   0.45937   0.57859   0.00000  Uiso   1.00
N724   N     0.03732   0.53050   0.51246   0.00000  Uiso   1.00
O725   O     0.16667   0.50000   0.75000   0.00000  Uiso   1.00
O726   O     0.15451   0.45970   0.65459   0.00000  Uiso   1.00
O727   O     0.12940   0.53724   0.84968   0.00000  Uiso   1.00
O728   O     0.20824   0.51092   0.64606   0.00000  Uiso   1.00
O729   O     0.17451   0.49213   0.84968   0.00000  Uiso   1.00
O730   O     0.17930   0.41352   0.78214   0.00000  Uiso   1.00
O731   O     0.14632   0.59418   0.77013   0.00000  Uiso   1.00
O732   O     0.07412   0.46625   0.73413   0.00000  Uiso   1.00
O733   O     0.26693   0.52605   0.71361   0.00000  Uiso   1.00
O734   O     0.07071   0.52211   0.78213   0.00000  Uiso   1.00
O735   O     0.25491   0.48559   0.77014   0.00000  Uiso   1.00
O736   O     0.13760   0.40277   0.73413   0.00000  Uiso   1.00
O737   O     0.20345   0.58953   0.71360   0.00000  Uiso   1.00
Zn738  Zn    0.19338   0.47327   0.78734   0.00000  Uiso   1.00
Zn739  Zn    0.13379   0.45791   0.71876   0.00000  Uiso   1.00
Zn740  Zn    0.21056   0.53109   0.70657   0.00000  Uiso   1.00
Zn741  Zn    0.12893   0.53773   0.78733   0.00000  Uiso   1.00
C742   C     0.38613   0.49311   0.75999   0.00000  Uiso   1.00
C743   C     0.49954   0.48592   0.55933   0.00000  Uiso   1.00
C744   C     0.57085   0.46979   0.55644   0.00000  Uiso   1.00
C745   C     0.61420   0.50718   0.73993   0.00000  Uiso   1.00
C746   C     0.47120   0.52210   0.92022   0.00000  Uiso   1.00
C747   C     0.66013   0.50980   0.73562   0.00000  Uiso   1.00
C748   C     0.34080   0.49086   0.76408   0.00000  Uiso   1.00
C749   C     0.51393   0.65589   0.73617   0.00000  Uiso   1.00
C750   C     0.48560   0.34511   0.76401   0.00000  Uiso   1.00
C751   C     0.48967   0.38923   0.76014   0.00000  Uiso   1.00
C752   C     0.51000   0.61130   0.74008   0.00000  Uiso   1.00
C753   C     0.41409   0.52468   0.98905   0.00000  Uiso   1.00
C754   C     0.51902   0.48170   0.62935   0.00000  Uiso   1.00
C755   C     0.48229   0.51827   0.87087   0.00000  Uiso   1.00
C756   C     0.58365   0.47552   0.51077   0.00000  Uiso   1.00
C757   C     0.52892   0.47590   0.58080   0.00000  Uiso   1.00
C758   C     0.42913   0.52901   0.94307   0.00000  Uiso   1.00
C759   C     0.44101   0.51249   0.51232   0.00000  Uiso   1.00
C760   C     0.48408   0.50620   0.99069   0.00000  Uiso   1.00
C761   C     0.49973   0.51321   0.94440   0.00000  Uiso   1.00
C762   C     0.51220   0.49315   0.51340   0.00000  Uiso   1.00
C763   C     0.55531   0.48836   0.98952   0.00000  Uiso   1.00
C764   C     0.57057   0.49819   0.94510   0.00000  Uiso   1.00
C765   C     0.54360   0.51145   0.92324   0.00000  Uiso   1.00
H766   H     0.65226   0.47371   0.79102   0.00000  Uiso   1.00
H767   H     0.34931   0.52714   0.70919   0.00000  Uiso   1.00
H768   H     0.62721   0.48269   0.57370   0.00000  Uiso   1.00
H769   H     0.61197   0.43149   0.56313   0.00000  Uiso   1.00
H770   H     0.35398   0.53786   0.99039   0.00000  Uiso   1.00
H771   H     0.37192   0.55632   0.53535   0.00000  Uiso   1.00
H772   H     0.54007   0.33714   0.71048   0.00000  Uiso   1.00
H773   H     0.45921   0.66464   0.78994   0.00000  Uiso   1.00
H774   H     0.60389   0.49637   0.92729   0.00000  Uiso   1.00
H775   H     0.61641   0.47168   0.99236   0.00000  Uiso   1.00
H776   H     0.46814   0.49073   0.58021   0.00000  Uiso   1.00
H777   H     0.40726   0.53596   0.92473   0.00000  Uiso   1.00
H778   H     0.42698   0.50830   0.54734   0.00000  Uiso   1.00
H779   H     0.55799   0.52097   0.88967   0.00000  Uiso   1.00
N780   N     0.60093   0.45937   0.57859   0.00000  Uiso   1.00
N781   N     0.37065   0.53050   0.51246   0.00000  Uiso   1.00
O782   O     0.50000   0.50000   0.75000   0.00000  Uiso   1.00
O783   O     0.48784   0.45970   0.65459   0.00000  Uiso   1.00
O784   O     0.46274   0.53724   0.84968   0.00000  Uiso   1.00
O785   O     0.54157   0.51092   0.64606   0.00000  Uiso   1.00
O786   O     0.50785   0.49213   0.84968   0.00000  Uiso   1.00
O787   O     0.51264   0.41352   0.78214   0.00000  Uiso   1.00
O788   O     0.47965   0.59418   0.77013   0.00000  Uiso   1.00
O789   O     0.40745   0.46625   0.73413   0.00000  Uiso   1.00
O790   O     0.60026   0.52605   0.71361   0.00000  Uiso   1.00
O791   O     0.40405   0.52211   0.78213   0.00000  Uiso   1.00
O792   O     0.58824   0.48559   0.77014   0.00000  Uiso   1.00
O793   O     0.47093   0.40277   0.73413   0.00000  Uiso   1.00
O794   O     0.53678   0.58953   0.71360   0.00000  Uiso   1.00
Zn795  Zn    0.52672   0.47327   0.78734   0.00000  Uiso   1.00
Zn796  Zn    0.46713   0.45791   0.71876   0.00000  Uiso   1.00
Zn797  Zn    0.54389   0.53109   0.70657   0.00000  Uiso   1.00
Zn798  Zn    0.46226   0.53773   0.78733   0.00000  Uiso   1.00
C799   C     0.71946   0.49311   0.75999   0.00000  Uiso   1.00
C800   C     0.83288   0.48592   0.55933   0.00000  Uiso   1.00
C801   C     0.90418   0.46979   0.55644   0.00000  Uiso   1.00
C802   C     0.94753   0.50718   0.73993   0.00000  Uiso   1.00
C803   C     0.80454   0.52210   0.92022   0.00000  Uiso   1.00
C804   C     0.99346   0.50980   0.73562   0.00000  Uiso   1.00
C805   C     0.67413   0.49086   0.76408   0.00000  Uiso   1.00
C806   C     0.84726   0.65589   0.73617   0.00000  Uiso   1.00
C807   C     0.81893   0.34511   0.76401   0.00000  Uiso   1.00
C808   C     0.82301   0.38923   0.76014   0.00000  Uiso   1.00
C809   C     0.84334   0.61130   0.74008   0.00000  Uiso   1.00
C810   C     0.74742   0.52468   0.98905   0.00000  Uiso   1.00
C811   C     0.85236   0.48170   0.62935   0.00000  Uiso   1.00
C812   C     0.81562   0.51827   0.87087   0.00000  Uiso   1.00
C813   C     0.91699   0.47552   0.51077   0.00000  Uiso   1.00
C814   C     0.86225   0.47590   0.58080   0.00000  Uiso   1.00
C815   C     0.76246   0.52901   0.94307   0.00000  Uiso   1.00
C816   C     0.77434   0.51249   0.51232   0.00000  Uiso   1.00
C817   C     0.81741   0.50620   0.99069   0.00000  Uiso   1.00
C818   C     0.83306   0.51321   0.94440   0.00000  Uiso   1.00
C819   C     0.84553   0.49315   0.51340   0.00000  Uiso   1.00
C820   C     0.88865   0.48836   0.98952   0.00000  Uiso   1.00
C821   C     0.90390   0.49819   0.94510   0.00000  Uiso   1.00
C822   C     0.87693   0.51145   0.92324   0.00000  Uiso   1.00
H823   H     0.98559   0.47371   0.79102   0.00000  Uiso   1.00
H824   H     0.68264   0.52714   0.70919   0.00000  Uiso   1.00
H825   H     0.96054   0.48269   0.57370   0.00000  Uiso   1.00
H826   H     0.94531   0.43149   0.56313   0.00000  Uiso   1.00
H827   H     0.68732   0.53786   0.99039   0.00000  Uiso   1.00
H828   H     0.70526   0.55632   0.53535   0.00000  Uiso   1.00
H829   H     0.87340   0.33714   0.71048   0.00000  Uiso   1.00
H830   H     0.79255   0.66464   0.78994   0.00000  Uiso   1.00
H831   H     0.93723   0.49637   0.92729   0.00000  Uiso   1.00
H832   H     0.94975   0.47168   0.99236   0.00000  Uiso   1.00
H833   H     0.80148   0.49073   0.58021   0.00000  Uiso   1.00
H834   H     0.74059   0.53596   0.92473   0.00000  Uiso   1.00
H835   H     0.76031   0.50830   0.54734   0.00000  Uiso   1.00
H836   H     0.89133   0.52097   0.88967   0.00000  Uiso   1.00
N837   N     0.93427   0.45937   0.57859   0.00000  Uiso   1.00
N838   N     0.70398   0.53050   0.51246   0.00000  Uiso   1.00
O839   O     0.83333   0.50000   0.75000   0.00000  Uiso   1.00
O840   O     0.82118   0.45970   0.65459   0.00000  Uiso   1.00
O841   O     0.79607   0.53724   0.84968   0.00000  Uiso   1.00
O842   O     0.87491   0.51092   0.64606   0.00000  Uiso   1.00
O843   O     0.84118   0.49213   0.84968   0.00000  Uiso   1.00
O844   O     0.84597   0.41352   0.78214   0.00000  Uiso   1.00
O845   O     0.81298   0.59418   0.77013   0.00000  Uiso   1.00
O846   O     0.74078   0.46625   0.73413   0.00000  Uiso   1.00
O847   O     0.93360   0.52605   0.71361   0.00000  Uiso   1.00
O848   O     0.73738   0.52211   0.78213   0.00000  Uiso   1.00
O849   O     0.92158   0.48559   0.77014   0.00000  Uiso   1.00
O850   O     0.80426   0.40277   0.73413   0.00000  Uiso   1.00
O851   O     0.87012   0.58953   0.71360   0.00000  Uiso   1.00
Zn852  Zn    0.86005   0.47327   0.78734   0.00000  Uiso   1.00
Zn853  Zn    0.80046   0.45791   0.71876   0.00000  Uiso   1.00
Zn854  Zn    0.87723   0.53109   0.70657   0.00000  Uiso   1.00
Zn855  Zn    0.79560   0.53773   0.78733   0.00000  Uiso   1.00
C856   C     0.05279   0.82644   0.75999   0.00000  Uiso   1.00
C857   C     0.16621   0.81926   0.55933   0.00000  Uiso   1.00
C858   C     0.23752   0.80312   0.55644   0.00000  Uiso   1.00
C859   C     0.28086   0.84051   0.73993   0.00000  Uiso   1.00
C860   C     0.13787   0.85543   0.92022   0.00000  Uiso   1.00
C861   C     0.32680   0.84313   0.73562   0.00000  Uiso   1.00
C862   C     0.00746   0.82419   0.76408   0.00000  Uiso   1.00
C863   C     0.18060   0.98922   0.73617   0.00000  Uiso   1.00
C864   C     0.15227   0.67845   0.76401   0.00000  Uiso   1.00
C865   C     0.15634   0.72256   0.76014   0.00000  Uiso   1.00
C866   C     0.17667   0.94463   0.74008   0.00000  Uiso   1.00
C867   C     0.08076   0.85801   0.98905   0.00000  Uiso   1.00
C868   C     0.18569   0.81504   0.62935   0.00000  Uiso   1.00
C869   C     0.14896   0.85161   0.87087   0.00000  Uiso   1.00
C870   C     0.25032   0.80886   0.51077   0.00000  Uiso   1.00
C871   C     0.19558   0.80923   0.58080   0.00000  Uiso   1.00
C872   C     0.09580   0.86234   0.94307   0.00000  Uiso   1.00
C873   C     0.10767   0.84583   0.51232   0.00000  Uiso   1.00
C874   C     0.15074   0.83953   0.99069   0.00000  Uiso   1.00
C875   C     0.16639   0.84655   0.94440   0.00000  Uiso   1.00
C876   C     0.17887   0.82648   0.51340   0.00000  Uiso   1.00
C877   C     0.22198   0.82170   0.98952   0.00000  Uiso   1.00
C878   C     0.23724   0.83153   0.94510   0.00000  Uiso   1.00
C879   C     0.21027   0.84479   0.92324   0.00000  Uiso   1.00
H880   H     0.31892   0.80705   0.79102   0.00000  Uiso   1.00
H881   H     0.01597   0.86048   0.70919   0.00000  Uiso   1.00
H882   H     0.29387   0.81603   0.57370   0.00000  Uiso   1.00
H883   H     0.27864   0.76482   0.56313   0.00000  Uiso   1.00
H884   H     0.02065   0.87120   0.99039   0.00000  Uiso   1.00
H885   H     0.03859   0.88965   0.53535   0.00000  Uiso   1.00
H886   H     0.20674   0.67047   0.71048   0.00000  Uiso   1.00
H887   H     0.12588   0.99797   0.78994   0.00000  Uiso   1.00
H888   H     0.27056   0.82970   0.92729   0.00000  Uiso   1.00
H889   H     0.28308   0.80501   0.99236   0.00000  Uiso   1.00
H890   H     0.13481   0.82407   0.58021   0.00000  Uiso   1.00
H891   H     0.07393   0.86930   0.92473   0.00000  Uiso   1.00
H892   H     0.09365   0.84163   0.54734   0.00000  Uiso   1.00
H893   H     0.22466   0.85430   0.88967   0.00000  Uiso   1.00
N894   N     0.26760   0.79270   0.57859   0.00000  Uiso   1.00
N895   N     0.03732   0.86383   0.51246   0.00000  Uiso   1.00
O896   O     0.16667   0.83333   0.75000   0.00000  Uiso   1.00
O897   O     0.15451   0.79304   0.65459   0.00000  Uiso   1.00
O898   O     0.12940   0.87058   0.84968   0.00000  Uiso   1.00
O899   O     0.20824   0.84425   0.64606   0.00000  Uiso   1.00
O900   O     0.17451   0.82546   0.84968   0.00000  Uiso   1.00
O901   O     0.17930   0.74686   0.78214   0.00000  Uiso   1.00
O902   O     0.14632   0.92751   0.77013   0.00000  Uiso   1.00
O903   O     0.07412   0.79958   0.73413   0.00000  Uiso   1.00
O904   O     0.26693   0.85939   0.71361   0.00000  Uiso   1.00
O905   O     0.07071   0.85544   0.78213   0.00000  Uiso   1.00
O906   O     0.25491   0.81892   0.77014   0.00000  Uiso   1.00
O907   O     0.13760   0.73610   0.73413   0.00000  Uiso   1.00
O908   O     0.20345   0.92286   0.71360   0.00000  Uiso   1.00
Zn909  Zn    0.19338   0.80661   0.78734   0.00000  Uiso   1.00
Zn910  Zn    0.13379   0.79124   0.71876   0.00000  Uiso   1.00
Zn911  Zn    0.21056   0.86442   0.70657   0.00000  Uiso   1.00
Zn912  Zn    0.12893   0.87106   0.78733   0.00000  Uiso   1.00
C913   C     0.38613   0.82644   0.75999   0.00000  Uiso   1.00
C914   C     0.49954   0.81926   0.55933   0.00000  Uiso   1.00
C915   C     0.57085   0.80312   0.55644   0.00000  Uiso   1.00
C916   C     0.61420   0.84051   0.73993   0.00000  Uiso   1.00
C917   C     0.47120   0.85543   0.92022   0.00000  Uiso   1.00
C918   C     0.66013   0.84313   0.73562   0.00000  Uiso   1.00
C919   C     0.34080   0.82419   0.76408   0.00000  Uiso   1.00
C920   C     0.51393   0.98922   0.73617   0.00000  Uiso   1.00
C921   C     0.48560   0.67845   0.76401   0.00000  Uiso   1.00
C922   C     0.48967   0.72256   0.76014   0.00000  Uiso   1.00
C923   C     0.51000   0.94463   0.74008   0.00000  Uiso   1.00
C924   C     0.41409   0.85801   0.98905   0.00000  Uiso   1.00
C925   C     0.51902   0.81504   0.62935   0.00000  Uiso   1.00
C926   C     0.48229   0.85161   0.87087   0.00000  Uiso   1.00
C927   C     0.58365   0.80886   0.51077   0.00000  Uiso   1.00
C928   C     0.52892   0.80923   0.58080   0.00000  Uiso   1.00
C929   C     0.42913   0.86234   0.94307   0.00000  Uiso   1.00
C930   C     0.44101   0.84583   0.51232   0.00000  Uiso   1.00
C931   C     0.48408   0.83953   0.99069   0.00000  Uiso   1.00
C932   C     0.49973   0.84655   0.94440   0.00000  Uiso   1.00
C933   C     0.51220   0.82648   0.51340   0.00000  Uiso   1.00
C934   C     0.55531   0.82170   0.98952   0.00000  Uiso   1.00
C935   C     0.57057   0.83153   0.94510   0.00000  Uiso   1.00
C936   C     0.54360   0.84479   0.92324   0.00000  Uiso   1.00
H937   H     0.65226   0.80705   0.79102   0.00000  Uiso   1.00
H938   H     0.34931   0.86048   0.70919   0.00000  Uiso   1.00
H939   H     0.62721   0.81603   0.57370   0.00000  Uiso   1.00
H940   H     0.61197   0.76482   0.56313   0.00000  Uiso   1.00
H941   H     0.35398   0.87120   0.99039   0.00000  Uiso   1.00
H942   H     0.37192   0.88965   0.53535   0.00000  Uiso   1.00
H943   H     0.54007   0.67047   0.71048   0.00000  Uiso   1.00
H944   H     0.45921   0.99797   0.78994   0.00000  Uiso   1.00
H945   H     0.60389   0.82970   0.92729   0.00000  Uiso   1.00
H946   H     0.61641   0.80501   0.99236   0.00000  Uiso   1.00
H947   H     0.46814   0.82407   0.58021   0.00000  Uiso   1.00
H948   H     0.40726   0.86930   0.92473   0.00000  Uiso   1.00
H949   H     0.42698   0.84163   0.54734   0.00000  Uiso   1.00
H950   H     0.55799   0.85430   0.88967   0.00000  Uiso   1.00
N951   N     0.60093   0.79270   0.57859   0.00000  Uiso   1.00
N952   N     0.37065   0.86383   0.51246   0.00000  Uiso   1.00
O953   O     0.50000   0.83333   0.75000   0.00000  Uiso   1.00
O954   O     0.48784   0.79304   0.65459   0.00000  Uiso   1.00
O955   O     0.46274   0.87058   0.84968   0.00000  Uiso   1.00
O956   O     0.54157   0.84425   0.64606   0.00000  Uiso   1.00
O957   O     0.50785   0.82546   0.84968   0.00000  Uiso   1.00
O958   O     0.51264   0.74686   0.78214   0.00000  Uiso   1.00
O959   O     0.47965   0.92751   0.77013   0.00000  Uiso   1.00
O960   O     0.40745   0.79958   0.73413   0.00000  Uiso   1.00
O961   O     0.60026   0.85939   0.71361   0.00000  Uiso   1.00
O962   O     0.40405   0.85544   0.78213   0.00000  Uiso   1.00
O963   O     0.58824   0.81892   0.77014   0.00000  Uiso   1.00
O964   O     0.47093   0.73610   0.73413   0.00000  Uiso   1.00
O965   O     0.53678   0.92286   0.71360   0.00000  Uiso   1.00
Zn966  Zn    0.52672   0.80661   0.78734   0.00000  Uiso   1.00
Zn967  Zn    0.46713   0.79124   0.71876   0.00000  Uiso   1.00
Zn968  Zn    0.54389   0.86442   0.70657   0.00000  Uiso   1.00
Zn969  Zn    0.46226   0.87106   0.78733   0.00000  Uiso   1.00
C970   C     0.71946   0.82644   0.75999   0.00000  Uiso   1.00
C971   C     0.83288   0.81926   0.55933   0.00000  Uiso   1.00
C972   C     0.90418   0.80312   0.55644   0.00000  Uiso   1.00
C973   C     0.94753   0.84051   0.73993   0.00000  Uiso   1.00
C974   C     0.80454   0.85543   0.92022   0.00000  Uiso   1.00
C975   C     0.99346   0.84313   0.73562   0.00000  Uiso   1.00
C976   C     0.67413   0.82419   0.76408   0.00000  Uiso   1.00
C977   C     0.84726   0.98922   0.73617   0.00000  Uiso   1.00
C978   C     0.81893   0.67845   0.76401   0.00000  Uiso   1.00
C979   C     0.82301   0.72256   0.76014   0.00000  Uiso   1.00
C980   C     0.84334   0.94463   0.74008   0.00000  Uiso   1.00
C981   C     0.74742   0.85801   0.98905   0.00000  Uiso   1.00
C982   C     0.85236   0.81504   0.62935   0.00000  Uiso   1.00
C983   C     0.81562   0.85161   0.87087   0.00000  Uiso   1.00
C984   C     0.91699   0.80886   0.51077   0.00000  Uiso   1.00
C985   C     0.86225   0.80923   0.58080   0.00000  Uiso   1.00
C986   C     0.76246   0.86234   0.94307   0.00000  Uiso   1.00
C987   C     0.77434   0.84583   0.51232   0.00000  Uiso   1.00
C988   C     0.81741   0.83953   0.99069   0.00000  Uiso   1.00
C989   C     0.83306   0.84655   0.94440   0.00000  Uiso   1.00
C990   C     0.84553   0.82648   0.51340   0.00000  Uiso   1.00
C991   C     0.88865   0.82170   0.98952   0.00000  Uiso   1.00
C992   C     0.90390   0.83153   0.94510   0.00000  Uiso   1.00
C993   C     0.87693   0.84479   0.92324   0.00000  Uiso   1.00
H994   H     0.98559   0.80705   0.79102   0.00000  Uiso   1.00
H995   H     0.68264   0.86048   0.70919   0.00000  Uiso   1.00
H996   H     0.96054   0.81603   0.57370   0.00000  Uiso   1.00
H997   H     0.94531   0.76482   0.56313   0.00000  Uiso   1.00
H998   H     0.68732   0.87120   0.99039   0.00000  Uiso   1.00
H999   H     0.70526   0.88965   0.53535   0.00000  Uiso   1.00
H1000  H     0.87340   0.67047   0.71048   0.00000  Uiso   1.00
H1001  H     0.79255   0.99797   0.78994   0.00000  Uiso   1.00
H1002  H     0.93723   0.82970   0.92729   0.00000  Uiso   1.00
H1003  H     0.94975   0.80501   0.99236   0.00000  Uiso   1.00
H1004  H     0.80148   0.82407   0.58021   0.00000  Uiso   1.00
H1005  H     0.74059   0.86930   0.92473   0.00000  Uiso   1.00
H1006  H     0.76031   0.84163   0.54734   0.00000  Uiso   1.00
H1007  H     0.89133   0.85430   0.88967   0.00000  Uiso   1.00
N1008  N     0.93427   0.79270   0.57859   0.00000  Uiso   1.00
N1009  N     0.70398   0.86383   0.51246   0.00000  Uiso   1.00
O1010  O     0.83333   0.83333   0.75000   0.00000  Uiso   1.00
O1011  O     0.82118   0.79304   0.65459   0.00000  Uiso   1.00
O1012  O     0.79607   0.87058   0.84968   0.00000  Uiso   1.00
O1013  O     0.87491   0.84425   0.64606   0.00000  Uiso   1.00
O1014  O     0.84118   0.82546   0.84968   0.00000  Uiso   1.00
O1015  O     0.84597   0.74686   0.78214   0.00000  Uiso   1.00
O1016  O     0.81298   0.92751   0.77013   0.00000  Uiso   1.00
O1017  O     0.74078   0.79958   0.73413   0.00000  Uiso   1.00
O1018  O     0.93360   0.85939   0.71361   0.00000  Uiso   1.00
O1019  O     0.73738   0.85544   0.78213   0.00000  Uiso   1.00
O1020  O     0.92158   0.81892   0.77014   0.00000  Uiso   1.00
O1021  O     0.80426   0.73610   0.73413   0.00000  Uiso   1.00
O1022  O     0.87012   0.92286   0.71360   0.00000  Uiso   1.00
Zn1023 Zn    0.86005   0.80661   0.78734   0.00000  Uiso   1.00
Zn1024 Zn    0.80046   0.79124   0.71876   0.00000  Uiso   1.00
Zn1025 Zn    0.87723   0.86442   0.70657   0.00000  Uiso   1.00
Zn1026 Zn    0.79560   0.87106   0.78733   0.00000  Uiso   1.00
loop_
_geom_bond_atom_site_label_1
_geom_bond_atom_site_label_2
_geom_bond_distance
_geom_bond_site_symmetry_2
_ccdc_geom_bond_type
C1     O48     1.274   .     A
C1     O50     1.273   .     A
C1     C7      1.438   .     S
C2     H35     1.077   .     S
C2     C16     1.394   .     A
C2     C21     1.411   .     A
C3     N39     1.433   .     S
C3     C15     1.393   .     A
C3     C16     1.403   .     A
C4     O49     1.279   .     A
C4     O51     1.275   .     A
C4     C6      1.455   .     S
C5     C20     1.417   .     A
C5     C14     1.475   .     S
C5     C17     1.402   .     A
C6     C64     1.335   .     S
C6     H83     1.088   .     S
C7     C120    1.335   1_455 S
C7     H139    1.086   1_455 S
C8     C11     1.452   .     S
C8     C180    1.332   .     S
C8     H202    1.088   .     S
C9     C10     1.436   .     S
C9     C350    1.332   1_545 S
C9     H374    1.086   1_545 S
C10    O46     1.279   .     A
C10    O52     1.279   .     A
C11    O47     1.269   .     A
C11    O53     1.270   .     A
C12    C17     1.396   .     A
C12    C531    1.396   .     S
C12    N553    1.436   .     S
C13    O42     1.279   .     A
C13    C16     1.454   .     S
C13    O44     1.268   .     A
C14    O45     1.282   .     A
C14    O43     1.282   .     A
C15    C535    1.399   1_554 S
C15    H547    1.085   1_554 S
C17    H36     1.084   .     S
C18    H37     1.076   .     S
C18    C525    1.396   1_554 S
C18    C532    1.417   1_554 S
C19    C20     1.423   .     A
C19    C531    1.417   .     S
C19    C534    1.428   .     S
C20    C24     1.410   .     A
C21    C532    1.428   1_554 S
C21    C535    1.423   1_554 S
C22    C23     1.391   .     A
C22    C528    1.399   .     S
C22    C534    1.423   .     S
C23    C24     1.382   .     A
C23    H33     1.084   .     S
C24    H38     1.080   .     S
H25    C64     1.086   .     S
H26    C120    1.088   1_455 S
H27    N39     1.046   .     S
H28    N39     1.046   .     S
H29    N553    1.046   .     S
H30    N40     1.045   .     S
H31    C350    1.088   1_545 S
H32    C180    1.086   .     S
H34    C528    1.085   .     S
N40    C525    1.436   1_554 S
N40    H542    1.046   1_554 S
O41    Zn56    1.927   .     S
O41    Zn57    1.934   .     S
O41    Zn54    1.957   .     S
O41    Zn55    1.951   .     S
O42    Zn55    1.931   .     S
O43    Zn57    1.944   .     S
O44    Zn56    1.943   .     S
O45    Zn54    1.932   .     S
O46    Zn54    1.929   .     S
O47    Zn57    1.927   .     S
O48    Zn55    1.924   .     S
O49    Zn56    1.936   .     S
O50    Zn57    1.933   .     S
O51    Zn54    1.921   .     S
O52    Zn55    1.932   .     S
O53    Zn56    1.930   .     S
C58    O105    1.274   .     A
C58    O107    1.273   .     A
C58    C64     1.438   .     S
C59    H92     1.077   .     S
C59    C73     1.394   .     A
C59    C78     1.411   .     A
C60    N96     1.433   .     S
C60    C72     1.393   .     A
C60    C73     1.403   .     A
C61    O106    1.279   .     A
C61    O108    1.275   .     A
C61    C63     1.455   .     S
C62    C77     1.417   .     A
C62    C71     1.475   .     S
C62    C74     1.402   .     A
C63    C121    1.335   .     S
C63    H140    1.088   .     S
C65    C68     1.452   .     S
C65    C237    1.332   .     S
C65    H259    1.088   .     S
C66    C67     1.436   .     S
C66    C407    1.332   1_545 S
C66    H431    1.086   1_545 S
C67    O103    1.279   .     A
C67    O109    1.279   .     A
C68    O104    1.269   .     A
C68    O110    1.270   .     A
C69    C74     1.396   .     A
C69    C588    1.396   .     S
C69    N610    1.436   .     S
C70    O99     1.279   .     A
C70    C73     1.454   .     S
C70    O101    1.268   .     A
C71    O102    1.282   .     A
C71    O100    1.282   .     A
C72    C592    1.399   1_554 S
C72    H604    1.085   1_554 S
C74    H93     1.084   .     S
C75    H94     1.076   .     S
C75    C582    1.396   1_554 S
C75    C589    1.417   1_554 S
C76    C77     1.423   .     A
C76    C588    1.417   .     S
C76    C591    1.428   .     S
C77    C81     1.410   .     A
C78    C589    1.428   1_554 S
C78    C592    1.423   1_554 S
C79    C80     1.391   .     A
C79    C585    1.399   .     S
C79    C591    1.423   .     S
C80    C81     1.382   .     A
C80    H90     1.084   .     S
C81    H95     1.080   .     S
H82    C121    1.086   .     S
H84    N96     1.046   .     S
H85    N96     1.046   .     S
H86    N610    1.046   .     S
H87    N97     1.045   .     S
H88    C407    1.088   1_545 S
H89    C237    1.086   .     S
H91    C585    1.085   .     S
N97    C582    1.436   1_554 S
N97    H599    1.046   1_554 S
O98    Zn113   1.927   .     S
O98    Zn114   1.934   .     S
O98    Zn111   1.957   .     S
O98    Zn112   1.951   .     S
O99    Zn112   1.931   .     S
O100   Zn114   1.944   .     S
O101   Zn113   1.943   .     S
O102   Zn111   1.932   .     S
O103   Zn111   1.929   .     S
O104   Zn114   1.927   .     S
O105   Zn112   1.924   .     S
O106   Zn113   1.936   .     S
O107   Zn114   1.933   .     S
O108   Zn111   1.921   .     S
O109   Zn112   1.932   .     S
O110   Zn113   1.930   .     S
C115   O162    1.274   .     A
C115   O164    1.273   .     A
C115   C121    1.438   .     S
C116   H149    1.077   .     S
C116   C130    1.394   .     A
C116   C135    1.411   .     A
C117   N153    1.433   .     S
C117   C129    1.393   .     A
C117   C130    1.403   .     A
C118   O163    1.279   .     A
C118   O165    1.275   .     A
C118   C120    1.455   .     S
C119   C134    1.417   .     A
C119   C128    1.475   .     S
C119   C131    1.402   .     A
C120   C7      1.335   1_655 S
C120   H26     1.088   1_655 S
C122   C125    1.452   .     S
C122   C294    1.332   .     S
C122   H316    1.088   .     S
C123   C124    1.436   .     S
C123   C464    1.332   1_545 S
C123   H488    1.086   1_545 S
C124   O160    1.279   .     A
C124   O166    1.279   .     A
C125   O161    1.269   .     A
C125   O167    1.270   .     A
C126   C131    1.396   .     A
C126   C645    1.396   .     S
C126   N667    1.436   .     S
C127   O156    1.279   .     A
C127   C130    1.454   .     S
C127   O158    1.268   .     A
C128   O159    1.282   .     A
C128   O157    1.282   .     A
C129   C649    1.399   1_554 S
C129   H661    1.085   1_554 S
C131   H150    1.084   .     S
C132   H151    1.076   .     S
C132   C639    1.396   1_554 S
C132   C646    1.417   1_554 S
C133   C134    1.423   .     A
C133   C645    1.417   .     S
C133   C648    1.428   .     S
C134   C138    1.410   .     A
C135   C646    1.428   1_554 S
C135   C649    1.423   1_554 S
C136   C137    1.391   .     A
C136   C642    1.399   .     S
C136   C648    1.423   .     S
C137   C138    1.382   .     A
C137   H147    1.084   .     S
C138   H152    1.080   .     S
H139   C7      1.086   1_655 S
H141   N153    1.046   .     S
H142   N153    1.046   .     S
H143   N667    1.046   .     S
H144   N154    1.045   .     S
H145   C464    1.088   1_545 S
H146   C294    1.086   .     S
H148   C642    1.085   .     S
N154   C639    1.436   1_554 S
N154   H656    1.046   1_554 S
O155   Zn170   1.927   .     S
O155   Zn171   1.934   .     S
O155   Zn168   1.957   .     S
O155   Zn169   1.951   .     S
O156   Zn169   1.931   .     S
O157   Zn171   1.944   .     S
O158   Zn170   1.943   .     S
O159   Zn168   1.932   .     S
O160   Zn168   1.929   .     S
O161   Zn171   1.927   .     S
O162   Zn169   1.924   .     S
O163   Zn170   1.936   .     S
O164   Zn171   1.933   .     S
O165   Zn168   1.921   .     S
O166   Zn169   1.932   .     S
O167   Zn170   1.930   .     S
C172   O219    1.274   .     A
C172   O221    1.273   .     A
C172   C178    1.438   .     S
C173   H206    1.077   .     S
C173   C187    1.394   .     A
C173   C192    1.411   .     A
C174   N210    1.433   .     S
C174   C186    1.393   .     A
C174   C187    1.403   .     A
C175   O220    1.279   .     A
C175   O222    1.275   .     A
C175   C177    1.455   .     S
C176   C191    1.417   .     A
C176   C185    1.475   .     S
C176   C188    1.402   .     A
C177   C235    1.335   .     S
C177   H254    1.088   .     S
C178   C291    1.335   1_455 S
C178   H310    1.086   1_455 S
C179   C182    1.452   .     S
C179   C351    1.332   .     S
C179   H373    1.088   .     S
C180   C181    1.436   .     S
C181   O217    1.279   .     A
C181   O223    1.279   .     A
C182   O218    1.269   .     A
C182   O224    1.270   .     A
C183   C188    1.396   .     A
C183   C702    1.396   .     S
C183   N724    1.436   .     S
C184   O213    1.279   .     A
C184   C187    1.454   .     S
C184   O215    1.268   .     A
C185   O216    1.282   .     A
C185   O214    1.282   .     A
C186   C706    1.399   1_554 S
C186   H718    1.085   1_554 S
C188   H207    1.084   .     S
C189   H208    1.076   .     S
C189   C696    1.396   1_554 S
C189   C703    1.417   1_554 S
C190   C191    1.423   .     A
C190   C702    1.417   .     S
C190   C705    1.428   .     S
C191   C195    1.410   .     A
C192   C703    1.428   1_554 S
C192   C706    1.423   1_554 S
C193   C194    1.391   .     A
C193   C699    1.399   .     S
C193   C705    1.423   .     S
C194   C195    1.382   .     A
C194   H204    1.084   .     S
C195   H209    1.080   .     S
H196   C235    1.086   .     S
H197   C291    1.088   1_455 S
H198   N210    1.046   .     S
H199   N210    1.046   .     S
H200   N724    1.046   .     S
H201   N211    1.045   .     S
H203   C351    1.086   .     S
H205   C699    1.085   .     S
N211   C696    1.436   1_554 S
N211   H713    1.046   1_554 S
O212   Zn227   1.927   .     S
O212   Zn228   1.934   .     S
O212   Zn225   1.957   .     S
O212   Zn226   1.951   .     S
O213   Zn226   1.931   .     S
O214   Zn228   1.944   .     S
O215   Zn227   1.943   .     S
O216   Zn225   1.932   .     S
O217   Zn225   1.929   .     S
O218   Zn228   1.927   .     S
O219   Zn226   1.924   .     S
O220   Zn227   1.936   .     S
O221   Zn228   1.933   .     S
O222   Zn225   1.921   .     S
O223   Zn226   1.932   .     S
O224   Zn227   1.930   .     S
C229   O276    1.274   .     A
C229   O278    1.273   .     A
C229   C235    1.438   .     S
C230   H263    1.077   .     S
C230   C244    1.394   .     A
C230   C249    1.411   .     A
C231   N267    1.433   .     S
C231   C243    1.393   .     A
C231   C244    1.403   .     A
C232   O277    1.279   .     A
C232   O279    1.275   .     A
C232   C234    1.455   .     S
C233   C248    1.417   .     A
C233   C242    1.475   .     S
C233   C245    1.402   .     A
C234   C292    1.335   .     S
C234   H311    1.088   .     S
C236   C239    1.452   .     S
C236   C408    1.332   .     S
C236   H430    1.088   .     S
C237   C238    1.436   .     S
C238   O274    1.279   .     A
C238   O280    1.279   .     A
C239   O275    1.269   .     A
C239   O281    1.270   .     A
C240   C245    1.396   .     A
C240   C759    1.396   .     S
C240   N781    1.436   .     S
C241   O270    1.279   .     A
C241   C244    1.454   .     S
C241   O272    1.268   .     A
C242   O273    1.282   .     A
C242   O271    1.282   .     A
C243   C763    1.399   1_554 S
C243   H775    1.085   1_554 S
C245   H264    1.084   .     S
C246   H265    1.076   .     S
C246   C753    1.396   1_554 S
C246   C760    1.417   1_554 S
C247   C248    1.423   .     A
C247   C759    1.417   .     S
C247   C762    1.428   .     S
C248   C252    1.410   .     A
C249   C760    1.428   1_554 S
C249   C763    1.423   1_554 S
C250   C251    1.391   .     A
C250   C756    1.399   .     S
C250   C762    1.423   .     S
C251   C252    1.382   .     A
C251   H261    1.084   .     S
C252   H266    1.080   .     S
H253   C292    1.086   .     S
H255   N267    1.046   .     S
H256   N267    1.046   .     S
H257   N781    1.046   .     S
H258   N268    1.045   .     S
H260   C408    1.086   .     S
H262   C756    1.085   .     S
N268   C753    1.436   1_554 S
N268   H770    1.046   1_554 S
O269   Zn284   1.927   .     S
O269   Zn285   1.934   .     S
O269   Zn282   1.957   .     S
O269   Zn283   1.951   .     S
O270   Zn283   1.931   .     S
O271   Zn285   1.944   .     S
O272   Zn284   1.943   .     S
O273   Zn282   1.932   .     S
O274   Zn282   1.929   .     S
O275   Zn285   1.927   .     S
O276   Zn283   1.924   .     S
O277   Zn284   1.936   .     S
O278   Zn285   1.933   .     S
O279   Zn282   1.921   .     S
O280   Zn283   1.932   .     S
O281   Zn284   1.930   .     S
C286   O333    1.274   .     A
C286   O335    1.273   .     A
C286   C292    1.438   .     S
C287   H320    1.077   .     S
C287   C301    1.394   .     A
C287   C306    1.411   .     A
C288   N324    1.433   .     S
C288   C300    1.393   .     A
C288   C301    1.403   .     A
C289   O334    1.279   .     A
C289   O336    1.275   .     A
C289   C291    1.455   .     S
C290   C305    1.417   .     A
C290   C299    1.475   .     S
C290   C302    1.402   .     A
C291   C178    1.335   1_655 S
C291   H197    1.088   1_655 S
C293   C296    1.452   .     S
C293   C465    1.332   .     S
C293   H487    1.088   .     S
C294   C295    1.436   .     S
C295   O331    1.279   .     A
C295   O337    1.279   .     A
C296   O332    1.269   .     A
C296   O338    1.270   .     A
C297   C302    1.396   .     A
C297   C816    1.396   .     S
C297   N838    1.436   .     S
C298   O327    1.279   .     A
C298   C301    1.454   .     S
C298   O329    1.268   .     A
C299   O330    1.282   .     A
C299   O328    1.282   .     A
C300   C820    1.399   1_554 S
C300   H832    1.085   1_554 S
C302   H321    1.084   .     S
C303   H322    1.076   .     S
C303   C810    1.396   1_554 S
C303   C817    1.417   1_554 S
C304   C305    1.423   .     A
C304   C816    1.417   .     S
C304   C819    1.428   .     S
C305   C309    1.410   .     A
C306   C817    1.428   1_554 S
C306   C820    1.423   1_554 S
C307   C308    1.391   .     A
C307   C813    1.399   .     S
C307   C819    1.423   .     S
C308   C309    1.382   .     A
C308   H318    1.084   .     S
C309   H323    1.080   .     S
H310   C178    1.086   1_655 S
H312   N324    1.046   .     S
H313   N324    1.046   .     S
H314   N838    1.046   .     S
H315   N325    1.045   .     S
H317   C465    1.086   .     S
H319   C813    1.085   .     S
N325   C810    1.436   1_554 S
N325   H827    1.046   1_554 S
O326   Zn341   1.927   .     S
O326   Zn342   1.934   .     S
O326   Zn339   1.957   .     S
O326   Zn340   1.951   .     S
O327   Zn340   1.931   .     S
O328   Zn342   1.944   .     S
O329   Zn341   1.943   .     S
O330   Zn339   1.932   .     S
O331   Zn339   1.929   .     S
O332   Zn342   1.927   .     S
O333   Zn340   1.924   .     S
O334   Zn341   1.936   .     S
O335   Zn342   1.933   .     S
O336   Zn339   1.921   .     S
O337   Zn340   1.932   .     S
O338   Zn341   1.930   .     S
C343   O390    1.274   .     A
C343   O392    1.273   .     A
C343   C349    1.438   .     S
C344   H377    1.077   .     S
C344   C358    1.394   .     A
C344   C363    1.411   .     A
C345   N381    1.433   .     S
C345   C357    1.393   .     A
C345   C358    1.403   .     A
C346   O391    1.279   .     A
C346   O393    1.275   .     A
C346   C348    1.455   .     S
C347   C362    1.417   .     A
C347   C356    1.475   .     S
C347   C359    1.402   .     A
C348   C406    1.335   .     S
C348   H425    1.088   .     S
C349   C462    1.335   1_455 S
C349   H481    1.086   1_455 S
C350   C353    1.452   .     S
C350   C9      1.332   1_565 S
C350   H31     1.088   1_565 S
C351   C352    1.436   .     S
C352   O388    1.279   .     A
C352   O394    1.279   .     A
C353   O389    1.269   .     A
C353   O395    1.270   .     A
C354   C359    1.396   .     A
C354   C873    1.396   .     S
C354   N895    1.436   .     S
C355   O384    1.279   .     A
C355   C358    1.454   .     S
C355   O386    1.268   .     A
C356   O387    1.282   .     A
C356   O385    1.282   .     A
C357   C877    1.399   1_554 S
C357   H889    1.085   1_554 S
C359   H378    1.084   .     S
C360   H379    1.076   .     S
C360   C867    1.396   1_554 S
C360   C874    1.417   1_554 S
C361   C362    1.423   .     A
C361   C873    1.417   .     S
C361   C876    1.428   .     S
C362   C366    1.410   .     A
C363   C874    1.428   1_554 S
C363   C877    1.423   1_554 S
C364   C365    1.391   .     A
C364   C870    1.399   .     S
C364   C876    1.423   .     S
C365   C366    1.382   .     A
C365   H375    1.084   .     S
C366   H380    1.080   .     S
H367   C406    1.086   .     S
H368   C462    1.088   1_455 S
H369   N381    1.046   .     S
H370   N381    1.046   .     S
H371   N895    1.046   .     S
H372   N382    1.045   .     S
H374   C9      1.086   1_565 S
H376   C870    1.085   .     S
N382   C867    1.436   1_554 S
N382   H884    1.046   1_554 S
O383   Zn398   1.927   .     S
O383   Zn399   1.934   .     S
O383   Zn396   1.957   .     S
O383   Zn397   1.951   .     S
O384   Zn397   1.931   .     S
O385   Zn399   1.944   .     S
O386   Zn398   1.943   .     S
O387   Zn396   1.932   .     S
O388   Zn396   1.929   .     S
O389   Zn399   1.927   .     S
O390   Zn397   1.924   .     S
O391   Zn398   1.936   .     S
O392   Zn399   1.933   .     S
O393   Zn396   1.921   .     S
O394   Zn397   1.932   .     S
O395   Zn398   1.930   .     S
C400   O447    1.274   .     A
C400   O449    1.273   .     A
C400   C406    1.438   .     S
C401   H434    1.077   .     S
C401   C415    1.394   .     A
C401   C420    1.411   .     A
C402   N438    1.433   .     S
C402   C414    1.393   .     A
C402   C415    1.403   .     A
C403   O448    1.279   .     A
C403   O450    1.275   .     A
C403   C405    1.455   .     S
C404   C419    1.417   .     A
C404   C413    1.475   .     S
C404   C416    1.402   .     A
C405   C463    1.335   .     S
C405   H482    1.088   .     S
C407   C410    1.452   .     S
C407   C66     1.332   1_565 S
C407   H88     1.088   1_565 S
C408   C409    1.436   .     S
C409   O445    1.279   .     A
C409   O451    1.279   .     A
C410   O446    1.269   .     A
C410   O452    1.270   .     A
C411   C416    1.396   .     A
C411   C930    1.396   .     S
C411   N952    1.436   .     S
C412   O441    1.279   .     A
C412   C415    1.454   .     S
C412   O443    1.268   .     A
C413   O444    1.282   .     A
C413   O442    1.282   .     A
C414   C934    1.399   1_554 S
C414   H946    1.085   1_554 S
C416   H435    1.084   .     S
C417   H436    1.076   .     S
C417   C924    1.396   1_554 S
C417   C931    1.417   1_554 S
C418   C419    1.423   .     A
C418   C930    1.417   .     S
C418   C933    1.428   .     S
C419   C423    1.410   .     A
C420   C931    1.428   1_554 S
C420   C934    1.423   1_554 S
C421   C422    1.391   .     A
C421   C927    1.399   .     S
C421   C933    1.423   .     S
C422   C423    1.382   .     A
C422   H432    1.084   .     S
C423   H437    1.080   .     S
H424   C463    1.086   .     S
H426   N438    1.046   .     S
H427   N438    1.046   .     S
H428   N952    1.046   .     S
H429   N439    1.045   .     S
H431   C66     1.086   1_565 S
H433   C927    1.085   .     S
N439   C924    1.436   1_554 S
N439   H941    1.046   1_554 S
O440   Zn455   1.927   .     S
O440   Zn456   1.934   .     S
O440   Zn453   1.957   .     S
O440   Zn454   1.951   .     S
O441   Zn454   1.931   .     S
O442   Zn456   1.944   .     S
O443   Zn455   1.943   .     S
O444   Zn453   1.932   .     S
O445   Zn453   1.929   .     S
O446   Zn456   1.927   .     S
O447   Zn454   1.924   .     S
O448   Zn455   1.936   .     S
O449   Zn456   1.933   .     S
O450   Zn453   1.921   .     S
O451   Zn454   1.932   .     S
O452   Zn455   1.930   .     S
C457   O504    1.274   .     A
C457   O506    1.273   .     A
C457   C463    1.438   .     S
C458   H491    1.077   .     S
C458   C472    1.394   .     A
C458   C477    1.411   .     A
C459   N495    1.433   .     S
C459   C471    1.393   .     A
C459   C472    1.403   .     A
C460   O505    1.279   .     A
C460   O507    1.275   .     A
C460   C462    1.455   .     S
C461   C476    1.417   .     A
C461   C470    1.475   .     S
C461   C473    1.402   .     A
C462   C349    1.335   1_655 S
C462   H368    1.088   1_655 S
C464   C467    1.452   .     S
C464   C123    1.332   1_565 S
C464   H145    1.088   1_565 S
C465   C466    1.436   .     S
C466   O502    1.279   .     A
C466   O508    1.279   .     A
C467   O503    1.269   .     A
C467   O509    1.270   .     A
C468   C473    1.396   .     A
C468   C987    1.396   .     S
C468   N1009   1.436   .     S
C469   O498    1.279   .     A
C469   C472    1.454   .     S
C469   O500    1.268   .     A
C470   O501    1.282   .     A
C470   O499    1.282   .     A
C471   C991    1.399   1_554 S
C471   H1003   1.085   1_554 S
C473   H492    1.084   .     S
C474   H493    1.076   .     S
C474   C981    1.396   1_554 S
C474   C988    1.417   1_554 S
C475   C476    1.423   .     A
C475   C987    1.417   .     S
C475   C990    1.428   .     S
C476   C480    1.410   .     A
C477   C988    1.428   1_554 S
C477   C991    1.423   1_554 S
C478   C479    1.391   .     A
C478   C984    1.399   .     S
C478   C990    1.423   .     S
C479   C480    1.382   .     A
C479   H489    1.084   .     S
C480   H494    1.080   .     S
H481   C349    1.086   1_655 S
H483   N495    1.046   .     S
H484   N495    1.046   .     S
H485   N1009   1.046   .     S
H486   N496    1.045   .     S
H488   C123    1.086   1_565 S
H490   C984    1.085   .     S
N496   C981    1.436   1_554 S
N496   H998    1.046   1_554 S
O497   Zn512   1.927   .     S
O497   Zn513   1.934   .     S
O497   Zn510   1.957   .     S
O497   Zn511   1.951   .     S
O498   Zn511   1.931   .     S
O499   Zn513   1.944   .     S
O500   Zn512   1.943   .     S
O501   Zn510   1.932   .     S
O502   Zn510   1.929   .     S
O503   Zn513   1.927   .     S
O504   Zn511   1.924   .     S
O505   Zn512   1.936   .     S
O506   Zn513   1.933   .     S
O507   Zn510   1.921   .     S
O508   Zn511   1.932   .     S
O509   Zn512   1.930   .     S
C514   O561    1.274   .     A
C514   O563    1.273   .     A
C514   C520    1.438   .     S
C515   H548    1.077   .     S
C515   C529    1.394   .     A
C515   C534    1.411   .     A
C516   N552    1.433   .     S
C516   C528    1.393   .     A
C516   C529    1.403   .     A
C517   O562    1.279   .     A
C517   O564    1.275   .     A
C517   C519    1.455   .     S
C518   C533    1.417   .     A
C518   C527    1.475   .     S
C518   C530    1.402   .     A
C519   C577    1.335   .     S
C519   H596    1.088   .     S
C520   C633    1.335   1_455 S
C520   H652    1.086   1_455 S
C521   C524    1.452   .     S
C521   C693    1.332   .     S
C521   H715    1.088   .     S
C522   C523    1.436   .     S
C522   C863    1.332   1_545 S
C522   H887    1.086   1_545 S
C523   O559    1.279   .     A
C523   O565    1.279   .     A
C524   O560    1.269   .     A
C524   O566    1.270   .     A
C525   C530    1.396   .     A
C525   C18     1.396   1_556 S
C525   N40     1.436   1_556 S
C526   O555    1.279   .     A
C526   C529    1.454   .     S
C526   O557    1.268   .     A
C527   O558    1.282   .     A
C527   O556    1.282   .     A
C530   H549    1.084   .     S
C531   H550    1.076   .     S
C532   C533    1.423   .     A
C532   C18     1.417   1_556 S
C532   C21     1.428   1_556 S
C533   C537    1.410   .     A
C535   C536    1.391   .     A
C535   C15     1.399   1_556 S
C535   C21     1.423   1_556 S
C536   C537    1.382   .     A
C536   H546    1.084   .     S
C537   H551    1.080   .     S
H538   C577    1.086   .     S
H539   C633    1.088   1_455 S
H540   N552    1.046   .     S
H541   N552    1.046   .     S
H542   N40     1.046   1_556 S
H543   N553    1.045   .     S
H544   C863    1.088   1_545 S
H545   C693    1.086   .     S
H547   C15     1.085   1_556 S
O554   Zn569   1.927   .     S
O554   Zn570   1.934   .     S
O554   Zn567   1.957   .     S
O554   Zn568   1.951   .     S
O555   Zn568   1.931   .     S
O556   Zn570   1.944   .     S
O557   Zn569   1.943   .     S
O558   Zn567   1.932   .     S
O559   Zn567   1.929   .     S
O560   Zn570   1.927   .     S
O561   Zn568   1.924   .     S
O562   Zn569   1.936   .     S
O563   Zn570   1.933   .     S
O564   Zn567   1.921   .     S
O565   Zn568   1.932   .     S
O566   Zn569   1.930   .     S
C571   O618    1.274   .     A
C571   O620    1.273   .     A
C571   C577    1.438   .     S
C572   H605    1.077   .     S
C572   C586    1.394   .     A
C572   C591    1.411   .     A
C573   N609    1.433   .     S
C573   C585    1.393   .     A
C573   C586    1.403   .     A
C574   O619    1.279   .     A
C574   O621    1.275   .     A
C574   C576    1.455   .     S
C575   C590    1.417   .     A
C575   C584    1.475   .     S
C575   C587    1.402   .     A
C576   C634    1.335   .     S
C576   H653    1.088   .     S
C578   C581    1.452   .     S
C578   C750    1.332   .     S
C578   H772    1.088   .     S
C579   C580    1.436   .     S
C579   C920    1.332   1_545 S
C579   H944    1.086   1_545 S
C580   O616    1.279   .     A
C580   O622    1.279   .     A
C581   O617    1.269   .     A
C581   O623    1.270   .     A
C582   C587    1.396   .     A
C582   C75     1.396   1_556 S
C582   N97     1.436   1_556 S
C583   O612    1.279   .     A
C583   C586    1.454   .     S
C583   O614    1.268   .     A
C584   O615    1.282   .     A
C584   O613    1.282   .     A
C587   H606    1.084   .     S
C588   H607    1.076   .     S
C589   C590    1.423   .     A
C589   C75     1.417   1_556 S
C589   C78     1.428   1_556 S
C590   C594    1.410   .     A
C592   C593    1.391   .     A
C592   C72     1.399   1_556 S
C592   C78     1.423   1_556 S
C593   C594    1.382   .     A
C593   H603    1.084   .     S
C594   H608    1.080   .     S
H595   C634    1.086   .     S
H597   N609    1.046   .     S
H598   N609    1.046   .     S
H599   N97     1.046   1_556 S
H600   N610    1.045   .     S
H601   C920    1.088   1_545 S
H602   C750    1.086   .     S
H604   C72     1.085   1_556 S
O611   Zn626   1.927   .     S
O611   Zn627   1.934   .     S
O611   Zn624   1.957   .     S
O611   Zn625   1.951   .     S
O612   Zn625   1.931   .     S
O613   Zn627   1.944   .     S
O614   Zn626   1.943   .     S
O615   Zn624   1.932   .     S
O616   Zn624   1.929   .     S
O617   Zn627   1.927   .     S
O618   Zn625   1.924   .     S
O619   Zn626   1.936   .     S
O620   Zn627   1.933   .     S
O621   Zn624   1.921   .     S
O622   Zn625   1.932   .     S
O623   Zn626   1.930   .     S
C628   O675    1.274   .     A
C628   O677    1.273   .     A
C628   C634    1.438   .     S
C629   H662    1.077   .     S
C629   C643    1.394   .     A
C629   C648    1.411   .     A
C630   N666    1.433   .     S
C630   C642    1.393   .     A
C630   C643    1.403   .     A
C631   O676    1.279   .     A
C631   O678    1.275   .     A
C631   C633    1.455   .     S
C632   C647    1.417   .     A
C632   C641    1.475   .     S
C632   C644    1.402   .     A
C633   C520    1.335   1_655 S
C633   H539    1.088   1_655 S
C635   C638    1.452   .     S
C635   C807    1.332   .     S
C635   H829    1.088   .     S
C636   C637    1.436   .     S
C636   C977    1.332   1_545 S
C636   H1001   1.086   1_545 S
C637   O673    1.279   .     A
C637   O679    1.279   .     A
C638   O674    1.269   .     A
C638   O680    1.270   .     A
C639   C644    1.396   .     A
C639   C132    1.396   1_556 S
C639   N154    1.436   1_556 S
C640   O669    1.279   .     A
C640   C643    1.454   .     S
C640   O671    1.268   .     A
C641   O672    1.282   .     A
C641   O670    1.282   .     A
C644   H663    1.084   .     S
C645   H664    1.076   .     S
C646   C647    1.423   .     A
C646   C132    1.417   1_556 S
C646   C135    1.428   1_556 S
C647   C651    1.410   .     A
C649   C650    1.391   .     A
C649   C129    1.399   1_556 S
C649   C135    1.423   1_556 S
C650   C651    1.382   .     A
C650   H660    1.084   .     S
C651   H665    1.080   .     S
H652   C520    1.086   1_655 S
H654   N666    1.046   .     S
H655   N666    1.046   .     S
H656   N154    1.046   1_556 S
H657   N667    1.045   .     S
H658   C977    1.088   1_545 S
H659   C807    1.086   .     S
H661   C129    1.085   1_556 S
O668   Zn683   1.927   .     S
O668   Zn684   1.934   .     S
O668   Zn681   1.957   .     S
O668   Zn682   1.951   .     S
O669   Zn682   1.931   .     S
O670   Zn684   1.944   .     S
O671   Zn683   1.943   .     S
O672   Zn681   1.932   .     S
O673   Zn681   1.929   .     S
O674   Zn684   1.927   .     S
O675   Zn682   1.924   .     S
O676   Zn683   1.936   .     S
O677   Zn684   1.933   .     S
O678   Zn681   1.921   .     S
O679   Zn682   1.932   .     S
O680   Zn683   1.930   .     S
C685   O732    1.274   .     A
C685   O734    1.273   .     A
C685   C691    1.438   .     S
C686   H719    1.077   .     S
C686   C700    1.394   .     A
C686   C705    1.411   .     A
C687   N723    1.433   .     S
C687   C699    1.393   .     A
C687   C700    1.403   .     A
C688   O733    1.279   .     A
C688   O735    1.275   .     A
C688   C690    1.455   .     S
C689   C704    1.417   .     A
C689   C698    1.475   .     S
C689   C701    1.402   .     A
C690   C748    1.335   .     S
C690   H767    1.088   .     S
C691   C804    1.335   1_455 S
C691   H823    1.086   1_455 S
C692   C695    1.452   .     S
C692   C864    1.332   .     S
C692   H886    1.088   .     S
C693   C694    1.436   .     S
C694   O730    1.279   .     A
C694   O736    1.279   .     A
C695   O731    1.269   .     A
C695   O737    1.270   .     A
C696   C701    1.396   .     A
C696   C189    1.396   1_556 S
C696   N211    1.436   1_556 S
C697   O726    1.279   .     A
C697   C700    1.454   .     S
C697   O728    1.268   .     A
C698   O729    1.282   .     A
C698   O727    1.282   .     A
C701   H720    1.084   .     S
C702   H721    1.076   .     S
C703   C704    1.423   .     A
C703   C189    1.417   1_556 S
C703   C192    1.428   1_556 S
C704   C708    1.410   .     A
C706   C707    1.391   .     A
C706   C186    1.399   1_556 S
C706   C192    1.423   1_556 S
C707   C708    1.382   .     A
C707   H717    1.084   .     S
C708   H722    1.080   .     S
H709   C748    1.086   .     S
H710   C804    1.088   1_455 S
H711   N723    1.046   .     S
H712   N723    1.046   .     S
H713   N211    1.046   1_556 S
H714   N724    1.045   .     S
H716   C864    1.086   .     S
H718   C186    1.085   1_556 S
O725   Zn740   1.927   .     S
O725   Zn741   1.934   .     S
O725   Zn738   1.957   .     S
O725   Zn739   1.951   .     S
O726   Zn739   1.931   .     S
O727   Zn741   1.944   .     S
O728   Zn740   1.943   .     S
O729   Zn738   1.932   .     S
O730   Zn738   1.929   .     S
O731   Zn741   1.927   .     S
O732   Zn739   1.924   .     S
O733   Zn740   1.936   .     S
O734   Zn741   1.933   .     S
O735   Zn738   1.921   .     S
O736   Zn739   1.932   .     S
O737   Zn740   1.930   .     S
C742   O789    1.274   .     A
C742   O791    1.273   .     A
C742   C748    1.438   .     S
C743   H776    1.077   .     S
C743   C757    1.394   .     A
C743   C762    1.411   .     A
C744   N780    1.433   .     S
C744   C756    1.393   .     A
C744   C757    1.403   .     A
C745   O790    1.279   .     A
C745   O792    1.275   .     A
C745   C747    1.455   .     S
C746   C761    1.417   .     A
C746   C755    1.475   .     S
C746   C758    1.402   .     A
C747   C805    1.335   .     S
C747   H824    1.088   .     S
C749   C752    1.452   .     S
C749   C921    1.332   .     S
C749   H943    1.088   .     S
C750   C751    1.436   .     S
C751   O787    1.279   .     A
C751   O793    1.279   .     A
C752   O788    1.269   .     A
C752   O794    1.270   .     A
C753   C758    1.396   .     A
C753   C246    1.396   1_556 S
C753   N268    1.436   1_556 S
C754   O783    1.279   .     A
C754   C757    1.454   .     S
C754   O785    1.268   .     A
C755   O786    1.282   .     A
C755   O784    1.282   .     A
C758   H777    1.084   .     S
C759   H778    1.076   .     S
C760   C761    1.423   .     A
C760   C246    1.417   1_556 S
C760   C249    1.428   1_556 S
C761   C765    1.410   .     A
C763   C764    1.391   .     A
C763   C243    1.399   1_556 S
C763   C249    1.423   1_556 S
C764   C765    1.382   .     A
C764   H774    1.084   .     S
C765   H779    1.080   .     S
H766   C805    1.086   .     S
H768   N780    1.046   .     S
H769   N780    1.046   .     S
H770   N268    1.046   1_556 S
H771   N781    1.045   .     S
H773   C921    1.086   .     S
H775   C243    1.085   1_556 S
O782   Zn797   1.927   .     S
O782   Zn798   1.934   .     S
O782   Zn795   1.957   .     S
O782   Zn796   1.951   .     S
O783   Zn796   1.931   .     S
O784   Zn798   1.944   .     S
O785   Zn797   1.943   .     S
O786   Zn795   1.932   .     S
O787   Zn795   1.929   .     S
O788   Zn798   1.927   .     S
O789   Zn796   1.924   .     S
O790   Zn797   1.936   .     S
O791   Zn798   1.933   .     S
O792   Zn795   1.921   .     S
O793   Zn796   1.932   .     S
O794   Zn797   1.930   .     S
C799   O846    1.274   .     A
C799   O848    1.273   .     A
C799   C805    1.438   .     S
C800   H833    1.077   .     S
C800   C814    1.394   .     A
C800   C819    1.411   .     A
C801   N837    1.433   .     S
C801   C813    1.393   .     A
C801   C814    1.403   .     A
C802   O847    1.279   .     A
C802   O849    1.275   .     A
C802   C804    1.455   .     S
C803   C818    1.417   .     A
C803   C812    1.475   .     S
C803   C815    1.402   .     A
C804   C691    1.335   1_655 S
C804   H710    1.088   1_655 S
C806   C809    1.452   .     S
C806   C978    1.332   .     S
C806   H1000   1.088   .     S
C807   C808    1.436   .     S
C808   O844    1.279   .     A
C808   O850    1.279   .     A
C809   O845    1.269   .     A
C809   O851    1.270   .     A
C810   C815    1.396   .     A
C810   C303    1.396   1_556 S
C810   N325    1.436   1_556 S
C811   O840    1.279   .     A
C811   C814    1.454   .     S
C811   O842    1.268   .     A
C812   O843    1.282   .     A
C812   O841    1.282   .     A
C815   H834    1.084   .     S
C816   H835    1.076   .     S
C817   C818    1.423   .     A
C817   C303    1.417   1_556 S
C817   C306    1.428   1_556 S
C818   C822    1.410   .     A
C820   C821    1.391   .     A
C820   C300    1.399   1_556 S
C820   C306    1.423   1_556 S
C821   C822    1.382   .     A
C821   H831    1.084   .     S
C822   H836    1.080   .     S
H823   C691    1.086   1_655 S
H825   N837    1.046   .     S
H826   N837    1.046   .     S
H827   N325    1.046   1_556 S
H828   N838    1.045   .     S
H830   C978    1.086   .     S
H832   C300    1.085   1_556 S
O839   Zn854   1.927   .     S
O839   Zn855   1.934   .     S
O839   Zn852   1.957   .     S
O839   Zn853   1.951   .     S
O840   Zn853   1.931   .     S
O841   Zn855   1.944   .     S
O842   Zn854   1.943   .     S
O843   Zn852   1.932   .     S
O844   Zn852   1.929   .     S
O845   Zn855   1.927   .     S
O846   Zn853   1.924   .     S
O847   Zn854   1.936   .     S
O848   Zn855   1.933   .     S
O849   Zn852   1.921   .     S
O850   Zn853   1.932   .     S
O851   Zn854   1.930   .     S
C856   O903    1.274   .     A
C856   O905    1.273   .     A
C856   C862    1.438   .     S
C857   H890    1.077   .     S
C857   C871    1.394   .     A
C857   C876    1.411   .     A
C858   N894    1.433   .     S
C858   C870    1.393   .     A
C858   C871    1.403   .     A
C859   O904    1.279   .     A
C859   O906    1.275   .     A
C859   C861    1.455   .     S
C860   C875    1.417   .     A
C860   C869    1.475   .     S
C860   C872    1.402   .     A
C861   C919    1.335   .     S
C861   H938    1.088   .     S
C862   C975    1.335   1_455 S
C862   H994    1.086   1_455 S
C863   C866    1.452   .     S
C863   C522    1.332   1_565 S
C863   H544    1.088   1_565 S
C864   C865    1.436   .     S
C865   O901    1.279   .     A
C865   O907    1.279   .     A
C866   O902    1.269   .     A
C866   O908    1.270   .     A
C867   C872    1.396   .     A
C867   C360    1.396   1_556 S
C867   N382    1.436   1_556 S
C868   O897    1.279   .     A
C868   C871    1.454   .     S
C868   O899    1.268   .     A
C869   O900    1.282   .     A
C869   O898    1.282   .     A
C872   H891    1.084   .     S
C873   H892    1.076   .     S
C874   C875    1.423   .     A
C874   C360    1.417   1_556 S
C874   C363    1.428   1_556 S
C875   C879    1.410   .     A
C877   C878    1.391   .     A
C877   C357    1.399   1_556 S
C877   C363    1.423   1_556 S
C878   C879    1.382   .     A
C878   H888    1.084   .     S
C879   H893    1.080   .     S
H880   C919    1.086   .     S
H881   C975    1.088   1_455 S
H882   N894    1.046   .     S
H883   N894    1.046   .     S
H884   N382    1.046   1_556 S
H885   N895    1.045   .     S
H887   C522    1.086   1_565 S
H889   C357    1.085   1_556 S
O896   Zn911   1.927   .     S
O896   Zn912   1.934   .     S
O896   Zn909   1.957   .     S
O896   Zn910   1.951   .     S
O897   Zn910   1.931   .     S
O898   Zn912   1.944   .     S
O899   Zn911   1.943   .     S
O900   Zn909   1.932   .     S
O901   Zn909   1.929   .     S
O902   Zn912   1.927   .     S
O903   Zn910   1.924   .     S
O904   Zn911   1.936   .     S
O905   Zn912   1.933   .     S
O906   Zn909   1.921   .     S
O907   Zn910   1.932   .     S
O908   Zn911   1.930   .     S
C913   O960    1.274   .     A
C913   O962    1.273   .     A
C913   C919    1.438   .     S
C914   H947    1.077   .     S
C914   C928    1.394   .     A
C914   C933    1.411   .     A
C915   N951    1.433   .     S
C915   C927    1.393   .     A
C915   C928    1.403   .     A
C916   O961    1.279   .     A
C916   O963    1.275   .     A
C916   C918    1.455   .     S
C917   C932    1.417   .     A
C917   C926    1.475   .     S
C917   C929    1.402   .     A
C918   C976    1.335   .     S
C918   H995    1.088   .     S
C920   C923    1.452   .     S
C920   C579    1.332   1_565 S
C920   H601    1.088   1_565 S
C921   C922    1.436   .     S
C922   O958    1.279   .     A
C922   O964    1.279   .     A
C923   O959    1.269   .     A
C923   O965    1.270   .     A
C924   C929    1.396   .     A
C924   C417    1.396   1_556 S
C924   N439    1.436   1_556 S
C925   O954    1.279   .     A
C925   C928    1.454   .     S
C925   O956    1.268   .     A
C926   O957    1.282   .     A
C926   O955    1.282   .     A
C929   H948    1.084   .     S
C930   H949    1.076   .     S
C931   C932    1.423   .     A
C931   C417    1.417   1_556 S
C931   C420    1.428   1_556 S
C932   C936    1.410   .     A
C934   C935    1.391   .     A
C934   C414    1.399   1_556 S
C934   C420    1.423   1_556 S
C935   C936    1.382   .     A
C935   H945    1.084   .     S
C936   H950    1.080   .     S
H937   C976    1.086   .     S
H939   N951    1.046   .     S
H940   N951    1.046   .     S
H941   N439    1.046   1_556 S
H942   N952    1.045   .     S
H944   C579    1.086   1_565 S
H946   C414    1.085   1_556 S
O953   Zn968   1.927   .     S
O953   Zn969   1.934   .     S
O953   Zn966   1.957   .     S
O953   Zn967   1.951   .     S
O954   Zn967   1.931   .     S
O955   Zn969   1.944   .     S
O956   Zn968   1.943   .     S
O957   Zn966   1.932   .     S
O958   Zn966   1.929   .     S
O959   Zn969   1.927   .     S
O960   Zn967   1.924   .     S
O961   Zn968   1.936   .     S
O962   Zn969   1.933   .     S
O963   Zn966   1.921   .     S
O964   Zn967   1.932   .     S
O965   Zn968   1.930   .     S
C970   O1017   1.274   .     A
C970   O1019   1.273   .     A
C970   C976    1.438   .     S
C971   H1004   1.077   .     S
C971   C985    1.394   .     A
C971   C990    1.411   .     A
C972   N1008   1.433   .     S
C972   C984    1.393   .     A
C972   C985    1.403   .     A
C973   O1018   1.279   .     A
C973   O1020   1.275   .     A
C973   C975    1.455   .     S
C974   C989    1.417   .     A
C974   C983    1.475   .     S
C974   C986    1.402   .     A
C975   C862    1.335   1_655 S
C975   H881    1.088   1_655 S
C977   C980    1.452   .     S
C977   C636    1.332   1_565 S
C977   H658    1.088   1_565 S
C978   C979    1.436   .     S
C979   O1015   1.279   .     A
C979   O1021   1.279   .     A
C980   O1016   1.269   .     A
C980   O1022   1.270   .     A
C981   C986    1.396   .     A
C981   C474    1.396   1_556 S
C981   N496    1.436   1_556 S
C982   O1011   1.279   .     A
C982   C985    1.454   .     S
C982   O1013   1.268   .     A
C983   O1014   1.282   .     A
C983   O1012   1.282   .     A
C986   H1005   1.084   .     S
C987   H1006   1.076   .     S
C988   C989    1.423   .     A
C988   C474    1.417   1_556 S
C988   C477    1.428   1_556 S
C989   C993    1.410   .     A
C991   C992    1.391   .     A
C991   C471    1.399   1_556 S
C991   C477    1.423   1_556 S
C992   C993    1.382   .     A
C992   H1002   1.084   .     S
C993   H1007   1.080   .     S
H994   C862    1.086   1_655 S
H996   N1008   1.046   .     S
H997   N1008   1.046   .     S
H998   N496    1.046   1_556 S
H999   N1009   1.045   .     S
H1001  C636    1.086   1_565 S
H1003  C471    1.085   1_556 S
O1010  Zn1025  1.927   .     S
O1010  Zn1026  1.934   .     S
O1010  Zn1023  1.957   .     S
O1010  Zn1024  1.951   .     S
O1011  Zn1024  1.931   .     S
O1012  Zn1026  1.944   .     S
O1013  Zn1025  1.943   .     S
O1014  Zn1023  1.932   .     S
O1015  Zn1023  1.929   .     S
O1016  Zn1026  1.927   .     S
O1017  Zn1024  1.924   .     S
O1018  Zn1025  1.936   .     S
O1019  Zn1026  1.933   .     S
O1020  Zn1023  1.921   .     S
O1021  Zn1024  1.932   .     S
O1022  Zn1025  1.930   .     S
