data_str_m1_o1_o17_pcu_sym.72
_audit_creation_date              2020-01-03
_audit_creation_method            'Materials Studio'
_symmetry_space_group_name_H-M    'P1'
_symmetry_Int_Tables_number       1
_symmetry_cell_setting            triclinic
loop_
_symmetry_equiv_pos_as_xyz
  x,y,z
_cell_length_a                    36.7425
_cell_length_b                    36.7475
_cell_length_c                    34.3392
_cell_angle_alpha                 89.9890
_cell_angle_beta                  89.9927
_cell_angle_gamma                 90.0592
loop_
_atom_site_label
_atom_site_type_symbol
_atom_site_fract_x
_atom_site_fract_y
_atom_site_fract_z
_atom_site_U_iso_or_equiv
_atom_site_adp_type
_atom_site_occupancy
C1     C     0.00307   0.28344   0.41798   0.00000  Uiso   1.00
C2     C     0.25467   0.46674   0.08193   0.00000  Uiso   1.00
C3     C     0.21882   0.01180   0.54111   0.00000  Uiso   1.00
C4     C     0.00983   0.28414   0.45870   0.00000  Uiso   1.00
C5     C     0.01257   0.21688   0.54115   0.00000  Uiso   1.00
C6     C     0.21896   0.01177   0.45889   0.00000  Uiso   1.00
C7     C     0.28227   0.48965   0.54133   0.00000  Uiso   1.00
C8     C     0.26143   0.46664   0.95871   0.00000  Uiso   1.00
C9     C     0.26115   0.03364   0.04130   0.00000  Uiso   1.00
C10    C     0.03355   0.23857   0.95883   0.00000  Uiso   1.00
C11    C     0.46605   0.23942   0.04117   0.00000  Uiso   1.00
C12    C     0.26095   0.03389   0.95882   0.00000  Uiso   1.00
C13    C     0.46681   0.24607   0.91803   0.00000  Uiso   1.00
C14    C     0.26139   0.46641   0.04118   0.00000  Uiso   1.00
C15    C     0.46630   0.23923   0.95870   0.00000  Uiso   1.00
C16    C     0.03330   0.23846   0.04130   0.00000  Uiso   1.00
C17    C     0.09791   0.34824   0.25007   0.00000  Uiso   1.00
C18    C     0.40183   0.15199   0.74998   0.00000  Uiso   1.00
C19    C     0.15184   0.09807   0.24995   0.00000  Uiso   1.00
C20    C     0.34798   0.40186   0.75005   0.00000  Uiso   1.00
C21    C     0.40184   0.15196   0.25005   0.00000  Uiso   1.00
C22    C     0.09798   0.34818   0.74997   0.00000  Uiso   1.00
C23    C     0.34797   0.40183   0.24990   0.00000  Uiso   1.00
C24    C     0.03297   0.24531   0.08197   0.00000  Uiso   1.00
C25    C     0.15186   0.09808   0.75005   0.00000  Uiso   1.00
C26    C     0.09808   0.15194   0.75002   0.00000  Uiso   1.00
C27    C     0.40182   0.34803   0.24993   0.00000  Uiso   1.00
C28    C     0.15177   0.40207   0.74995   0.00000  Uiso   1.00
C29    C     0.34805   0.09807   0.24999   0.00000  Uiso   1.00
C30    C     0.40183   0.34806   0.75005   0.00000  Uiso   1.00
C31    C     0.09806   0.15195   0.24999   0.00000  Uiso   1.00
C32    C     0.34808   0.09806   0.74998   0.00000  Uiso   1.00
C33    C     0.15177   0.40207   0.25008   0.00000  Uiso   1.00
C34    C     0.01139   0.25058   0.47933   0.00000  Uiso   1.00
C35    C     0.25454   0.46701   0.91805   0.00000  Uiso   1.00
C36    C     0.01143   0.25054   0.52058   0.00000  Uiso   1.00
C37    C     0.25072   0.00073   0.47949   0.00000  Uiso   1.00
C38    C     0.25063   0.00076   0.52059   0.00000  Uiso   1.00
C39    C     0.26137   0.00021   0.97937   0.00000  Uiso   1.00
C40    C     0.26141   0.00009   0.02063   0.00000  Uiso   1.00
C41    C     0.49986   0.23874   0.97937   0.00000  Uiso   1.00
C42    C     0.49973   0.23875   0.02063   0.00000  Uiso   1.00
C43    C     0.03775   0.15289   0.45870   0.00000  Uiso   1.00
C44    C     0.02834   0.35061   0.54093   0.00000  Uiso   1.00
C45    C     0.34124   0.45360   0.45949   0.00000  Uiso   1.00
C46    C     0.25428   0.03317   0.08197   0.00000  Uiso   1.00
C47    C     0.16177   0.05025   0.54104   0.00000  Uiso   1.00
C48    C     0.02863   0.35048   0.45884   0.00000  Uiso   1.00
C49    C     0.03599   0.15200   0.54076   0.00000  Uiso   1.00
C50    C     0.16196   0.05031   0.45875   0.00000  Uiso   1.00
C51    C     0.34018   0.45248   0.54139   0.00000  Uiso   1.00
C52    C     0.28375   0.40147   0.95868   0.00000  Uiso   1.00
C53    C     0.28296   0.09904   0.04129   0.00000  Uiso   1.00
C54    C     0.09909   0.21716   0.95926   0.00000  Uiso   1.00
C55    C     0.39995   0.21961   0.04076   0.00000  Uiso   1.00
C56    C     0.28119   0.09987   0.95926   0.00000  Uiso   1.00
C57    C     0.03325   0.24525   0.91807   0.00000  Uiso   1.00
C58    C     0.28267   0.40084   0.04079   0.00000  Uiso   1.00
C59    C     0.40073   0.21792   0.95869   0.00000  Uiso   1.00
C60    C     0.09836   0.21579   0.04132   0.00000  Uiso   1.00
C61    C     0.15175   0.40262   0.17748   0.00000  Uiso   1.00
C62    C     0.34582   0.09953   0.82239   0.00000  Uiso   1.00
C63    C     0.09844   0.15307   0.17748   0.00000  Uiso   1.00
C64    C     0.40388   0.34978   0.82265   0.00000  Uiso   1.00
C65    C     0.34557   0.09992   0.17756   0.00000  Uiso   1.00
C66    C     0.15140   0.40291   0.82256   0.00000  Uiso   1.00
C67    C     0.40432   0.35020   0.17735   0.00000  Uiso   1.00
C68    C     0.46653   0.24612   0.08192   0.00000  Uiso   1.00
C69    C     0.09746   0.15206   0.82251   0.00000  Uiso   1.00
C70    C     0.15100   0.09687   0.82266   0.00000  Uiso   1.00
C71    C     0.34925   0.40375   0.17741   0.00000  Uiso   1.00
C72    C     0.09722   0.34842   0.82257   0.00000  Uiso   1.00
C73    C     0.40051   0.15415   0.17763   0.00000  Uiso   1.00
C74    C     0.34820   0.40274   0.82259   0.00000  Uiso   1.00
C75    C     0.15138   0.09728   0.17735   0.00000  Uiso   1.00
C76    C     0.40013   0.15439   0.82242   0.00000  Uiso   1.00
C77    C     0.09738   0.34831   0.17747   0.00000  Uiso   1.00
C78    C     0.40329   0.15110   0.67743   0.00000  Uiso   1.00
C79    C     0.00122   0.25010   0.39830   0.00000  Uiso   1.00
C80    C     0.09651   0.34889   0.32258   0.00000  Uiso   1.00
C81    C     0.34658   0.40098   0.67751   0.00000  Uiso   1.00
C82    C     0.15210   0.09782   0.32250   0.00000  Uiso   1.00
C83    C     0.09719   0.34824   0.67746   0.00000  Uiso   1.00
C84    C     0.40310   0.15116   0.32260   0.00000  Uiso   1.00
C85    C     0.15265   0.09840   0.67748   0.00000  Uiso   1.00
C86    C     0.34550   0.39995   0.32234   0.00000  Uiso   1.00
C87    C     0.39921   0.34519   0.32250   0.00000  Uiso   1.00
C88    C     0.09801   0.15253   0.67753   0.00000  Uiso   1.00
C89    C     0.34966   0.09564   0.32245   0.00000  Uiso   1.00
C90    C     0.00131   0.25005   0.60163   0.00000  Uiso   1.00
C91    C     0.15147   0.40300   0.67739   0.00000  Uiso   1.00
C92    C     0.09700   0.15150   0.32250   0.00000  Uiso   1.00
C93    C     0.39983   0.34575   0.67746   0.00000  Uiso   1.00
C94    C     0.15117   0.40330   0.32262   0.00000  Uiso   1.00
C95    C     0.34959   0.09583   0.67751   0.00000  Uiso   1.00
C96    C     0.49526   0.31621   0.39577   0.00000  Uiso   1.00
C97    C     0.00043   0.18367   0.60398   0.00000  Uiso   1.00
C98    C     0.18388   0.00526   0.39663   0.00000  Uiso   1.00
C99    C     0.31653   0.49514   0.60435   0.00000  Uiso   1.00
C100   C     0.49993   0.18368   0.39619   0.00000  Uiso   1.00
C101   C     0.25033   0.00001   0.39799   0.00000  Uiso   1.00
C102   C     0.49570   0.31618   0.60423   0.00000  Uiso   1.00
C103   C     0.31662   0.49409   0.39556   0.00000  Uiso   1.00
C104   C     0.18367   0.00541   0.60339   0.00000  Uiso   1.00
C105   C     0.24763   0.06647   0.89585   0.00000  Uiso   1.00
C106   C     0.24841   0.43362   0.10412   0.00000  Uiso   1.00
C107   C     0.43381   0.25332   0.89598   0.00000  Uiso   1.00
C108   C     0.06614   0.25178   0.10403   0.00000  Uiso   1.00
C109   C     0.24790   0.43388   0.89599   0.00000  Uiso   1.00
C110   C     0.24741   0.06623   0.10405   0.00000  Uiso   1.00
C111   C     0.06639   0.25144   0.89589   0.00000  Uiso   1.00
C112   C     0.00578   0.21699   0.58186   0.00000  Uiso   1.00
C113   C     0.25011   0.00012   0.60208   0.00000  Uiso   1.00
C114   C     0.43356   0.25317   0.10409   0.00000  Uiso   1.00
C115   C     0.25124   0.00020   0.89833   0.00000  Uiso   1.00
C116   C     0.25128   0.49993   0.10167   0.00000  Uiso   1.00
C117   C     0.00007   0.24877   0.89832   0.00000  Uiso   1.00
C118   C     0.49980   0.24880   0.10168   0.00000  Uiso   1.00
C119   C     0.02202   0.18481   0.47932   0.00000  Uiso   1.00
C120   C     0.01629   0.31707   0.52044   0.00000  Uiso   1.00
C121   C     0.31229   0.47449   0.47976   0.00000  Uiso   1.00
C122   C     0.18954   0.02801   0.52043   0.00000  Uiso   1.00
C123   C     0.01636   0.31704   0.47939   0.00000  Uiso   1.00
C124   C     0.21796   0.00669   0.41811   0.00000  Uiso   1.00
C125   C     0.02160   0.18461   0.52035   0.00000  Uiso   1.00
C126   C     0.18962   0.02801   0.47947   0.00000  Uiso   1.00
C127   C     0.31199   0.47419   0.52075   0.00000  Uiso   1.00
C128   C     0.26956   0.43407   0.97931   0.00000  Uiso   1.00
C129   C     0.26891   0.06631   0.02070   0.00000  Uiso   1.00
C130   C     0.06606   0.23057   0.97966   0.00000  Uiso   1.00
C131   C     0.43334   0.23217   0.02034   0.00000  Uiso   1.00
C132   C     0.26844   0.06655   0.97966   0.00000  Uiso   1.00
C133   C     0.26928   0.43387   0.02036   0.00000  Uiso   1.00
C134   C     0.43356   0.23171   0.97930   0.00000  Uiso   1.00
C135   C     0.28277   0.49403   0.58227   0.00000  Uiso   1.00
C136   C     0.06584   0.23020   0.02070   0.00000  Uiso   1.00
C137   C     0.25006   0.49999   0.35563   0.00000  Uiso   1.00
C138   C     0.24991   0.00001   0.64439   0.00000  Uiso   1.00
C139   C     0.00010   0.24997   0.35573   0.00000  Uiso   1.00
C140   C     0.00012   0.24995   0.64424   0.00000  Uiso   1.00
C141   C     0.00006   0.24989   0.85574   0.00000  Uiso   1.00
C142   C     0.49987   0.24990   0.14426   0.00000  Uiso   1.00
C143   C     0.25010   0.00012   0.85574   0.00000  Uiso   1.00
C144   C     0.25011   0.49994   0.14426   0.00000  Uiso   1.00
C145   C     0.18001   0.07000   0.24997   0.00000  Uiso   1.00
C146   C     0.00569   0.21708   0.41807   0.00000  Uiso   1.00
C147   C     0.31995   0.43001   0.75002   0.00000  Uiso   1.00
C148   C     0.43003   0.18001   0.25005   0.00000  Uiso   1.00
C149   C     0.06997   0.31998   0.75001   0.00000  Uiso   1.00
C150   C     0.31994   0.42999   0.24995   0.00000  Uiso   1.00
C151   C     0.18001   0.07000   0.75003   0.00000  Uiso   1.00
C152   C     0.06994   0.32001   0.25002   0.00000  Uiso   1.00
C153   C     0.43001   0.18003   0.74998   0.00000  Uiso   1.00
C154   C     0.17999   0.43006   0.74998   0.00000  Uiso   1.00
C155   C     0.31996   0.06997   0.24998   0.00000  Uiso   1.00
C156   C     0.42999   0.31998   0.75002   0.00000  Uiso   1.00
C157   C     0.00325   0.28340   0.58195   0.00000  Uiso   1.00
C158   C     0.06997   0.18003   0.25000   0.00000  Uiso   1.00
C159   C     0.31998   0.06996   0.74998   0.00000  Uiso   1.00
C160   C     0.17999   0.43006   0.25003   0.00000  Uiso   1.00
C161   C     0.06998   0.18003   0.75001   0.00000  Uiso   1.00
C162   C     0.42999   0.31997   0.24998   0.00000  Uiso   1.00
C163   C     0.13790   0.38903   0.21438   0.00000  Uiso   1.00
C164   C     0.36099   0.11203   0.78567   0.00000  Uiso   1.00
C165   C     0.11127   0.13832   0.21428   0.00000  Uiso   1.00
C166   C     0.38949   0.36268   0.78573   0.00000  Uiso   1.00
C167   C     0.36094   0.11211   0.21430   0.00000  Uiso   1.00
C168   C     0.28297   0.49369   0.41784   0.00000  Uiso   1.00
C169   C     0.13776   0.38916   0.78566   0.00000  Uiso   1.00
C170   C     0.38979   0.36295   0.21426   0.00000  Uiso   1.00
C171   C     0.11089   0.13790   0.78571   0.00000  Uiso   1.00
C172   C     0.13764   0.11082   0.78574   0.00000  Uiso   1.00
C173   C     0.36272   0.38971   0.21426   0.00000  Uiso   1.00
C174   C     0.11087   0.36219   0.78567   0.00000  Uiso   1.00
C175   C     0.38797   0.13899   0.21434   0.00000  Uiso   1.00
C176   C     0.36230   0.38932   0.78573   0.00000  Uiso   1.00
C177   C     0.13790   0.11111   0.21426   0.00000  Uiso   1.00
C178   C     0.38789   0.13903   0.78568   0.00000  Uiso   1.00
C179   C     0.21776   0.00674   0.58191   0.00000  Uiso   1.00
C180   C     0.11097   0.36211   0.21437   0.00000  Uiso   1.00
C181   C     0.38872   0.13818   0.71427   0.00000  Uiso   1.00
C182   C     0.11139   0.36163   0.28580   0.00000  Uiso   1.00
C183   C     0.36041   0.38739   0.71439   0.00000  Uiso   1.00
C184   C     0.13873   0.11188   0.28566   0.00000  Uiso   1.00
C185   C     0.11167   0.36138   0.71425   0.00000  Uiso   1.00
C186   C     0.38866   0.13818   0.28575   0.00000  Uiso   1.00
C187   C     0.13906   0.11220   0.71435   0.00000  Uiso   1.00
C188   C     0.35997   0.38693   0.28553   0.00000  Uiso   1.00
C189   C     0.38675   0.35993   0.28556   0.00000  Uiso   1.00
C190   C     0.25426   0.03345   0.91807   0.00000  Uiso   1.00
C191   C     0.11209   0.13906   0.71434   0.00000  Uiso   1.00
C192   C     0.36193   0.11102   0.28570   0.00000  Uiso   1.00
C193   C     0.13856   0.38838   0.71423   0.00000  Uiso   1.00
C194   C     0.11165   0.13865   0.28568   0.00000  Uiso   1.00
C195   C     0.38710   0.36027   0.71439   0.00000  Uiso   1.00
C196   C     0.13837   0.38856   0.28581   0.00000  Uiso   1.00
C197   C     0.36193   0.11108   0.71428   0.00000  Uiso   1.00
C198   C     0.01266   0.21702   0.45871   0.00000  Uiso   1.00
C199   C     0.00994   0.28413   0.54120   0.00000  Uiso   1.00
C200   C     0.28250   0.48962   0.45887   0.00000  Uiso   1.00
H201   H     0.03325   0.09985   0.44449   0.00000  Uiso   1.00
H202   H     0.27554   0.15168   0.05576   0.00000  Uiso   1.00
H203   H     0.12166   0.17805   0.92600   0.00000  Uiso   1.00
H204   H     0.37623   0.18096   0.07379   0.00000  Uiso   1.00
H205   H     0.32009   0.12343   0.92644   0.00000  Uiso   1.00
H206   H     0.32160   0.37838   0.07438   0.00000  Uiso   1.00
H207   H     0.34815   0.22575   0.94420   0.00000  Uiso   1.00
H208   H     0.15105   0.22269   0.05595   0.00000  Uiso   1.00
H209   H     0.06626   0.37460   0.57469   0.00000  Uiso   1.00
H210   H     0.35447   0.40874   0.42897   0.00000  Uiso   1.00
H211   H     0.10900   0.05735   0.55517   0.00000  Uiso   1.00
H212   H     0.01822   0.40256   0.44419   0.00000  Uiso   1.00
H213   H     0.07619   0.13038   0.57323   0.00000  Uiso   1.00
H214   H     0.10924   0.05756   0.44451   0.00000  Uiso   1.00
H215   H     0.39303   0.44660   0.55580   0.00000  Uiso   1.00
H216   H     0.27650   0.34883   0.94404   0.00000  Uiso   1.00
N217   N     0.16260   0.41346   0.14804   0.00000  Uiso   1.00
N218   N     0.33852   0.41500   0.14811   0.00000  Uiso   1.00
N219   N     0.08632   0.33763   0.85201   0.00000  Uiso   1.00
N220   N     0.41058   0.16623   0.14843   0.00000  Uiso   1.00
N221   N     0.33697   0.41342   0.85193   0.00000  Uiso   1.00
N222   N     0.16191   0.08623   0.14788   0.00000  Uiso   1.00
N223   N     0.40988   0.16661   0.85168   0.00000  Uiso   1.00
N224   N     0.08653   0.33751   0.14802   0.00000  Uiso   1.00
N225   N     0.41474   0.16142   0.64804   0.00000  Uiso   1.00
N226   N     0.08465   0.33874   0.35187   0.00000  Uiso   1.00
N227   N     0.33554   0.41172   0.64812   0.00000  Uiso   1.00
N228   N     0.33374   0.08948   0.85159   0.00000  Uiso   1.00
N229   N     0.16280   0.08672   0.35188   0.00000  Uiso   1.00
N230   N     0.08566   0.33770   0.64820   0.00000  Uiso   1.00
N231   N     0.41443   0.16155   0.35201   0.00000  Uiso   1.00
N232   N     0.16350   0.08750   0.64809   0.00000  Uiso   1.00
N233   N     0.33383   0.41027   0.35160   0.00000  Uiso   1.00
N234   N     0.40892   0.33342   0.35198   0.00000  Uiso   1.00
N235   N     0.08681   0.16336   0.64826   0.00000  Uiso   1.00
N236   N     0.33991   0.08341   0.35171   0.00000  Uiso   1.00
N237   N     0.16174   0.41462   0.64804   0.00000  Uiso   1.00
N238   N     0.08535   0.16176   0.35181   0.00000  Uiso   1.00
N239   N     0.08822   0.16481   0.14819   0.00000  Uiso   1.00
N240   N     0.40974   0.33415   0.64799   0.00000  Uiso   1.00
N241   N     0.16136   0.41501   0.35195   0.00000  Uiso   1.00
N242   N     0.33977   0.08372   0.64823   0.00000  Uiso   1.00
N243   N     0.48911   0.34216   0.37783   0.00000  Uiso   1.00
N244   N     0.49617   0.15730   0.62187   0.00000  Uiso   1.00
N245   N     0.15685   0.00388   0.37938   0.00000  Uiso   1.00
N246   N     0.34329   0.49623   0.62211   0.00000  Uiso   1.00
N247   N     0.49537   0.15723   0.37855   0.00000  Uiso   1.00
N248   N     0.48978   0.34213   0.62225   0.00000  Uiso   1.00
N249   N     0.34327   0.49461   0.37759   0.00000  Uiso   1.00
N250   N     0.41536   0.33970   0.85211   0.00000  Uiso   1.00
N251   N     0.15663   0.00413   0.62065   0.00000  Uiso   1.00
N252   N     0.24239   0.09260   0.87788   0.00000  Uiso   1.00
N253   N     0.24347   0.40740   0.12206   0.00000  Uiso   1.00
N254   N     0.40768   0.25905   0.87818   0.00000  Uiso   1.00
N255   N     0.09240   0.25689   0.12184   0.00000  Uiso   1.00
N256   N     0.24267   0.40765   0.87817   0.00000  Uiso   1.00
N257   N     0.24200   0.09241   0.12187   0.00000  Uiso   1.00
N258   N     0.09262   0.25635   0.87796   0.00000  Uiso   1.00
N259   N     0.40747   0.25877   0.12201   0.00000  Uiso   1.00
N260   N     0.33334   0.09020   0.14829   0.00000  Uiso   1.00
N261   N     0.16207   0.41390   0.85200   0.00000  Uiso   1.00
N262   N     0.41591   0.34021   0.14789   0.00000  Uiso   1.00
N263   N     0.08668   0.16334   0.85178   0.00000  Uiso   1.00
N264   N     0.16146   0.08574   0.85212   0.00000  Uiso   1.00
O265   O     0.25000  -0.00000   0.25000   0.00000  Uiso   1.00
O266   O     0.25000   0.46963   0.66245   0.00000  Uiso   1.00
O267   O     0.46964   0.25000   0.33755   0.00000  Uiso   1.00
O268   O     0.03037   0.25000   0.66245   0.00000  Uiso   1.00
O269   O     0.00000   0.21963   0.83755   0.00000  Uiso   1.00
O270   O     0.00000   0.28036   0.16245   0.00000  Uiso   1.00
O271   O     0.28037  -0.00000   0.83755   0.00000  Uiso   1.00
O272   O     0.21964  -0.00000   0.16245   0.00000  Uiso   1.00
O273   O     0.00000   0.28036   0.83755   0.00000  Uiso   1.00
O274   O     0.00000   0.21963   0.16245   0.00000  Uiso   1.00
O275   O     0.21964  -0.00000   0.83755   0.00000  Uiso   1.00
O276   O     0.25000  -0.00000   0.75000   0.00000  Uiso   1.00
O277   O     0.28037  -0.00000   0.16245   0.00000  Uiso   1.00
O278   O     0.20725   0.07307   0.27302   0.00000  Uiso   1.00
O279   O     0.29276   0.42692   0.72698   0.00000  Uiso   1.00
O280   O     0.42693   0.20724   0.27302   0.00000  Uiso   1.00
O281   O     0.07308   0.29275   0.72698   0.00000  Uiso   1.00
O282   O     0.29276   0.42692   0.27302   0.00000  Uiso   1.00
O283   O     0.20725   0.07307   0.72698   0.00000  Uiso   1.00
O284   O     0.07308   0.29275   0.27302   0.00000  Uiso   1.00
O285   O     0.42693   0.20724   0.72698   0.00000  Uiso   1.00
O286   O     0.20725   0.42692   0.72698   0.00000  Uiso   1.00
O287   O     0.00000   0.25000   0.25000   0.00000  Uiso   1.00
O288   O     0.29276   0.07307   0.27302   0.00000  Uiso   1.00
O289   O     0.42693   0.29275   0.72698   0.00000  Uiso   1.00
O290   O     0.07308   0.20724   0.27302   0.00000  Uiso   1.00
O291   O     0.29276   0.07307   0.72698   0.00000  Uiso   1.00
O292   O     0.20725   0.42692   0.27302   0.00000  Uiso   1.00
O293   O     0.07308   0.20724   0.72698   0.00000  Uiso   1.00
O294   O     0.42693   0.29275   0.27302   0.00000  Uiso   1.00
O295   O     0.45725   0.32307   0.77302   0.00000  Uiso   1.00
O296   O     0.04276   0.17692   0.22698   0.00000  Uiso   1.00
O297   O     0.17693   0.45724   0.77302   0.00000  Uiso   1.00
O298   O     0.00000   0.25000   0.75000   0.00000  Uiso   1.00
O299   O     0.32308   0.04275   0.22698   0.00000  Uiso   1.00
O300   O     0.04276   0.17692   0.77302   0.00000  Uiso   1.00
O301   O     0.45725   0.32307   0.22698   0.00000  Uiso   1.00
O302   O     0.32308   0.04275   0.77302   0.00000  Uiso   1.00
O303   O     0.17693   0.45724   0.22698   0.00000  Uiso   1.00
O304   O     0.45725   0.17692   0.22698   0.00000  Uiso   1.00
O305   O     0.04276   0.32307   0.77302   0.00000  Uiso   1.00
O306   O     0.17693   0.04275   0.22698   0.00000  Uiso   1.00
O307   O     0.32308   0.45724   0.77302   0.00000  Uiso   1.00
O308   O     0.04276   0.32307   0.22698   0.00000  Uiso   1.00
O309   O     0.25000   0.46963   0.33755   0.00000  Uiso   1.00
O310   O     0.45725   0.17692   0.77302   0.00000  Uiso   1.00
O311   O     0.32308   0.45724   0.22698   0.00000  Uiso   1.00
O312   O     0.17693   0.04275   0.77302   0.00000  Uiso   1.00
O313   O     0.06631   0.15623   0.44077   0.00000  Uiso   1.00
O314   O     0.01981   0.11933   0.45964   0.00000  Uiso   1.00
O315   O     0.00982   0.37821   0.53951   0.00000  Uiso   1.00
O316   O     0.06085   0.35027   0.56204   0.00000  Uiso   1.00
O317   O     0.37262   0.46471   0.45955   0.00000  Uiso   1.00
O318   O     0.33237   0.42108   0.44068   0.00000  Uiso   1.00
O319   O     0.17122   0.07733   0.55909   0.00000  Uiso   1.00
O320   O     0.25000   0.03036   0.66245   0.00000  Uiso   1.00
O321   O     0.12513   0.04004   0.54001   0.00000  Uiso   1.00
O322   O     0.05758   0.35038   0.44126   0.00000  Uiso   1.00
O323   O     0.00697   0.38172   0.45934   0.00000  Uiso   1.00
O324   O     0.01910   0.12332   0.53988   0.00000  Uiso   1.00
O325   O     0.06891   0.15438   0.56095   0.00000  Uiso   1.00
O326   O     0.17153   0.07734   0.44067   0.00000  Uiso   1.00
O327   O     0.12529   0.04023   0.45974   0.00000  Uiso   1.00
O328   O     0.33130   0.42502   0.55913   0.00000  Uiso   1.00
O329   O     0.37657   0.46357   0.54060   0.00000  Uiso   1.00
O330   O     0.31255   0.40340   0.94095   0.00000  Uiso   1.00
O331   O     0.03037   0.25000   0.33755   0.00000  Uiso   1.00
O332   O     0.26405   0.36891   0.95927   0.00000  Uiso   1.00
O333   O     0.31177   0.09732   0.05901   0.00000  Uiso   1.00
O334   O     0.26315   0.13149   0.04061   0.00000  Uiso   1.00
O335   O     0.12739   0.23467   0.96053   0.00000  Uiso   1.00
O336   O     0.09751   0.18451   0.93848   0.00000  Uiso   1.00
O337   O     0.37218   0.23790   0.03959   0.00000  Uiso   1.00
O338   O     0.40057   0.18684   0.06138   0.00000  Uiso   1.00
O339   O     0.26300   0.12769   0.96033   0.00000  Uiso   1.00
O340   O     0.31407   0.09911   0.93882   0.00000  Uiso   1.00
O341   O     0.26524   0.37250   0.03939   0.00000  Uiso   1.00
O342   O     0.46964   0.25000   0.66245   0.00000  Uiso   1.00
O343   O     0.31518   0.40250   0.06181   0.00000  Uiso   1.00
O344   O     0.40225   0.18912   0.94094   0.00000  Uiso   1.00
O345   O     0.36843   0.23797   0.95937   0.00000  Uiso   1.00
O346   O     0.09625   0.18698   0.05901   0.00000  Uiso   1.00
O347   O     0.13104   0.23528   0.04074   0.00000  Uiso   1.00
O348   O     0.25000   0.03036   0.33755   0.00000  Uiso   1.00
Zn349  Zn    0.20660  -0.00000   0.21735   0.00000  Uiso   1.00
Zn350  Zn    0.04341   0.25000   0.28265   0.00000  Uiso   1.00
Zn351  Zn    0.25000   0.45659   0.71735   0.00000  Uiso   1.00
Zn352  Zn    0.25000   0.04340   0.28265   0.00000  Uiso   1.00
Zn353  Zn    0.04341   0.25000   0.71735   0.00000  Uiso   1.00
Zn354  Zn    0.45660   0.25000   0.28265   0.00000  Uiso   1.00
Zn355  Zn    0.25000   0.04340   0.71735   0.00000  Uiso   1.00
Zn356  Zn    0.25000   0.45659   0.28265   0.00000  Uiso   1.00
Zn357  Zn    0.29341  -0.00000   0.78265   0.00000  Uiso   1.00
Zn358  Zn    0.00000   0.20659   0.21735   0.00000  Uiso   1.00
Zn359  Zn    0.00000   0.29340   0.78265   0.00000  Uiso   1.00
Zn360  Zn    0.29341  -0.00000   0.21735   0.00000  Uiso   1.00
Zn361  Zn    0.20660  -0.00000   0.78265   0.00000  Uiso   1.00
Zn362  Zn    0.00000   0.29340   0.21735   0.00000  Uiso   1.00
Zn363  Zn    0.00000   0.20659   0.78265   0.00000  Uiso   1.00
Zn364  Zn    0.45660   0.25000   0.71735   0.00000  Uiso   1.00
C365   C     0.50307   0.28344   0.41798   0.00000  Uiso   1.00
C366   C     0.75467   0.46674   0.08193   0.00000  Uiso   1.00
C367   C     0.71882   0.01180   0.54111   0.00000  Uiso   1.00
C368   C     0.50983   0.28414   0.45870   0.00000  Uiso   1.00
C369   C     0.51257   0.21688   0.54115   0.00000  Uiso   1.00
C370   C     0.71896   0.01177   0.45889   0.00000  Uiso   1.00
C371   C     0.78227   0.48965   0.54133   0.00000  Uiso   1.00
C372   C     0.76143   0.46664   0.95871   0.00000  Uiso   1.00
C373   C     0.76115   0.03364   0.04130   0.00000  Uiso   1.00
C374   C     0.53355   0.23857   0.95883   0.00000  Uiso   1.00
C375   C     0.96605   0.23942   0.04117   0.00000  Uiso   1.00
C376   C     0.76095   0.03389   0.95882   0.00000  Uiso   1.00
C377   C     0.96681   0.24607   0.91803   0.00000  Uiso   1.00
C378   C     0.76139   0.46641   0.04118   0.00000  Uiso   1.00
C379   C     0.96630   0.23923   0.95870   0.00000  Uiso   1.00
C380   C     0.53330   0.23846   0.04130   0.00000  Uiso   1.00
C381   C     0.59791   0.34824   0.25007   0.00000  Uiso   1.00
C382   C     0.90183   0.15199   0.74998   0.00000  Uiso   1.00
C383   C     0.65184   0.09807   0.24995   0.00000  Uiso   1.00
C384   C     0.84798   0.40186   0.75005   0.00000  Uiso   1.00
C385   C     0.90184   0.15196   0.25005   0.00000  Uiso   1.00
C386   C     0.59798   0.34818   0.74997   0.00000  Uiso   1.00
C387   C     0.84797   0.40183   0.24990   0.00000  Uiso   1.00
C388   C     0.53297   0.24531   0.08197   0.00000  Uiso   1.00
C389   C     0.65186   0.09808   0.75005   0.00000  Uiso   1.00
C390   C     0.59808   0.15194   0.75002   0.00000  Uiso   1.00
C391   C     0.90182   0.34803   0.24993   0.00000  Uiso   1.00
C392   C     0.65177   0.40207   0.74995   0.00000  Uiso   1.00
C393   C     0.84805   0.09807   0.24999   0.00000  Uiso   1.00
C394   C     0.90183   0.34806   0.75005   0.00000  Uiso   1.00
C395   C     0.59806   0.15195   0.24999   0.00000  Uiso   1.00
C396   C     0.84808   0.09806   0.74998   0.00000  Uiso   1.00
C397   C     0.65177   0.40207   0.25008   0.00000  Uiso   1.00
C398   C     0.51139   0.25058   0.47933   0.00000  Uiso   1.00
C399   C     0.75454   0.46701   0.91805   0.00000  Uiso   1.00
C400   C     0.51143   0.25054   0.52058   0.00000  Uiso   1.00
C401   C     0.75072   0.00073   0.47949   0.00000  Uiso   1.00
C402   C     0.75063   0.00076   0.52059   0.00000  Uiso   1.00
C403   C     0.76137   0.00021   0.97937   0.00000  Uiso   1.00
C404   C     0.76141   0.00009   0.02063   0.00000  Uiso   1.00
C405   C     0.99986   0.23874   0.97937   0.00000  Uiso   1.00
C406   C     0.99973   0.23875   0.02063   0.00000  Uiso   1.00
C407   C     0.53775   0.15289   0.45870   0.00000  Uiso   1.00
C408   C     0.52834   0.35061   0.54093   0.00000  Uiso   1.00
C409   C     0.84124   0.45360   0.45949   0.00000  Uiso   1.00
C410   C     0.75428   0.03317   0.08197   0.00000  Uiso   1.00
C411   C     0.66177   0.05025   0.54104   0.00000  Uiso   1.00
C412   C     0.52863   0.35048   0.45884   0.00000  Uiso   1.00
C413   C     0.53599   0.15200   0.54076   0.00000  Uiso   1.00
C414   C     0.66196   0.05031   0.45875   0.00000  Uiso   1.00
C415   C     0.84018   0.45248   0.54139   0.00000  Uiso   1.00
C416   C     0.78375   0.40147   0.95868   0.00000  Uiso   1.00
C417   C     0.78296   0.09904   0.04129   0.00000  Uiso   1.00
C418   C     0.59909   0.21716   0.95926   0.00000  Uiso   1.00
C419   C     0.89995   0.21961   0.04076   0.00000  Uiso   1.00
C420   C     0.78119   0.09987   0.95926   0.00000  Uiso   1.00
C421   C     0.53325   0.24525   0.91807   0.00000  Uiso   1.00
C422   C     0.78267   0.40084   0.04079   0.00000  Uiso   1.00
C423   C     0.90073   0.21792   0.95869   0.00000  Uiso   1.00
C424   C     0.59836   0.21579   0.04132   0.00000  Uiso   1.00
C425   C     0.65175   0.40262   0.17748   0.00000  Uiso   1.00
C426   C     0.84582   0.09953   0.82239   0.00000  Uiso   1.00
C427   C     0.59844   0.15307   0.17748   0.00000  Uiso   1.00
C428   C     0.90388   0.34978   0.82265   0.00000  Uiso   1.00
C429   C     0.84557   0.09992   0.17756   0.00000  Uiso   1.00
C430   C     0.65140   0.40291   0.82256   0.00000  Uiso   1.00
C431   C     0.90432   0.35020   0.17735   0.00000  Uiso   1.00
C432   C     0.96653   0.24612   0.08192   0.00000  Uiso   1.00
C433   C     0.59746   0.15206   0.82251   0.00000  Uiso   1.00
C434   C     0.65100   0.09687   0.82266   0.00000  Uiso   1.00
C435   C     0.84925   0.40375   0.17741   0.00000  Uiso   1.00
C436   C     0.59722   0.34842   0.82257   0.00000  Uiso   1.00
C437   C     0.90051   0.15415   0.17763   0.00000  Uiso   1.00
C438   C     0.84820   0.40274   0.82259   0.00000  Uiso   1.00
C439   C     0.65138   0.09728   0.17735   0.00000  Uiso   1.00
C440   C     0.90013   0.15439   0.82242   0.00000  Uiso   1.00
C441   C     0.59738   0.34831   0.17747   0.00000  Uiso   1.00
C442   C     0.90329   0.15110   0.67743   0.00000  Uiso   1.00
C443   C     0.50122   0.25010   0.39830   0.00000  Uiso   1.00
C444   C     0.59651   0.34889   0.32258   0.00000  Uiso   1.00
C445   C     0.84658   0.40098   0.67751   0.00000  Uiso   1.00
C446   C     0.65210   0.09782   0.32250   0.00000  Uiso   1.00
C447   C     0.59719   0.34824   0.67746   0.00000  Uiso   1.00
C448   C     0.90310   0.15116   0.32260   0.00000  Uiso   1.00
C449   C     0.65265   0.09840   0.67748   0.00000  Uiso   1.00
C450   C     0.84550   0.39995   0.32234   0.00000  Uiso   1.00
C451   C     0.89921   0.34519   0.32250   0.00000  Uiso   1.00
C452   C     0.59801   0.15253   0.67753   0.00000  Uiso   1.00
C453   C     0.84966   0.09564   0.32245   0.00000  Uiso   1.00
C454   C     0.50131   0.25005   0.60163   0.00000  Uiso   1.00
C455   C     0.65147   0.40300   0.67739   0.00000  Uiso   1.00
C456   C     0.59700   0.15150   0.32250   0.00000  Uiso   1.00
C457   C     0.89983   0.34575   0.67746   0.00000  Uiso   1.00
C458   C     0.65117   0.40330   0.32262   0.00000  Uiso   1.00
C459   C     0.84959   0.09583   0.67751   0.00000  Uiso   1.00
C460   C     0.99526   0.31621   0.39577   0.00000  Uiso   1.00
C461   C     0.50043   0.18367   0.60398   0.00000  Uiso   1.00
C462   C     0.68388   0.00526   0.39663   0.00000  Uiso   1.00
C463   C     0.81653   0.49514   0.60435   0.00000  Uiso   1.00
C464   C     0.99993   0.18368   0.39619   0.00000  Uiso   1.00
C465   C     0.75033   0.00001   0.39799   0.00000  Uiso   1.00
C466   C     0.99570   0.31618   0.60423   0.00000  Uiso   1.00
C467   C     0.81662   0.49409   0.39556   0.00000  Uiso   1.00
C468   C     0.68367   0.00541   0.60339   0.00000  Uiso   1.00
C469   C     0.74763   0.06647   0.89585   0.00000  Uiso   1.00
C470   C     0.74841   0.43362   0.10412   0.00000  Uiso   1.00
C471   C     0.93381   0.25332   0.89598   0.00000  Uiso   1.00
C472   C     0.56614   0.25178   0.10403   0.00000  Uiso   1.00
C473   C     0.74790   0.43388   0.89599   0.00000  Uiso   1.00
C474   C     0.74741   0.06623   0.10405   0.00000  Uiso   1.00
C475   C     0.56639   0.25144   0.89589   0.00000  Uiso   1.00
C476   C     0.50578   0.21699   0.58186   0.00000  Uiso   1.00
C477   C     0.75011   0.00012   0.60208   0.00000  Uiso   1.00
C478   C     0.93356   0.25317   0.10409   0.00000  Uiso   1.00
C479   C     0.75124   0.00020   0.89833   0.00000  Uiso   1.00
C480   C     0.75128   0.49993   0.10167   0.00000  Uiso   1.00
C481   C     0.50007   0.24877   0.89832   0.00000  Uiso   1.00
C482   C     0.99980   0.24880   0.10168   0.00000  Uiso   1.00
C483   C     0.52202   0.18481   0.47932   0.00000  Uiso   1.00
C484   C     0.51629   0.31707   0.52044   0.00000  Uiso   1.00
C485   C     0.81229   0.47449   0.47976   0.00000  Uiso   1.00
C486   C     0.68954   0.02801   0.52043   0.00000  Uiso   1.00
C487   C     0.51636   0.31704   0.47939   0.00000  Uiso   1.00
C488   C     0.71796   0.00669   0.41811   0.00000  Uiso   1.00
C489   C     0.52160   0.18461   0.52035   0.00000  Uiso   1.00
C490   C     0.68962   0.02801   0.47947   0.00000  Uiso   1.00
C491   C     0.81199   0.47419   0.52075   0.00000  Uiso   1.00
C492   C     0.76956   0.43407   0.97931   0.00000  Uiso   1.00
C493   C     0.76891   0.06631   0.02070   0.00000  Uiso   1.00
C494   C     0.56606   0.23057   0.97966   0.00000  Uiso   1.00
C495   C     0.93334   0.23217   0.02034   0.00000  Uiso   1.00
C496   C     0.76844   0.06655   0.97966   0.00000  Uiso   1.00
C497   C     0.76928   0.43387   0.02036   0.00000  Uiso   1.00
C498   C     0.93356   0.23171   0.97930   0.00000  Uiso   1.00
C499   C     0.78277   0.49403   0.58227   0.00000  Uiso   1.00
C500   C     0.56584   0.23020   0.02070   0.00000  Uiso   1.00
C501   C     0.75006   0.49999   0.35563   0.00000  Uiso   1.00
C502   C     0.74991   0.00001   0.64439   0.00000  Uiso   1.00
C503   C     0.50010   0.24997   0.35573   0.00000  Uiso   1.00
C504   C     0.50012   0.24995   0.64424   0.00000  Uiso   1.00
C505   C     0.50006   0.24989   0.85574   0.00000  Uiso   1.00
C506   C     0.99987   0.24990   0.14426   0.00000  Uiso   1.00
C507   C     0.75010   0.00012   0.85574   0.00000  Uiso   1.00
C508   C     0.75011   0.49994   0.14426   0.00000  Uiso   1.00
C509   C     0.68001   0.07000   0.24997   0.00000  Uiso   1.00
C510   C     0.50569   0.21708   0.41807   0.00000  Uiso   1.00
C511   C     0.81995   0.43001   0.75002   0.00000  Uiso   1.00
C512   C     0.93003   0.18001   0.25005   0.00000  Uiso   1.00
C513   C     0.56997   0.31998   0.75001   0.00000  Uiso   1.00
C514   C     0.81994   0.42999   0.24995   0.00000  Uiso   1.00
C515   C     0.68001   0.07000   0.75003   0.00000  Uiso   1.00
C516   C     0.56994   0.32001   0.25002   0.00000  Uiso   1.00
C517   C     0.93001   0.18003   0.74998   0.00000  Uiso   1.00
C518   C     0.67999   0.43006   0.74998   0.00000  Uiso   1.00
C519   C     0.81996   0.06997   0.24998   0.00000  Uiso   1.00
C520   C     0.92999   0.31998   0.75002   0.00000  Uiso   1.00
C521   C     0.50325   0.28340   0.58195   0.00000  Uiso   1.00
C522   C     0.56997   0.18003   0.25000   0.00000  Uiso   1.00
C523   C     0.81998   0.06996   0.74998   0.00000  Uiso   1.00
C524   C     0.67999   0.43006   0.25003   0.00000  Uiso   1.00
C525   C     0.56998   0.18003   0.75001   0.00000  Uiso   1.00
C526   C     0.92999   0.31997   0.24998   0.00000  Uiso   1.00
C527   C     0.63790   0.38903   0.21438   0.00000  Uiso   1.00
C528   C     0.86099   0.11203   0.78567   0.00000  Uiso   1.00
C529   C     0.61127   0.13832   0.21428   0.00000  Uiso   1.00
C530   C     0.88949   0.36268   0.78573   0.00000  Uiso   1.00
C531   C     0.86094   0.11211   0.21430   0.00000  Uiso   1.00
C532   C     0.78297   0.49369   0.41784   0.00000  Uiso   1.00
C533   C     0.63776   0.38916   0.78566   0.00000  Uiso   1.00
C534   C     0.88979   0.36295   0.21426   0.00000  Uiso   1.00
C535   C     0.61089   0.13790   0.78571   0.00000  Uiso   1.00
C536   C     0.63764   0.11082   0.78574   0.00000  Uiso   1.00
C537   C     0.86272   0.38971   0.21426   0.00000  Uiso   1.00
C538   C     0.61087   0.36219   0.78567   0.00000  Uiso   1.00
C539   C     0.88797   0.13899   0.21434   0.00000  Uiso   1.00
C540   C     0.86230   0.38932   0.78573   0.00000  Uiso   1.00
C541   C     0.63790   0.11111   0.21426   0.00000  Uiso   1.00
C542   C     0.88789   0.13903   0.78568   0.00000  Uiso   1.00
C543   C     0.71776   0.00674   0.58191   0.00000  Uiso   1.00
C544   C     0.61097   0.36211   0.21437   0.00000  Uiso   1.00
C545   C     0.88872   0.13818   0.71427   0.00000  Uiso   1.00
C546   C     0.61139   0.36163   0.28580   0.00000  Uiso   1.00
C547   C     0.86041   0.38739   0.71439   0.00000  Uiso   1.00
C548   C     0.63873   0.11188   0.28566   0.00000  Uiso   1.00
C549   C     0.61167   0.36138   0.71425   0.00000  Uiso   1.00
C550   C     0.88866   0.13818   0.28575   0.00000  Uiso   1.00
C551   C     0.63906   0.11220   0.71435   0.00000  Uiso   1.00
C552   C     0.85997   0.38693   0.28553   0.00000  Uiso   1.00
C553   C     0.88675   0.35993   0.28556   0.00000  Uiso   1.00
C554   C     0.75426   0.03345   0.91807   0.00000  Uiso   1.00
C555   C     0.61209   0.13906   0.71434   0.00000  Uiso   1.00
C556   C     0.86193   0.11102   0.28570   0.00000  Uiso   1.00
C557   C     0.63856   0.38838   0.71423   0.00000  Uiso   1.00
C558   C     0.61165   0.13865   0.28568   0.00000  Uiso   1.00
C559   C     0.88710   0.36027   0.71439   0.00000  Uiso   1.00
C560   C     0.63837   0.38856   0.28581   0.00000  Uiso   1.00
C561   C     0.86193   0.11108   0.71428   0.00000  Uiso   1.00
C562   C     0.51266   0.21702   0.45871   0.00000  Uiso   1.00
C563   C     0.50994   0.28413   0.54120   0.00000  Uiso   1.00
C564   C     0.78250   0.48962   0.45887   0.00000  Uiso   1.00
H565   H     0.53325   0.09985   0.44449   0.00000  Uiso   1.00
H566   H     0.77554   0.15168   0.05576   0.00000  Uiso   1.00
H567   H     0.62166   0.17805   0.92600   0.00000  Uiso   1.00
H568   H     0.87623   0.18096   0.07379   0.00000  Uiso   1.00
H569   H     0.82009   0.12343   0.92644   0.00000  Uiso   1.00
H570   H     0.82160   0.37838   0.07438   0.00000  Uiso   1.00
H571   H     0.84815   0.22575   0.94420   0.00000  Uiso   1.00
H572   H     0.65105   0.22269   0.05595   0.00000  Uiso   1.00
H573   H     0.56626   0.37460   0.57469   0.00000  Uiso   1.00
H574   H     0.85447   0.40874   0.42897   0.00000  Uiso   1.00
H575   H     0.60900   0.05735   0.55517   0.00000  Uiso   1.00
H576   H     0.51822   0.40256   0.44419   0.00000  Uiso   1.00
H577   H     0.57619   0.13038   0.57323   0.00000  Uiso   1.00
H578   H     0.60924   0.05756   0.44451   0.00000  Uiso   1.00
H579   H     0.89303   0.44660   0.55580   0.00000  Uiso   1.00
H580   H     0.77650   0.34883   0.94404   0.00000  Uiso   1.00
N581   N     0.66260   0.41346   0.14804   0.00000  Uiso   1.00
N582   N     0.83852   0.41500   0.14811   0.00000  Uiso   1.00
N583   N     0.58632   0.33763   0.85201   0.00000  Uiso   1.00
N584   N     0.91058   0.16623   0.14843   0.00000  Uiso   1.00
N585   N     0.83697   0.41342   0.85193   0.00000  Uiso   1.00
N586   N     0.66191   0.08623   0.14788   0.00000  Uiso   1.00
N587   N     0.90988   0.16661   0.85168   0.00000  Uiso   1.00
N588   N     0.58653   0.33751   0.14802   0.00000  Uiso   1.00
N589   N     0.91474   0.16142   0.64804   0.00000  Uiso   1.00
N590   N     0.58465   0.33874   0.35187   0.00000  Uiso   1.00
N591   N     0.83554   0.41172   0.64812   0.00000  Uiso   1.00
N592   N     0.83374   0.08948   0.85159   0.00000  Uiso   1.00
N593   N     0.66280   0.08672   0.35188   0.00000  Uiso   1.00
N594   N     0.58566   0.33770   0.64820   0.00000  Uiso   1.00
N595   N     0.91443   0.16155   0.35201   0.00000  Uiso   1.00
N596   N     0.66350   0.08750   0.64809   0.00000  Uiso   1.00
N597   N     0.83383   0.41027   0.35160   0.00000  Uiso   1.00
N598   N     0.90892   0.33342   0.35198   0.00000  Uiso   1.00
N599   N     0.58681   0.16336   0.64826   0.00000  Uiso   1.00
N600   N     0.83991   0.08341   0.35171   0.00000  Uiso   1.00
N601   N     0.66174   0.41462   0.64804   0.00000  Uiso   1.00
N602   N     0.58535   0.16176   0.35181   0.00000  Uiso   1.00
N603   N     0.58822   0.16481   0.14819   0.00000  Uiso   1.00
N604   N     0.90974   0.33415   0.64799   0.00000  Uiso   1.00
N605   N     0.66136   0.41501   0.35195   0.00000  Uiso   1.00
N606   N     0.83977   0.08372   0.64823   0.00000  Uiso   1.00
N607   N     0.98911   0.34216   0.37783   0.00000  Uiso   1.00
N608   N     0.99617   0.15730   0.62187   0.00000  Uiso   1.00
N609   N     0.65685   0.00388   0.37938   0.00000  Uiso   1.00
N610   N     0.84329   0.49623   0.62211   0.00000  Uiso   1.00
N611   N     0.99537   0.15723   0.37855   0.00000  Uiso   1.00
N612   N     0.98978   0.34213   0.62225   0.00000  Uiso   1.00
N613   N     0.84327   0.49461   0.37759   0.00000  Uiso   1.00
N614   N     0.91536   0.33970   0.85211   0.00000  Uiso   1.00
N615   N     0.65663   0.00413   0.62065   0.00000  Uiso   1.00
N616   N     0.74239   0.09260   0.87788   0.00000  Uiso   1.00
N617   N     0.74347   0.40740   0.12206   0.00000  Uiso   1.00
N618   N     0.90768   0.25905   0.87818   0.00000  Uiso   1.00
N619   N     0.59240   0.25689   0.12184   0.00000  Uiso   1.00
N620   N     0.74267   0.40765   0.87817   0.00000  Uiso   1.00
N621   N     0.74200   0.09241   0.12187   0.00000  Uiso   1.00
N622   N     0.59262   0.25635   0.87796   0.00000  Uiso   1.00
N623   N     0.90747   0.25877   0.12201   0.00000  Uiso   1.00
N624   N     0.83334   0.09020   0.14829   0.00000  Uiso   1.00
N625   N     0.66207   0.41390   0.85200   0.00000  Uiso   1.00
N626   N     0.91591   0.34021   0.14789   0.00000  Uiso   1.00
N627   N     0.58668   0.16334   0.85178   0.00000  Uiso   1.00
N628   N     0.66146   0.08574   0.85212   0.00000  Uiso   1.00
O629   O     0.75000  -0.00000   0.25000   0.00000  Uiso   1.00
O630   O     0.75000   0.46963   0.66245   0.00000  Uiso   1.00
O631   O     0.96964   0.25000   0.33755   0.00000  Uiso   1.00
O632   O     0.53037   0.25000   0.66245   0.00000  Uiso   1.00
O633   O     0.50000   0.21963   0.83755   0.00000  Uiso   1.00
O634   O     0.50000   0.28036   0.16245   0.00000  Uiso   1.00
O635   O     0.78037  -0.00000   0.83755   0.00000  Uiso   1.00
O636   O     0.71964  -0.00000   0.16245   0.00000  Uiso   1.00
O637   O     0.50000   0.28036   0.83755   0.00000  Uiso   1.00
O638   O     0.50000   0.21963   0.16245   0.00000  Uiso   1.00
O639   O     0.71964  -0.00000   0.83755   0.00000  Uiso   1.00
O640   O     0.75000  -0.00000   0.75000   0.00000  Uiso   1.00
O641   O     0.78037  -0.00000   0.16245   0.00000  Uiso   1.00
O642   O     0.70725   0.07307   0.27302   0.00000  Uiso   1.00
O643   O     0.79276   0.42692   0.72698   0.00000  Uiso   1.00
O644   O     0.92693   0.20724   0.27302   0.00000  Uiso   1.00
O645   O     0.57308   0.29275   0.72698   0.00000  Uiso   1.00
O646   O     0.79276   0.42692   0.27302   0.00000  Uiso   1.00
O647   O     0.70725   0.07307   0.72698   0.00000  Uiso   1.00
O648   O     0.57308   0.29275   0.27302   0.00000  Uiso   1.00
O649   O     0.92693   0.20724   0.72698   0.00000  Uiso   1.00
O650   O     0.70725   0.42692   0.72698   0.00000  Uiso   1.00
O651   O     0.50000   0.25000   0.25000   0.00000  Uiso   1.00
O652   O     0.79276   0.07307   0.27302   0.00000  Uiso   1.00
O653   O     0.92693   0.29275   0.72698   0.00000  Uiso   1.00
O654   O     0.57308   0.20724   0.27302   0.00000  Uiso   1.00
O655   O     0.79276   0.07307   0.72698   0.00000  Uiso   1.00
O656   O     0.70725   0.42692   0.27302   0.00000  Uiso   1.00
O657   O     0.57308   0.20724   0.72698   0.00000  Uiso   1.00
O658   O     0.92693   0.29275   0.27302   0.00000  Uiso   1.00
O659   O     0.95725   0.32307   0.77302   0.00000  Uiso   1.00
O660   O     0.54276   0.17692   0.22698   0.00000  Uiso   1.00
O661   O     0.67693   0.45724   0.77302   0.00000  Uiso   1.00
O662   O     0.50000   0.25000   0.75000   0.00000  Uiso   1.00
O663   O     0.82308   0.04275   0.22698   0.00000  Uiso   1.00
O664   O     0.54276   0.17692   0.77302   0.00000  Uiso   1.00
O665   O     0.95725   0.32307   0.22698   0.00000  Uiso   1.00
O666   O     0.82308   0.04275   0.77302   0.00000  Uiso   1.00
O667   O     0.67693   0.45724   0.22698   0.00000  Uiso   1.00
O668   O     0.95725   0.17692   0.22698   0.00000  Uiso   1.00
O669   O     0.54276   0.32307   0.77302   0.00000  Uiso   1.00
O670   O     0.67693   0.04275   0.22698   0.00000  Uiso   1.00
O671   O     0.82308   0.45724   0.77302   0.00000  Uiso   1.00
O672   O     0.54276   0.32307   0.22698   0.00000  Uiso   1.00
O673   O     0.75000   0.46963   0.33755   0.00000  Uiso   1.00
O674   O     0.95725   0.17692   0.77302   0.00000  Uiso   1.00
O675   O     0.82308   0.45724   0.22698   0.00000  Uiso   1.00
O676   O     0.67693   0.04275   0.77302   0.00000  Uiso   1.00
O677   O     0.56631   0.15623   0.44077   0.00000  Uiso   1.00
O678   O     0.51981   0.11933   0.45964   0.00000  Uiso   1.00
O679   O     0.50982   0.37821   0.53951   0.00000  Uiso   1.00
O680   O     0.56085   0.35027   0.56204   0.00000  Uiso   1.00
O681   O     0.87262   0.46471   0.45955   0.00000  Uiso   1.00
O682   O     0.83237   0.42108   0.44068   0.00000  Uiso   1.00
O683   O     0.67122   0.07733   0.55909   0.00000  Uiso   1.00
O684   O     0.75000   0.03036   0.66245   0.00000  Uiso   1.00
O685   O     0.62513   0.04004   0.54001   0.00000  Uiso   1.00
O686   O     0.55758   0.35038   0.44126   0.00000  Uiso   1.00
O687   O     0.50697   0.38172   0.45934   0.00000  Uiso   1.00
O688   O     0.51910   0.12332   0.53988   0.00000  Uiso   1.00
O689   O     0.56891   0.15438   0.56095   0.00000  Uiso   1.00
O690   O     0.67153   0.07734   0.44067   0.00000  Uiso   1.00
O691   O     0.62529   0.04023   0.45974   0.00000  Uiso   1.00
O692   O     0.83130   0.42502   0.55913   0.00000  Uiso   1.00
O693   O     0.87657   0.46357   0.54060   0.00000  Uiso   1.00
O694   O     0.81255   0.40340   0.94095   0.00000  Uiso   1.00
O695   O     0.53037   0.25000   0.33755   0.00000  Uiso   1.00
O696   O     0.76405   0.36891   0.95927   0.00000  Uiso   1.00
O697   O     0.81177   0.09732   0.05901   0.00000  Uiso   1.00
O698   O     0.76315   0.13149   0.04061   0.00000  Uiso   1.00
O699   O     0.62739   0.23467   0.96053   0.00000  Uiso   1.00
O700   O     0.59751   0.18451   0.93848   0.00000  Uiso   1.00
O701   O     0.87218   0.23790   0.03959   0.00000  Uiso   1.00
O702   O     0.90057   0.18684   0.06138   0.00000  Uiso   1.00
O703   O     0.76300   0.12769   0.96033   0.00000  Uiso   1.00
O704   O     0.81407   0.09911   0.93882   0.00000  Uiso   1.00
O705   O     0.76524   0.37250   0.03939   0.00000  Uiso   1.00
O706   O     0.96964   0.25000   0.66245   0.00000  Uiso   1.00
O707   O     0.81518   0.40250   0.06181   0.00000  Uiso   1.00
O708   O     0.90225   0.18912   0.94094   0.00000  Uiso   1.00
O709   O     0.86843   0.23797   0.95937   0.00000  Uiso   1.00
O710   O     0.59625   0.18698   0.05901   0.00000  Uiso   1.00
O711   O     0.63104   0.23528   0.04074   0.00000  Uiso   1.00
O712   O     0.75000   0.03036   0.33755   0.00000  Uiso   1.00
Zn713  Zn    0.70660  -0.00000   0.21735   0.00000  Uiso   1.00
Zn714  Zn    0.54341   0.25000   0.28265   0.00000  Uiso   1.00
Zn715  Zn    0.75000   0.45659   0.71735   0.00000  Uiso   1.00
Zn716  Zn    0.75000   0.04340   0.28265   0.00000  Uiso   1.00
Zn717  Zn    0.54341   0.25000   0.71735   0.00000  Uiso   1.00
Zn718  Zn    0.95660   0.25000   0.28265   0.00000  Uiso   1.00
Zn719  Zn    0.75000   0.04340   0.71735   0.00000  Uiso   1.00
Zn720  Zn    0.75000   0.45659   0.28265   0.00000  Uiso   1.00
Zn721  Zn    0.79341  -0.00000   0.78265   0.00000  Uiso   1.00
Zn722  Zn    0.50000   0.20659   0.21735   0.00000  Uiso   1.00
Zn723  Zn    0.50000   0.29340   0.78265   0.00000  Uiso   1.00
Zn724  Zn    0.79341  -0.00000   0.21735   0.00000  Uiso   1.00
Zn725  Zn    0.70660  -0.00000   0.78265   0.00000  Uiso   1.00
Zn726  Zn    0.50000   0.29340   0.21735   0.00000  Uiso   1.00
Zn727  Zn    0.50000   0.20659   0.78265   0.00000  Uiso   1.00
Zn728  Zn    0.95660   0.25000   0.71735   0.00000  Uiso   1.00
C729   C     0.00307   0.78344   0.41798   0.00000  Uiso   1.00
C730   C     0.25467   0.96674   0.08193   0.00000  Uiso   1.00
C731   C     0.21882   0.51180   0.54111   0.00000  Uiso   1.00
C732   C     0.00983   0.78414   0.45870   0.00000  Uiso   1.00
C733   C     0.01257   0.71688   0.54115   0.00000  Uiso   1.00
C734   C     0.21896   0.51177   0.45889   0.00000  Uiso   1.00
C735   C     0.28227   0.98965   0.54133   0.00000  Uiso   1.00
C736   C     0.26143   0.96664   0.95871   0.00000  Uiso   1.00
C737   C     0.26115   0.53364   0.04130   0.00000  Uiso   1.00
C738   C     0.03355   0.73857   0.95883   0.00000  Uiso   1.00
C739   C     0.46605   0.73942   0.04117   0.00000  Uiso   1.00
C740   C     0.26095   0.53389   0.95882   0.00000  Uiso   1.00
C741   C     0.46681   0.74607   0.91803   0.00000  Uiso   1.00
C742   C     0.26139   0.96641   0.04118   0.00000  Uiso   1.00
C743   C     0.46630   0.73923   0.95870   0.00000  Uiso   1.00
C744   C     0.03330   0.73846   0.04130   0.00000  Uiso   1.00
C745   C     0.09791   0.84824   0.25007   0.00000  Uiso   1.00
C746   C     0.40183   0.65199   0.74998   0.00000  Uiso   1.00
C747   C     0.15184   0.59807   0.24995   0.00000  Uiso   1.00
C748   C     0.34798   0.90186   0.75005   0.00000  Uiso   1.00
C749   C     0.40184   0.65196   0.25005   0.00000  Uiso   1.00
C750   C     0.09798   0.84818   0.74997   0.00000  Uiso   1.00
C751   C     0.34797   0.90183   0.24990   0.00000  Uiso   1.00
C752   C     0.03297   0.74531   0.08197   0.00000  Uiso   1.00
C753   C     0.15186   0.59808   0.75005   0.00000  Uiso   1.00
C754   C     0.09808   0.65194   0.75002   0.00000  Uiso   1.00
C755   C     0.40182   0.84803   0.24993   0.00000  Uiso   1.00
C756   C     0.15177   0.90207   0.74995   0.00000  Uiso   1.00
C757   C     0.34805   0.59807   0.24999   0.00000  Uiso   1.00
C758   C     0.40183   0.84806   0.75005   0.00000  Uiso   1.00
C759   C     0.09806   0.65195   0.24999   0.00000  Uiso   1.00
C760   C     0.34808   0.59806   0.74998   0.00000  Uiso   1.00
C761   C     0.15177   0.90207   0.25008   0.00000  Uiso   1.00
C762   C     0.01139   0.75058   0.47933   0.00000  Uiso   1.00
C763   C     0.25454   0.96701   0.91805   0.00000  Uiso   1.00
C764   C     0.01143   0.75054   0.52058   0.00000  Uiso   1.00
C765   C     0.25072   0.50073   0.47949   0.00000  Uiso   1.00
C766   C     0.25063   0.50076   0.52059   0.00000  Uiso   1.00
C767   C     0.26137   0.50021   0.97937   0.00000  Uiso   1.00
C768   C     0.26141   0.50009   0.02063   0.00000  Uiso   1.00
C769   C     0.49986   0.73874   0.97937   0.00000  Uiso   1.00
C770   C     0.49973   0.73875   0.02063   0.00000  Uiso   1.00
C771   C     0.03775   0.65289   0.45870   0.00000  Uiso   1.00
C772   C     0.02834   0.85061   0.54093   0.00000  Uiso   1.00
C773   C     0.34124   0.95360   0.45949   0.00000  Uiso   1.00
C774   C     0.25428   0.53317   0.08197   0.00000  Uiso   1.00
C775   C     0.16177   0.55025   0.54104   0.00000  Uiso   1.00
C776   C     0.02863   0.85048   0.45884   0.00000  Uiso   1.00
C777   C     0.03599   0.65200   0.54076   0.00000  Uiso   1.00
C778   C     0.16196   0.55031   0.45875   0.00000  Uiso   1.00
C779   C     0.34018   0.95248   0.54139   0.00000  Uiso   1.00
C780   C     0.28375   0.90147   0.95868   0.00000  Uiso   1.00
C781   C     0.28296   0.59904   0.04129   0.00000  Uiso   1.00
C782   C     0.09909   0.71716   0.95926   0.00000  Uiso   1.00
C783   C     0.39995   0.71961   0.04076   0.00000  Uiso   1.00
C784   C     0.28119   0.59987   0.95926   0.00000  Uiso   1.00
C785   C     0.03325   0.74525   0.91807   0.00000  Uiso   1.00
C786   C     0.28267   0.90084   0.04079   0.00000  Uiso   1.00
C787   C     0.40073   0.71792   0.95869   0.00000  Uiso   1.00
C788   C     0.09836   0.71579   0.04132   0.00000  Uiso   1.00
C789   C     0.15175   0.90262   0.17748   0.00000  Uiso   1.00
C790   C     0.34582   0.59953   0.82239   0.00000  Uiso   1.00
C791   C     0.09844   0.65307   0.17748   0.00000  Uiso   1.00
C792   C     0.40388   0.84978   0.82265   0.00000  Uiso   1.00
C793   C     0.34557   0.59992   0.17756   0.00000  Uiso   1.00
C794   C     0.15140   0.90291   0.82256   0.00000  Uiso   1.00
C795   C     0.40432   0.85020   0.17735   0.00000  Uiso   1.00
C796   C     0.46653   0.74612   0.08192   0.00000  Uiso   1.00
C797   C     0.09746   0.65206   0.82251   0.00000  Uiso   1.00
C798   C     0.15100   0.59687   0.82266   0.00000  Uiso   1.00
C799   C     0.34925   0.90375   0.17741   0.00000  Uiso   1.00
C800   C     0.09722   0.84842   0.82257   0.00000  Uiso   1.00
C801   C     0.40051   0.65415   0.17763   0.00000  Uiso   1.00
C802   C     0.34820   0.90274   0.82259   0.00000  Uiso   1.00
C803   C     0.15138   0.59728   0.17735   0.00000  Uiso   1.00
C804   C     0.40013   0.65439   0.82242   0.00000  Uiso   1.00
C805   C     0.09738   0.84831   0.17747   0.00000  Uiso   1.00
C806   C     0.40329   0.65110   0.67743   0.00000  Uiso   1.00
C807   C     0.00122   0.75010   0.39830   0.00000  Uiso   1.00
C808   C     0.09651   0.84889   0.32258   0.00000  Uiso   1.00
C809   C     0.34658   0.90098   0.67751   0.00000  Uiso   1.00
C810   C     0.15210   0.59782   0.32250   0.00000  Uiso   1.00
C811   C     0.09719   0.84824   0.67746   0.00000  Uiso   1.00
C812   C     0.40310   0.65116   0.32260   0.00000  Uiso   1.00
C813   C     0.15265   0.59840   0.67748   0.00000  Uiso   1.00
C814   C     0.34550   0.89995   0.32234   0.00000  Uiso   1.00
C815   C     0.39921   0.84519   0.32250   0.00000  Uiso   1.00
C816   C     0.09801   0.65253   0.67753   0.00000  Uiso   1.00
C817   C     0.34966   0.59564   0.32245   0.00000  Uiso   1.00
C818   C     0.00131   0.75005   0.60163   0.00000  Uiso   1.00
C819   C     0.15147   0.90300   0.67739   0.00000  Uiso   1.00
C820   C     0.09700   0.65150   0.32250   0.00000  Uiso   1.00
C821   C     0.39983   0.84575   0.67746   0.00000  Uiso   1.00
C822   C     0.15117   0.90330   0.32262   0.00000  Uiso   1.00
C823   C     0.34959   0.59583   0.67751   0.00000  Uiso   1.00
C824   C     0.49526   0.81621   0.39577   0.00000  Uiso   1.00
C825   C     0.00043   0.68367   0.60398   0.00000  Uiso   1.00
C826   C     0.18388   0.50526   0.39663   0.00000  Uiso   1.00
C827   C     0.31653   0.99514   0.60435   0.00000  Uiso   1.00
C828   C     0.49993   0.68368   0.39619   0.00000  Uiso   1.00
C829   C     0.25033   0.50001   0.39799   0.00000  Uiso   1.00
C830   C     0.49570   0.81618   0.60423   0.00000  Uiso   1.00
C831   C     0.31662   0.99409   0.39556   0.00000  Uiso   1.00
C832   C     0.18367   0.50541   0.60339   0.00000  Uiso   1.00
C833   C     0.24763   0.56647   0.89585   0.00000  Uiso   1.00
C834   C     0.24841   0.93362   0.10412   0.00000  Uiso   1.00
C835   C     0.43381   0.75332   0.89598   0.00000  Uiso   1.00
C836   C     0.06614   0.75178   0.10403   0.00000  Uiso   1.00
C837   C     0.24790   0.93388   0.89599   0.00000  Uiso   1.00
C838   C     0.24741   0.56623   0.10405   0.00000  Uiso   1.00
C839   C     0.06639   0.75144   0.89589   0.00000  Uiso   1.00
C840   C     0.00578   0.71699   0.58186   0.00000  Uiso   1.00
C841   C     0.25011   0.50012   0.60208   0.00000  Uiso   1.00
C842   C     0.43356   0.75317   0.10409   0.00000  Uiso   1.00
C843   C     0.25124   0.50020   0.89833   0.00000  Uiso   1.00
C844   C     0.25128   0.99993   0.10167   0.00000  Uiso   1.00
C845   C     0.00007   0.74877   0.89832   0.00000  Uiso   1.00
C846   C     0.49980   0.74880   0.10168   0.00000  Uiso   1.00
C847   C     0.02202   0.68481   0.47932   0.00000  Uiso   1.00
C848   C     0.01629   0.81707   0.52044   0.00000  Uiso   1.00
C849   C     0.31229   0.97449   0.47976   0.00000  Uiso   1.00
C850   C     0.18954   0.52801   0.52043   0.00000  Uiso   1.00
C851   C     0.01636   0.81704   0.47939   0.00000  Uiso   1.00
C852   C     0.21796   0.50669   0.41811   0.00000  Uiso   1.00
C853   C     0.02160   0.68461   0.52035   0.00000  Uiso   1.00
C854   C     0.18962   0.52801   0.47947   0.00000  Uiso   1.00
C855   C     0.31199   0.97419   0.52075   0.00000  Uiso   1.00
C856   C     0.26956   0.93407   0.97931   0.00000  Uiso   1.00
C857   C     0.26891   0.56631   0.02070   0.00000  Uiso   1.00
C858   C     0.06606   0.73057   0.97966   0.00000  Uiso   1.00
C859   C     0.43334   0.73217   0.02034   0.00000  Uiso   1.00
C860   C     0.26844   0.56655   0.97966   0.00000  Uiso   1.00
C861   C     0.26928   0.93387   0.02036   0.00000  Uiso   1.00
C862   C     0.43356   0.73171   0.97930   0.00000  Uiso   1.00
C863   C     0.28277   0.99403   0.58227   0.00000  Uiso   1.00
C864   C     0.06584   0.73020   0.02070   0.00000  Uiso   1.00
C865   C     0.25006   0.99999   0.35563   0.00000  Uiso   1.00
C866   C     0.24991   0.50001   0.64439   0.00000  Uiso   1.00
C867   C     0.00010   0.74997   0.35573   0.00000  Uiso   1.00
C868   C     0.00012   0.74995   0.64424   0.00000  Uiso   1.00
C869   C     0.00006   0.74989   0.85574   0.00000  Uiso   1.00
C870   C     0.49987   0.74990   0.14426   0.00000  Uiso   1.00
C871   C     0.25010   0.50012   0.85574   0.00000  Uiso   1.00
C872   C     0.25011   0.99994   0.14426   0.00000  Uiso   1.00
C873   C     0.18001   0.57000   0.24997   0.00000  Uiso   1.00
C874   C     0.00569   0.71708   0.41807   0.00000  Uiso   1.00
C875   C     0.31995   0.93001   0.75002   0.00000  Uiso   1.00
C876   C     0.43003   0.68001   0.25005   0.00000  Uiso   1.00
C877   C     0.06997   0.81998   0.75001   0.00000  Uiso   1.00
C878   C     0.31994   0.92999   0.24995   0.00000  Uiso   1.00
C879   C     0.18001   0.57000   0.75003   0.00000  Uiso   1.00
C880   C     0.06994   0.82001   0.25002   0.00000  Uiso   1.00
C881   C     0.43001   0.68003   0.74998   0.00000  Uiso   1.00
C882   C     0.17999   0.93006   0.74998   0.00000  Uiso   1.00
C883   C     0.31996   0.56997   0.24998   0.00000  Uiso   1.00
C884   C     0.42999   0.81998   0.75002   0.00000  Uiso   1.00
C885   C     0.00325   0.78340   0.58195   0.00000  Uiso   1.00
C886   C     0.06997   0.68003   0.25000   0.00000  Uiso   1.00
C887   C     0.31998   0.56996   0.74998   0.00000  Uiso   1.00
C888   C     0.17999   0.93006   0.25003   0.00000  Uiso   1.00
C889   C     0.06998   0.68003   0.75001   0.00000  Uiso   1.00
C890   C     0.42999   0.81997   0.24998   0.00000  Uiso   1.00
C891   C     0.13790   0.88903   0.21438   0.00000  Uiso   1.00
C892   C     0.36099   0.61203   0.78567   0.00000  Uiso   1.00
C893   C     0.11127   0.63832   0.21428   0.00000  Uiso   1.00
C894   C     0.38949   0.86268   0.78573   0.00000  Uiso   1.00
C895   C     0.36094   0.61211   0.21430   0.00000  Uiso   1.00
C896   C     0.28297   0.99369   0.41784   0.00000  Uiso   1.00
C897   C     0.13776   0.88916   0.78566   0.00000  Uiso   1.00
C898   C     0.38979   0.86295   0.21426   0.00000  Uiso   1.00
C899   C     0.11089   0.63790   0.78571   0.00000  Uiso   1.00
C900   C     0.13764   0.61082   0.78574   0.00000  Uiso   1.00
C901   C     0.36272   0.88971   0.21426   0.00000  Uiso   1.00
C902   C     0.11087   0.86219   0.78567   0.00000  Uiso   1.00
C903   C     0.38797   0.63899   0.21434   0.00000  Uiso   1.00
C904   C     0.36230   0.88932   0.78573   0.00000  Uiso   1.00
C905   C     0.13790   0.61111   0.21426   0.00000  Uiso   1.00
C906   C     0.38789   0.63903   0.78568   0.00000  Uiso   1.00
C907   C     0.21776   0.50674   0.58191   0.00000  Uiso   1.00
C908   C     0.11097   0.86211   0.21437   0.00000  Uiso   1.00
C909   C     0.38872   0.63818   0.71427   0.00000  Uiso   1.00
C910   C     0.11139   0.86163   0.28580   0.00000  Uiso   1.00
C911   C     0.36041   0.88739   0.71439   0.00000  Uiso   1.00
C912   C     0.13873   0.61188   0.28566   0.00000  Uiso   1.00
C913   C     0.11167   0.86138   0.71425   0.00000  Uiso   1.00
C914   C     0.38866   0.63818   0.28575   0.00000  Uiso   1.00
C915   C     0.13906   0.61220   0.71435   0.00000  Uiso   1.00
C916   C     0.35997   0.88693   0.28553   0.00000  Uiso   1.00
C917   C     0.38675   0.85993   0.28556   0.00000  Uiso   1.00
C918   C     0.25426   0.53345   0.91807   0.00000  Uiso   1.00
C919   C     0.11209   0.63906   0.71434   0.00000  Uiso   1.00
C920   C     0.36193   0.61102   0.28570   0.00000  Uiso   1.00
C921   C     0.13856   0.88838   0.71423   0.00000  Uiso   1.00
C922   C     0.11165   0.63865   0.28568   0.00000  Uiso   1.00
C923   C     0.38710   0.86027   0.71439   0.00000  Uiso   1.00
C924   C     0.13837   0.88856   0.28581   0.00000  Uiso   1.00
C925   C     0.36193   0.61108   0.71428   0.00000  Uiso   1.00
C926   C     0.01266   0.71702   0.45871   0.00000  Uiso   1.00
C927   C     0.00994   0.78413   0.54120   0.00000  Uiso   1.00
C928   C     0.28250   0.98962   0.45887   0.00000  Uiso   1.00
H929   H     0.03325   0.59985   0.44449   0.00000  Uiso   1.00
H930   H     0.27554   0.65168   0.05576   0.00000  Uiso   1.00
H931   H     0.12166   0.67805   0.92600   0.00000  Uiso   1.00
H932   H     0.37623   0.68096   0.07379   0.00000  Uiso   1.00
H933   H     0.32009   0.62343   0.92644   0.00000  Uiso   1.00
H934   H     0.32160   0.87838   0.07438   0.00000  Uiso   1.00
H935   H     0.34815   0.72575   0.94420   0.00000  Uiso   1.00
H936   H     0.15105   0.72269   0.05595   0.00000  Uiso   1.00
H937   H     0.06626   0.87460   0.57469   0.00000  Uiso   1.00
H938   H     0.35447   0.90874   0.42897   0.00000  Uiso   1.00
H939   H     0.10900   0.55735   0.55517   0.00000  Uiso   1.00
H940   H     0.01822   0.90256   0.44419   0.00000  Uiso   1.00
H941   H     0.07619   0.63038   0.57323   0.00000  Uiso   1.00
H942   H     0.10924   0.55756   0.44451   0.00000  Uiso   1.00
H943   H     0.39303   0.94660   0.55580   0.00000  Uiso   1.00
H944   H     0.27650   0.84883   0.94404   0.00000  Uiso   1.00
N945   N     0.16260   0.91346   0.14804   0.00000  Uiso   1.00
N946   N     0.33852   0.91500   0.14811   0.00000  Uiso   1.00
N947   N     0.08632   0.83763   0.85201   0.00000  Uiso   1.00
N948   N     0.41058   0.66623   0.14843   0.00000  Uiso   1.00
N949   N     0.33697   0.91342   0.85193   0.00000  Uiso   1.00
N950   N     0.16191   0.58623   0.14788   0.00000  Uiso   1.00
N951   N     0.40988   0.66661   0.85168   0.00000  Uiso   1.00
N952   N     0.08653   0.83751   0.14802   0.00000  Uiso   1.00
N953   N     0.41474   0.66142   0.64804   0.00000  Uiso   1.00
N954   N     0.08465   0.83874   0.35187   0.00000  Uiso   1.00
N955   N     0.33554   0.91172   0.64812   0.00000  Uiso   1.00
N956   N     0.33374   0.58948   0.85159   0.00000  Uiso   1.00
N957   N     0.16280   0.58672   0.35188   0.00000  Uiso   1.00
N958   N     0.08566   0.83770   0.64820   0.00000  Uiso   1.00
N959   N     0.41443   0.66155   0.35201   0.00000  Uiso   1.00
N960   N     0.16350   0.58750   0.64809   0.00000  Uiso   1.00
N961   N     0.33383   0.91027   0.35160   0.00000  Uiso   1.00
N962   N     0.40892   0.83342   0.35198   0.00000  Uiso   1.00
N963   N     0.08681   0.66336   0.64826   0.00000  Uiso   1.00
N964   N     0.33991   0.58341   0.35171   0.00000  Uiso   1.00
N965   N     0.16174   0.91462   0.64804   0.00000  Uiso   1.00
N966   N     0.08535   0.66176   0.35181   0.00000  Uiso   1.00
N967   N     0.08822   0.66481   0.14819   0.00000  Uiso   1.00
N968   N     0.40974   0.83415   0.64799   0.00000  Uiso   1.00
N969   N     0.16136   0.91501   0.35195   0.00000  Uiso   1.00
N970   N     0.33977   0.58372   0.64823   0.00000  Uiso   1.00
N971   N     0.48911   0.84216   0.37783   0.00000  Uiso   1.00
N972   N     0.49617   0.65730   0.62187   0.00000  Uiso   1.00
N973   N     0.15685   0.50388   0.37938   0.00000  Uiso   1.00
N974   N     0.34329   0.99623   0.62211   0.00000  Uiso   1.00
N975   N     0.49537   0.65723   0.37855   0.00000  Uiso   1.00
N976   N     0.48978   0.84213   0.62225   0.00000  Uiso   1.00
N977   N     0.34327   0.99461   0.37759   0.00000  Uiso   1.00
N978   N     0.41536   0.83970   0.85211   0.00000  Uiso   1.00
N979   N     0.15663   0.50413   0.62065   0.00000  Uiso   1.00
N980   N     0.24239   0.59260   0.87788   0.00000  Uiso   1.00
N981   N     0.24347   0.90740   0.12206   0.00000  Uiso   1.00
N982   N     0.40768   0.75905   0.87818   0.00000  Uiso   1.00
N983   N     0.09240   0.75689   0.12184   0.00000  Uiso   1.00
N984   N     0.24267   0.90765   0.87817   0.00000  Uiso   1.00
N985   N     0.24200   0.59241   0.12187   0.00000  Uiso   1.00
N986   N     0.09262   0.75635   0.87796   0.00000  Uiso   1.00
N987   N     0.40747   0.75877   0.12201   0.00000  Uiso   1.00
N988   N     0.33334   0.59020   0.14829   0.00000  Uiso   1.00
N989   N     0.16207   0.91390   0.85200   0.00000  Uiso   1.00
N990   N     0.41591   0.84021   0.14789   0.00000  Uiso   1.00
N991   N     0.08668   0.66334   0.85178   0.00000  Uiso   1.00
N992   N     0.16146   0.58574   0.85212   0.00000  Uiso   1.00
O993   O     0.25000   0.50000   0.25000   0.00000  Uiso   1.00
O994   O     0.25000   0.96963   0.66245   0.00000  Uiso   1.00
O995   O     0.46964   0.75000   0.33755   0.00000  Uiso   1.00
O996   O     0.03037   0.75000   0.66245   0.00000  Uiso   1.00
O997   O     0.00000   0.71963   0.83755   0.00000  Uiso   1.00
O998   O     0.00000   0.78036   0.16245   0.00000  Uiso   1.00
O999   O     0.28037   0.50000   0.83755   0.00000  Uiso   1.00
O1000  O     0.21964   0.50000   0.16245   0.00000  Uiso   1.00
O1001  O     0.00000   0.78036   0.83755   0.00000  Uiso   1.00
O1002  O     0.00000   0.71963   0.16245   0.00000  Uiso   1.00
O1003  O     0.21964   0.50000   0.83755   0.00000  Uiso   1.00
O1004  O     0.25000   0.50000   0.75000   0.00000  Uiso   1.00
O1005  O     0.28037   0.50000   0.16245   0.00000  Uiso   1.00
O1006  O     0.20725   0.57307   0.27302   0.00000  Uiso   1.00
O1007  O     0.29276   0.92692   0.72698   0.00000  Uiso   1.00
O1008  O     0.42693   0.70724   0.27302   0.00000  Uiso   1.00
O1009  O     0.07308   0.79275   0.72698   0.00000  Uiso   1.00
O1010  O     0.29276   0.92692   0.27302   0.00000  Uiso   1.00
O1011  O     0.20725   0.57307   0.72698   0.00000  Uiso   1.00
O1012  O     0.07308   0.79275   0.27302   0.00000  Uiso   1.00
O1013  O     0.42693   0.70724   0.72698   0.00000  Uiso   1.00
O1014  O     0.20725   0.92692   0.72698   0.00000  Uiso   1.00
O1015  O     0.00000   0.75000   0.25000   0.00000  Uiso   1.00
O1016  O     0.29276   0.57307   0.27302   0.00000  Uiso   1.00
O1017  O     0.42693   0.79275   0.72698   0.00000  Uiso   1.00
O1018  O     0.07308   0.70724   0.27302   0.00000  Uiso   1.00
O1019  O     0.29276   0.57307   0.72698   0.00000  Uiso   1.00
O1020  O     0.20725   0.92692   0.27302   0.00000  Uiso   1.00
O1021  O     0.07308   0.70724   0.72698   0.00000  Uiso   1.00
O1022  O     0.42693   0.79275   0.27302   0.00000  Uiso   1.00
O1023  O     0.45725   0.82307   0.77302   0.00000  Uiso   1.00
O1024  O     0.04276   0.67692   0.22698   0.00000  Uiso   1.00
O1025  O     0.17693   0.95724   0.77302   0.00000  Uiso   1.00
O1026  O     0.00000   0.75000   0.75000   0.00000  Uiso   1.00
O1027  O     0.32308   0.54275   0.22698   0.00000  Uiso   1.00
O1028  O     0.04276   0.67692   0.77302   0.00000  Uiso   1.00
O1029  O     0.45725   0.82307   0.22698   0.00000  Uiso   1.00
O1030  O     0.32308   0.54275   0.77302   0.00000  Uiso   1.00
O1031  O     0.17693   0.95724   0.22698   0.00000  Uiso   1.00
O1032  O     0.45725   0.67692   0.22698   0.00000  Uiso   1.00
O1033  O     0.04276   0.82307   0.77302   0.00000  Uiso   1.00
O1034  O     0.17693   0.54275   0.22698   0.00000  Uiso   1.00
O1035  O     0.32308   0.95724   0.77302   0.00000  Uiso   1.00
O1036  O     0.04276   0.82307   0.22698   0.00000  Uiso   1.00
O1037  O     0.25000   0.96963   0.33755   0.00000  Uiso   1.00
O1038  O     0.45725   0.67692   0.77302   0.00000  Uiso   1.00
O1039  O     0.32308   0.95724   0.22698   0.00000  Uiso   1.00
O1040  O     0.17693   0.54275   0.77302   0.00000  Uiso   1.00
O1041  O     0.06631   0.65623   0.44077   0.00000  Uiso   1.00
O1042  O     0.01981   0.61933   0.45964   0.00000  Uiso   1.00
O1043  O     0.00982   0.87821   0.53951   0.00000  Uiso   1.00
O1044  O     0.06085   0.85027   0.56204   0.00000  Uiso   1.00
O1045  O     0.37262   0.96471   0.45955   0.00000  Uiso   1.00
O1046  O     0.33237   0.92108   0.44068   0.00000  Uiso   1.00
O1047  O     0.17122   0.57733   0.55909   0.00000  Uiso   1.00
O1048  O     0.25000   0.53036   0.66245   0.00000  Uiso   1.00
O1049  O     0.12513   0.54004   0.54001   0.00000  Uiso   1.00
O1050  O     0.05758   0.85038   0.44126   0.00000  Uiso   1.00
O1051  O     0.00697   0.88172   0.45934   0.00000  Uiso   1.00
O1052  O     0.01910   0.62332   0.53988   0.00000  Uiso   1.00
O1053  O     0.06891   0.65438   0.56095   0.00000  Uiso   1.00
O1054  O     0.17153   0.57734   0.44067   0.00000  Uiso   1.00
O1055  O     0.12529   0.54023   0.45974   0.00000  Uiso   1.00
O1056  O     0.33130   0.92502   0.55913   0.00000  Uiso   1.00
O1057  O     0.37657   0.96357   0.54060   0.00000  Uiso   1.00
O1058  O     0.31255   0.90340   0.94095   0.00000  Uiso   1.00
O1059  O     0.03037   0.75000   0.33755   0.00000  Uiso   1.00
O1060  O     0.26405   0.86891   0.95927   0.00000  Uiso   1.00
O1061  O     0.31177   0.59732   0.05901   0.00000  Uiso   1.00
O1062  O     0.26315   0.63149   0.04061   0.00000  Uiso   1.00
O1063  O     0.12739   0.73467   0.96053   0.00000  Uiso   1.00
O1064  O     0.09751   0.68451   0.93848   0.00000  Uiso   1.00
O1065  O     0.37218   0.73790   0.03959   0.00000  Uiso   1.00
O1066  O     0.40057   0.68684   0.06138   0.00000  Uiso   1.00
O1067  O     0.26300   0.62769   0.96033   0.00000  Uiso   1.00
O1068  O     0.31407   0.59911   0.93882   0.00000  Uiso   1.00
O1069  O     0.26524   0.87250   0.03939   0.00000  Uiso   1.00
O1070  O     0.46964   0.75000   0.66245   0.00000  Uiso   1.00
O1071  O     0.31518   0.90250   0.06181   0.00000  Uiso   1.00
O1072  O     0.40225   0.68912   0.94094   0.00000  Uiso   1.00
O1073  O     0.36843   0.73797   0.95937   0.00000  Uiso   1.00
O1074  O     0.09625   0.68698   0.05901   0.00000  Uiso   1.00
O1075  O     0.13104   0.73528   0.04074   0.00000  Uiso   1.00
O1076  O     0.25000   0.53036   0.33755   0.00000  Uiso   1.00
Zn1077 Zn    0.20660   0.50000   0.21735   0.00000  Uiso   1.00
Zn1078 Zn    0.04341   0.75000   0.28265   0.00000  Uiso   1.00
Zn1079 Zn    0.25000   0.95659   0.71735   0.00000  Uiso   1.00
Zn1080 Zn    0.25000   0.54340   0.28265   0.00000  Uiso   1.00
Zn1081 Zn    0.04341   0.75000   0.71735   0.00000  Uiso   1.00
Zn1082 Zn    0.45660   0.75000   0.28265   0.00000  Uiso   1.00
Zn1083 Zn    0.25000   0.54340   0.71735   0.00000  Uiso   1.00
Zn1084 Zn    0.25000   0.95659   0.28265   0.00000  Uiso   1.00
Zn1085 Zn    0.29341   0.50000   0.78265   0.00000  Uiso   1.00
Zn1086 Zn    0.00000   0.70659   0.21735   0.00000  Uiso   1.00
Zn1087 Zn    0.00000   0.79340   0.78265   0.00000  Uiso   1.00
Zn1088 Zn    0.29341   0.50000   0.21735   0.00000  Uiso   1.00
Zn1089 Zn    0.20660   0.50000   0.78265   0.00000  Uiso   1.00
Zn1090 Zn    0.00000   0.79340   0.21735   0.00000  Uiso   1.00
Zn1091 Zn    0.00000   0.70659   0.78265   0.00000  Uiso   1.00
Zn1092 Zn    0.45660   0.75000   0.71735   0.00000  Uiso   1.00
C1093  C     0.50307   0.78344   0.41798   0.00000  Uiso   1.00
C1094  C     0.75467   0.96674   0.08193   0.00000  Uiso   1.00
C1095  C     0.71882   0.51180   0.54111   0.00000  Uiso   1.00
C1096  C     0.50983   0.78414   0.45870   0.00000  Uiso   1.00
C1097  C     0.51257   0.71688   0.54115   0.00000  Uiso   1.00
C1098  C     0.71896   0.51177   0.45889   0.00000  Uiso   1.00
C1099  C     0.78227   0.98965   0.54133   0.00000  Uiso   1.00
C1100  C     0.76143   0.96664   0.95871   0.00000  Uiso   1.00
C1101  C     0.76115   0.53364   0.04130   0.00000  Uiso   1.00
C1102  C     0.53355   0.73857   0.95883   0.00000  Uiso   1.00
C1103  C     0.96605   0.73942   0.04117   0.00000  Uiso   1.00
C1104  C     0.76095   0.53389   0.95882   0.00000  Uiso   1.00
C1105  C     0.96681   0.74607   0.91803   0.00000  Uiso   1.00
C1106  C     0.76139   0.96641   0.04118   0.00000  Uiso   1.00
C1107  C     0.96630   0.73923   0.95870   0.00000  Uiso   1.00
C1108  C     0.53330   0.73846   0.04130   0.00000  Uiso   1.00
C1109  C     0.59791   0.84824   0.25007   0.00000  Uiso   1.00
C1110  C     0.90183   0.65199   0.74998   0.00000  Uiso   1.00
C1111  C     0.65184   0.59807   0.24995   0.00000  Uiso   1.00
C1112  C     0.84798   0.90186   0.75005   0.00000  Uiso   1.00
C1113  C     0.90184   0.65196   0.25005   0.00000  Uiso   1.00
C1114  C     0.59798   0.84818   0.74997   0.00000  Uiso   1.00
C1115  C     0.84797   0.90183   0.24990   0.00000  Uiso   1.00
C1116  C     0.53297   0.74531   0.08197   0.00000  Uiso   1.00
C1117  C     0.65186   0.59808   0.75005   0.00000  Uiso   1.00
C1118  C     0.59808   0.65194   0.75002   0.00000  Uiso   1.00
C1119  C     0.90182   0.84803   0.24993   0.00000  Uiso   1.00
C1120  C     0.65177   0.90207   0.74995   0.00000  Uiso   1.00
C1121  C     0.84805   0.59807   0.24999   0.00000  Uiso   1.00
C1122  C     0.90183   0.84806   0.75005   0.00000  Uiso   1.00
C1123  C     0.59806   0.65195   0.24999   0.00000  Uiso   1.00
C1124  C     0.84808   0.59806   0.74998   0.00000  Uiso   1.00
C1125  C     0.65177   0.90207   0.25008   0.00000  Uiso   1.00
C1126  C     0.51139   0.75058   0.47933   0.00000  Uiso   1.00
C1127  C     0.75454   0.96701   0.91805   0.00000  Uiso   1.00
C1128  C     0.51143   0.75054   0.52058   0.00000  Uiso   1.00
C1129  C     0.75072   0.50073   0.47949   0.00000  Uiso   1.00
C1130  C     0.75063   0.50076   0.52059   0.00000  Uiso   1.00
C1131  C     0.76137   0.50021   0.97937   0.00000  Uiso   1.00
C1132  C     0.76141   0.50009   0.02063   0.00000  Uiso   1.00
C1133  C     0.99986   0.73874   0.97937   0.00000  Uiso   1.00
C1134  C     0.99973   0.73875   0.02063   0.00000  Uiso   1.00
C1135  C     0.53775   0.65289   0.45870   0.00000  Uiso   1.00
C1136  C     0.52834   0.85061   0.54093   0.00000  Uiso   1.00
C1137  C     0.84124   0.95360   0.45949   0.00000  Uiso   1.00
C1138  C     0.75428   0.53317   0.08197   0.00000  Uiso   1.00
C1139  C     0.66177   0.55025   0.54104   0.00000  Uiso   1.00
C1140  C     0.52863   0.85048   0.45884   0.00000  Uiso   1.00
C1141  C     0.53599   0.65200   0.54076   0.00000  Uiso   1.00
C1142  C     0.66196   0.55031   0.45875   0.00000  Uiso   1.00
C1143  C     0.84018   0.95248   0.54139   0.00000  Uiso   1.00
C1144  C     0.78375   0.90147   0.95868   0.00000  Uiso   1.00
C1145  C     0.78296   0.59904   0.04129   0.00000  Uiso   1.00
C1146  C     0.59909   0.71716   0.95926   0.00000  Uiso   1.00
C1147  C     0.89995   0.71961   0.04076   0.00000  Uiso   1.00
C1148  C     0.78119   0.59987   0.95926   0.00000  Uiso   1.00
C1149  C     0.53325   0.74525   0.91807   0.00000  Uiso   1.00
C1150  C     0.78267   0.90084   0.04079   0.00000  Uiso   1.00
C1151  C     0.90073   0.71792   0.95869   0.00000  Uiso   1.00
C1152  C     0.59836   0.71579   0.04132   0.00000  Uiso   1.00
C1153  C     0.65175   0.90262   0.17748   0.00000  Uiso   1.00
C1154  C     0.84582   0.59953   0.82239   0.00000  Uiso   1.00
C1155  C     0.59844   0.65307   0.17748   0.00000  Uiso   1.00
C1156  C     0.90388   0.84978   0.82265   0.00000  Uiso   1.00
C1157  C     0.84557   0.59992   0.17756   0.00000  Uiso   1.00
C1158  C     0.65140   0.90291   0.82256   0.00000  Uiso   1.00
C1159  C     0.90432   0.85020   0.17735   0.00000  Uiso   1.00
C1160  C     0.96653   0.74612   0.08192   0.00000  Uiso   1.00
C1161  C     0.59746   0.65206   0.82251   0.00000  Uiso   1.00
C1162  C     0.65100   0.59687   0.82266   0.00000  Uiso   1.00
C1163  C     0.84925   0.90375   0.17741   0.00000  Uiso   1.00
C1164  C     0.59722   0.84842   0.82257   0.00000  Uiso   1.00
C1165  C     0.90051   0.65415   0.17763   0.00000  Uiso   1.00
C1166  C     0.84820   0.90274   0.82259   0.00000  Uiso   1.00
C1167  C     0.65138   0.59728   0.17735   0.00000  Uiso   1.00
C1168  C     0.90013   0.65439   0.82242   0.00000  Uiso   1.00
C1169  C     0.59738   0.84831   0.17747   0.00000  Uiso   1.00
C1170  C     0.90329   0.65110   0.67743   0.00000  Uiso   1.00
C1171  C     0.50122   0.75010   0.39830   0.00000  Uiso   1.00
C1172  C     0.59651   0.84889   0.32258   0.00000  Uiso   1.00
C1173  C     0.84658   0.90098   0.67751   0.00000  Uiso   1.00
C1174  C     0.65210   0.59782   0.32250   0.00000  Uiso   1.00
C1175  C     0.59719   0.84824   0.67746   0.00000  Uiso   1.00
C1176  C     0.90310   0.65116   0.32260   0.00000  Uiso   1.00
C1177  C     0.65265   0.59840   0.67748   0.00000  Uiso   1.00
C1178  C     0.84550   0.89995   0.32234   0.00000  Uiso   1.00
C1179  C     0.89921   0.84519   0.32250   0.00000  Uiso   1.00
C1180  C     0.59801   0.65253   0.67753   0.00000  Uiso   1.00
C1181  C     0.84966   0.59564   0.32245   0.00000  Uiso   1.00
C1182  C     0.50131   0.75005   0.60163   0.00000  Uiso   1.00
C1183  C     0.65147   0.90300   0.67739   0.00000  Uiso   1.00
C1184  C     0.59700   0.65150   0.32250   0.00000  Uiso   1.00
C1185  C     0.89983   0.84575   0.67746   0.00000  Uiso   1.00
C1186  C     0.65117   0.90330   0.32262   0.00000  Uiso   1.00
C1187  C     0.84959   0.59583   0.67751   0.00000  Uiso   1.00
C1188  C     0.99526   0.81621   0.39577   0.00000  Uiso   1.00
C1189  C     0.50043   0.68367   0.60398   0.00000  Uiso   1.00
C1190  C     0.68388   0.50526   0.39663   0.00000  Uiso   1.00
C1191  C     0.81653   0.99514   0.60435   0.00000  Uiso   1.00
C1192  C     0.99993   0.68368   0.39619   0.00000  Uiso   1.00
C1193  C     0.75033   0.50001   0.39799   0.00000  Uiso   1.00
C1194  C     0.99570   0.81618   0.60423   0.00000  Uiso   1.00
C1195  C     0.81662   0.99409   0.39556   0.00000  Uiso   1.00
C1196  C     0.68367   0.50541   0.60339   0.00000  Uiso   1.00
C1197  C     0.74763   0.56647   0.89585   0.00000  Uiso   1.00
C1198  C     0.74841   0.93362   0.10412   0.00000  Uiso   1.00
C1199  C     0.93381   0.75332   0.89598   0.00000  Uiso   1.00
C1200  C     0.56614   0.75178   0.10403   0.00000  Uiso   1.00
C1201  C     0.74790   0.93388   0.89599   0.00000  Uiso   1.00
C1202  C     0.74741   0.56623   0.10405   0.00000  Uiso   1.00
C1203  C     0.56639   0.75144   0.89589   0.00000  Uiso   1.00
C1204  C     0.50578   0.71699   0.58186   0.00000  Uiso   1.00
C1205  C     0.75011   0.50012   0.60208   0.00000  Uiso   1.00
C1206  C     0.93356   0.75317   0.10409   0.00000  Uiso   1.00
C1207  C     0.75124   0.50020   0.89833   0.00000  Uiso   1.00
C1208  C     0.75128   0.99993   0.10167   0.00000  Uiso   1.00
C1209  C     0.50007   0.74877   0.89832   0.00000  Uiso   1.00
C1210  C     0.99980   0.74880   0.10168   0.00000  Uiso   1.00
C1211  C     0.52202   0.68481   0.47932   0.00000  Uiso   1.00
C1212  C     0.51629   0.81707   0.52044   0.00000  Uiso   1.00
C1213  C     0.81229   0.97449   0.47976   0.00000  Uiso   1.00
C1214  C     0.68954   0.52801   0.52043   0.00000  Uiso   1.00
C1215  C     0.51636   0.81704   0.47939   0.00000  Uiso   1.00
C1216  C     0.71796   0.50669   0.41811   0.00000  Uiso   1.00
C1217  C     0.52160   0.68461   0.52035   0.00000  Uiso   1.00
C1218  C     0.68962   0.52801   0.47947   0.00000  Uiso   1.00
C1219  C     0.81199   0.97419   0.52075   0.00000  Uiso   1.00
C1220  C     0.76956   0.93407   0.97931   0.00000  Uiso   1.00
C1221  C     0.76891   0.56631   0.02070   0.00000  Uiso   1.00
C1222  C     0.56606   0.73057   0.97966   0.00000  Uiso   1.00
C1223  C     0.93334   0.73217   0.02034   0.00000  Uiso   1.00
C1224  C     0.76844   0.56655   0.97966   0.00000  Uiso   1.00
C1225  C     0.76928   0.93387   0.02036   0.00000  Uiso   1.00
C1226  C     0.93356   0.73171   0.97930   0.00000  Uiso   1.00
C1227  C     0.78277   0.99403   0.58227   0.00000  Uiso   1.00
C1228  C     0.56584   0.73020   0.02070   0.00000  Uiso   1.00
C1229  C     0.75006   0.99999   0.35563   0.00000  Uiso   1.00
C1230  C     0.74991   0.50001   0.64439   0.00000  Uiso   1.00
C1231  C     0.50010   0.74997   0.35573   0.00000  Uiso   1.00
C1232  C     0.50012   0.74995   0.64424   0.00000  Uiso   1.00
C1233  C     0.50006   0.74989   0.85574   0.00000  Uiso   1.00
C1234  C     0.99987   0.74990   0.14426   0.00000  Uiso   1.00
C1235  C     0.75010   0.50012   0.85574   0.00000  Uiso   1.00
C1236  C     0.75011   0.99994   0.14426   0.00000  Uiso   1.00
C1237  C     0.68001   0.57000   0.24997   0.00000  Uiso   1.00
C1238  C     0.50569   0.71708   0.41807   0.00000  Uiso   1.00
C1239  C     0.81995   0.93001   0.75002   0.00000  Uiso   1.00
C1240  C     0.93003   0.68001   0.25005   0.00000  Uiso   1.00
C1241  C     0.56997   0.81998   0.75001   0.00000  Uiso   1.00
C1242  C     0.81994   0.92999   0.24995   0.00000  Uiso   1.00
C1243  C     0.68001   0.57000   0.75003   0.00000  Uiso   1.00
C1244  C     0.56994   0.82001   0.25002   0.00000  Uiso   1.00
C1245  C     0.93001   0.68003   0.74998   0.00000  Uiso   1.00
C1246  C     0.67999   0.93006   0.74998   0.00000  Uiso   1.00
C1247  C     0.81996   0.56997   0.24998   0.00000  Uiso   1.00
C1248  C     0.92999   0.81998   0.75002   0.00000  Uiso   1.00
C1249  C     0.50325   0.78340   0.58195   0.00000  Uiso   1.00
C1250  C     0.56997   0.68003   0.25000   0.00000  Uiso   1.00
C1251  C     0.81998   0.56996   0.74998   0.00000  Uiso   1.00
C1252  C     0.67999   0.93006   0.25003   0.00000  Uiso   1.00
C1253  C     0.56998   0.68003   0.75001   0.00000  Uiso   1.00
C1254  C     0.92999   0.81997   0.24998   0.00000  Uiso   1.00
C1255  C     0.63790   0.88903   0.21438   0.00000  Uiso   1.00
C1256  C     0.86099   0.61203   0.78567   0.00000  Uiso   1.00
C1257  C     0.61127   0.63832   0.21428   0.00000  Uiso   1.00
C1258  C     0.88949   0.86268   0.78573   0.00000  Uiso   1.00
C1259  C     0.86094   0.61211   0.21430   0.00000  Uiso   1.00
C1260  C     0.78297   0.99369   0.41784   0.00000  Uiso   1.00
C1261  C     0.63776   0.88916   0.78566   0.00000  Uiso   1.00
C1262  C     0.88979   0.86295   0.21426   0.00000  Uiso   1.00
C1263  C     0.61089   0.63790   0.78571   0.00000  Uiso   1.00
C1264  C     0.63764   0.61082   0.78574   0.00000  Uiso   1.00
C1265  C     0.86272   0.88971   0.21426   0.00000  Uiso   1.00
C1266  C     0.61087   0.86219   0.78567   0.00000  Uiso   1.00
C1267  C     0.88797   0.63899   0.21434   0.00000  Uiso   1.00
C1268  C     0.86230   0.88932   0.78573   0.00000  Uiso   1.00
C1269  C     0.63790   0.61111   0.21426   0.00000  Uiso   1.00
C1270  C     0.88789   0.63903   0.78568   0.00000  Uiso   1.00
C1271  C     0.71776   0.50674   0.58191   0.00000  Uiso   1.00
C1272  C     0.61097   0.86211   0.21437   0.00000  Uiso   1.00
C1273  C     0.88872   0.63818   0.71427   0.00000  Uiso   1.00
C1274  C     0.61139   0.86163   0.28580   0.00000  Uiso   1.00
C1275  C     0.86041   0.88739   0.71439   0.00000  Uiso   1.00
C1276  C     0.63873   0.61188   0.28566   0.00000  Uiso   1.00
C1277  C     0.61167   0.86138   0.71425   0.00000  Uiso   1.00
C1278  C     0.88866   0.63818   0.28575   0.00000  Uiso   1.00
C1279  C     0.63906   0.61220   0.71435   0.00000  Uiso   1.00
C1280  C     0.85997   0.88693   0.28553   0.00000  Uiso   1.00
C1281  C     0.88675   0.85993   0.28556   0.00000  Uiso   1.00
C1282  C     0.75426   0.53345   0.91807   0.00000  Uiso   1.00
C1283  C     0.61209   0.63906   0.71434   0.00000  Uiso   1.00
C1284  C     0.86193   0.61102   0.28570   0.00000  Uiso   1.00
C1285  C     0.63856   0.88838   0.71423   0.00000  Uiso   1.00
C1286  C     0.61165   0.63865   0.28568   0.00000  Uiso   1.00
C1287  C     0.88710   0.86027   0.71439   0.00000  Uiso   1.00
C1288  C     0.63837   0.88856   0.28581   0.00000  Uiso   1.00
C1289  C     0.86193   0.61108   0.71428   0.00000  Uiso   1.00
C1290  C     0.51266   0.71702   0.45871   0.00000  Uiso   1.00
C1291  C     0.50994   0.78413   0.54120   0.00000  Uiso   1.00
C1292  C     0.78250   0.98962   0.45887   0.00000  Uiso   1.00
H1293  H     0.53325   0.59985   0.44449   0.00000  Uiso   1.00
H1294  H     0.77554   0.65168   0.05576   0.00000  Uiso   1.00
H1295  H     0.62166   0.67805   0.92600   0.00000  Uiso   1.00
H1296  H     0.87623   0.68096   0.07379   0.00000  Uiso   1.00
H1297  H     0.82009   0.62343   0.92644   0.00000  Uiso   1.00
H1298  H     0.82160   0.87838   0.07438   0.00000  Uiso   1.00
H1299  H     0.84815   0.72575   0.94420   0.00000  Uiso   1.00
H1300  H     0.65105   0.72269   0.05595   0.00000  Uiso   1.00
H1301  H     0.56626   0.87460   0.57469   0.00000  Uiso   1.00
H1302  H     0.85447   0.90874   0.42897   0.00000  Uiso   1.00
H1303  H     0.60900   0.55735   0.55517   0.00000  Uiso   1.00
H1304  H     0.51822   0.90256   0.44419   0.00000  Uiso   1.00
H1305  H     0.57619   0.63038   0.57323   0.00000  Uiso   1.00
H1306  H     0.60924   0.55756   0.44451   0.00000  Uiso   1.00
H1307  H     0.89303   0.94660   0.55580   0.00000  Uiso   1.00
H1308  H     0.77650   0.84883   0.94404   0.00000  Uiso   1.00
N1309  N     0.66260   0.91346   0.14804   0.00000  Uiso   1.00
N1310  N     0.83852   0.91500   0.14811   0.00000  Uiso   1.00
N1311  N     0.58632   0.83763   0.85201   0.00000  Uiso   1.00
N1312  N     0.91058   0.66623   0.14843   0.00000  Uiso   1.00
N1313  N     0.83697   0.91342   0.85193   0.00000  Uiso   1.00
N1314  N     0.66191   0.58623   0.14788   0.00000  Uiso   1.00
N1315  N     0.90988   0.66661   0.85168   0.00000  Uiso   1.00
N1316  N     0.58653   0.83751   0.14802   0.00000  Uiso   1.00
N1317  N     0.91474   0.66142   0.64804   0.00000  Uiso   1.00
N1318  N     0.58465   0.83874   0.35187   0.00000  Uiso   1.00
N1319  N     0.83554   0.91172   0.64812   0.00000  Uiso   1.00
N1320  N     0.83374   0.58948   0.85159   0.00000  Uiso   1.00
N1321  N     0.66280   0.58672   0.35188   0.00000  Uiso   1.00
N1322  N     0.58566   0.83770   0.64820   0.00000  Uiso   1.00
N1323  N     0.91443   0.66155   0.35201   0.00000  Uiso   1.00
N1324  N     0.66350   0.58750   0.64809   0.00000  Uiso   1.00
N1325  N     0.83383   0.91027   0.35160   0.00000  Uiso   1.00
N1326  N     0.90892   0.83342   0.35198   0.00000  Uiso   1.00
N1327  N     0.58681   0.66336   0.64826   0.00000  Uiso   1.00
N1328  N     0.83991   0.58341   0.35171   0.00000  Uiso   1.00
N1329  N     0.66174   0.91462   0.64804   0.00000  Uiso   1.00
N1330  N     0.58535   0.66176   0.35181   0.00000  Uiso   1.00
N1331  N     0.58822   0.66481   0.14819   0.00000  Uiso   1.00
N1332  N     0.90974   0.83415   0.64799   0.00000  Uiso   1.00
N1333  N     0.66136   0.91501   0.35195   0.00000  Uiso   1.00
N1334  N     0.83977   0.58372   0.64823   0.00000  Uiso   1.00
N1335  N     0.98911   0.84216   0.37783   0.00000  Uiso   1.00
N1336  N     0.99617   0.65730   0.62187   0.00000  Uiso   1.00
N1337  N     0.65685   0.50388   0.37938   0.00000  Uiso   1.00
N1338  N     0.84329   0.99623   0.62211   0.00000  Uiso   1.00
N1339  N     0.99537   0.65723   0.37855   0.00000  Uiso   1.00
N1340  N     0.98978   0.84213   0.62225   0.00000  Uiso   1.00
N1341  N     0.84327   0.99461   0.37759   0.00000  Uiso   1.00
N1342  N     0.91536   0.83970   0.85211   0.00000  Uiso   1.00
N1343  N     0.65663   0.50413   0.62065   0.00000  Uiso   1.00
N1344  N     0.74239   0.59260   0.87788   0.00000  Uiso   1.00
N1345  N     0.74347   0.90740   0.12206   0.00000  Uiso   1.00
N1346  N     0.90768   0.75905   0.87818   0.00000  Uiso   1.00
N1347  N     0.59240   0.75689   0.12184   0.00000  Uiso   1.00
N1348  N     0.74267   0.90765   0.87817   0.00000  Uiso   1.00
N1349  N     0.74200   0.59241   0.12187   0.00000  Uiso   1.00
N1350  N     0.59262   0.75635   0.87796   0.00000  Uiso   1.00
N1351  N     0.90747   0.75877   0.12201   0.00000  Uiso   1.00
N1352  N     0.83334   0.59020   0.14829   0.00000  Uiso   1.00
N1353  N     0.66207   0.91390   0.85200   0.00000  Uiso   1.00
N1354  N     0.91591   0.84021   0.14789   0.00000  Uiso   1.00
N1355  N     0.58668   0.66334   0.85178   0.00000  Uiso   1.00
N1356  N     0.66146   0.58574   0.85212   0.00000  Uiso   1.00
O1357  O     0.75000   0.50000   0.25000   0.00000  Uiso   1.00
O1358  O     0.75000   0.96963   0.66245   0.00000  Uiso   1.00
O1359  O     0.96964   0.75000   0.33755   0.00000  Uiso   1.00
O1360  O     0.53037   0.75000   0.66245   0.00000  Uiso   1.00
O1361  O     0.50000   0.71963   0.83755   0.00000  Uiso   1.00
O1362  O     0.50000   0.78036   0.16245   0.00000  Uiso   1.00
O1363  O     0.78037   0.50000   0.83755   0.00000  Uiso   1.00
O1364  O     0.71964   0.50000   0.16245   0.00000  Uiso   1.00
O1365  O     0.50000   0.78036   0.83755   0.00000  Uiso   1.00
O1366  O     0.50000   0.71963   0.16245   0.00000  Uiso   1.00
O1367  O     0.71964   0.50000   0.83755   0.00000  Uiso   1.00
O1368  O     0.75000   0.50000   0.75000   0.00000  Uiso   1.00
O1369  O     0.78037   0.50000   0.16245   0.00000  Uiso   1.00
O1370  O     0.70725   0.57307   0.27302   0.00000  Uiso   1.00
O1371  O     0.79276   0.92692   0.72698   0.00000  Uiso   1.00
O1372  O     0.92693   0.70724   0.27302   0.00000  Uiso   1.00
O1373  O     0.57308   0.79275   0.72698   0.00000  Uiso   1.00
O1374  O     0.79276   0.92692   0.27302   0.00000  Uiso   1.00
O1375  O     0.70725   0.57307   0.72698   0.00000  Uiso   1.00
O1376  O     0.57308   0.79275   0.27302   0.00000  Uiso   1.00
O1377  O     0.92693   0.70724   0.72698   0.00000  Uiso   1.00
O1378  O     0.70725   0.92692   0.72698   0.00000  Uiso   1.00
O1379  O     0.50000   0.75000   0.25000   0.00000  Uiso   1.00
O1380  O     0.79276   0.57307   0.27302   0.00000  Uiso   1.00
O1381  O     0.92693   0.79275   0.72698   0.00000  Uiso   1.00
O1382  O     0.57308   0.70724   0.27302   0.00000  Uiso   1.00
O1383  O     0.79276   0.57307   0.72698   0.00000  Uiso   1.00
O1384  O     0.70725   0.92692   0.27302   0.00000  Uiso   1.00
O1385  O     0.57308   0.70724   0.72698   0.00000  Uiso   1.00
O1386  O     0.92693   0.79275   0.27302   0.00000  Uiso   1.00
O1387  O     0.95725   0.82307   0.77302   0.00000  Uiso   1.00
O1388  O     0.54276   0.67692   0.22698   0.00000  Uiso   1.00
O1389  O     0.67693   0.95724   0.77302   0.00000  Uiso   1.00
O1390  O     0.50000   0.75000   0.75000   0.00000  Uiso   1.00
O1391  O     0.82308   0.54275   0.22698   0.00000  Uiso   1.00
O1392  O     0.54276   0.67692   0.77302   0.00000  Uiso   1.00
O1393  O     0.95725   0.82307   0.22698   0.00000  Uiso   1.00
O1394  O     0.82308   0.54275   0.77302   0.00000  Uiso   1.00
O1395  O     0.67693   0.95724   0.22698   0.00000  Uiso   1.00
O1396  O     0.95725   0.67692   0.22698   0.00000  Uiso   1.00
O1397  O     0.54276   0.82307   0.77302   0.00000  Uiso   1.00
O1398  O     0.67693   0.54275   0.22698   0.00000  Uiso   1.00
O1399  O     0.82308   0.95724   0.77302   0.00000  Uiso   1.00
O1400  O     0.54276   0.82307   0.22698   0.00000  Uiso   1.00
O1401  O     0.75000   0.96963   0.33755   0.00000  Uiso   1.00
O1402  O     0.95725   0.67692   0.77302   0.00000  Uiso   1.00
O1403  O     0.82308   0.95724   0.22698   0.00000  Uiso   1.00
O1404  O     0.67693   0.54275   0.77302   0.00000  Uiso   1.00
O1405  O     0.56631   0.65623   0.44077   0.00000  Uiso   1.00
O1406  O     0.51981   0.61933   0.45964   0.00000  Uiso   1.00
O1407  O     0.50982   0.87821   0.53951   0.00000  Uiso   1.00
O1408  O     0.56085   0.85027   0.56204   0.00000  Uiso   1.00
O1409  O     0.87262   0.96471   0.45955   0.00000  Uiso   1.00
O1410  O     0.83237   0.92108   0.44068   0.00000  Uiso   1.00
O1411  O     0.67122   0.57733   0.55909   0.00000  Uiso   1.00
O1412  O     0.75000   0.53036   0.66245   0.00000  Uiso   1.00
O1413  O     0.62513   0.54004   0.54001   0.00000  Uiso   1.00
O1414  O     0.55758   0.85038   0.44126   0.00000  Uiso   1.00
O1415  O     0.50697   0.88172   0.45934   0.00000  Uiso   1.00
O1416  O     0.51910   0.62332   0.53988   0.00000  Uiso   1.00
O1417  O     0.56891   0.65438   0.56095   0.00000  Uiso   1.00
O1418  O     0.67153   0.57734   0.44067   0.00000  Uiso   1.00
O1419  O     0.62529   0.54023   0.45974   0.00000  Uiso   1.00
O1420  O     0.83130   0.92502   0.55913   0.00000  Uiso   1.00
O1421  O     0.87657   0.96357   0.54060   0.00000  Uiso   1.00
O1422  O     0.81255   0.90340   0.94095   0.00000  Uiso   1.00
O1423  O     0.53037   0.75000   0.33755   0.00000  Uiso   1.00
O1424  O     0.76405   0.86891   0.95927   0.00000  Uiso   1.00
O1425  O     0.81177   0.59732   0.05901   0.00000  Uiso   1.00
O1426  O     0.76315   0.63149   0.04061   0.00000  Uiso   1.00
O1427  O     0.62739   0.73467   0.96053   0.00000  Uiso   1.00
O1428  O     0.59751   0.68451   0.93848   0.00000  Uiso   1.00
O1429  O     0.87218   0.73790   0.03959   0.00000  Uiso   1.00
O1430  O     0.90057   0.68684   0.06138   0.00000  Uiso   1.00
O1431  O     0.76300   0.62769   0.96033   0.00000  Uiso   1.00
O1432  O     0.81407   0.59911   0.93882   0.00000  Uiso   1.00
O1433  O     0.76524   0.87250   0.03939   0.00000  Uiso   1.00
O1434  O     0.96964   0.75000   0.66245   0.00000  Uiso   1.00
O1435  O     0.81518   0.90250   0.06181   0.00000  Uiso   1.00
O1436  O     0.90225   0.68912   0.94094   0.00000  Uiso   1.00
O1437  O     0.86843   0.73797   0.95937   0.00000  Uiso   1.00
O1438  O     0.59625   0.68698   0.05901   0.00000  Uiso   1.00
O1439  O     0.63104   0.73528   0.04074   0.00000  Uiso   1.00
O1440  O     0.75000   0.53036   0.33755   0.00000  Uiso   1.00
Zn1441 Zn    0.70660   0.50000   0.21735   0.00000  Uiso   1.00
Zn1442 Zn    0.54341   0.75000   0.28265   0.00000  Uiso   1.00
Zn1443 Zn    0.75000   0.95659   0.71735   0.00000  Uiso   1.00
Zn1444 Zn    0.75000   0.54340   0.28265   0.00000  Uiso   1.00
Zn1445 Zn    0.54341   0.75000   0.71735   0.00000  Uiso   1.00
Zn1446 Zn    0.95660   0.75000   0.28265   0.00000  Uiso   1.00
Zn1447 Zn    0.75000   0.54340   0.71735   0.00000  Uiso   1.00
Zn1448 Zn    0.75000   0.95659   0.28265   0.00000  Uiso   1.00
Zn1449 Zn    0.79341   0.50000   0.78265   0.00000  Uiso   1.00
Zn1450 Zn    0.50000   0.70659   0.21735   0.00000  Uiso   1.00
Zn1451 Zn    0.50000   0.79340   0.78265   0.00000  Uiso   1.00
Zn1452 Zn    0.79341   0.50000   0.21735   0.00000  Uiso   1.00
Zn1453 Zn    0.70660   0.50000   0.78265   0.00000  Uiso   1.00
Zn1454 Zn    0.50000   0.79340   0.21735   0.00000  Uiso   1.00
Zn1455 Zn    0.50000   0.70659   0.78265   0.00000  Uiso   1.00
Zn1456 Zn    0.95660   0.75000   0.71735   0.00000  Uiso   1.00
loop_
_geom_bond_atom_site_label_1
_geom_bond_atom_site_label_2
_geom_bond_distance
_geom_bond_site_symmetry_2
_ccdc_geom_bond_type
C1     C79     1.401   .     A
C1     C4      1.421   .     A
C1     C460    1.454   1_455 S
C2     C116    1.401   .     A
C2     C14     1.421   .     A
C2     C106    1.454   .     S
C3     C179    1.414   .     A
C3     C38     1.424   .     A
C3     C122    1.420   .     A
C4     C34     1.423   .     A
C4     C123    1.422   .     A
C5     C36     1.425   .     A
C5     C125    1.424   .     A
C5     C112    1.420   .     A
C6     C126    1.421   .     A
C6     C37     1.424   .     A
C6     C124    1.413   .     A
C7     C135    1.415   .     A
C7     C127    1.420   .     A
C7     C766    1.424   .     S
C8     C35     1.419   .     A
C8     C128    1.422   .     A
C8     C767    1.423   .     S
C9     C46     1.419   .     A
C9     C40     1.423   .     A
C9     C129    1.422   .     A
C10    C57     1.421   .     A
C10    C130    1.423   .     A
C10    C405    1.425   1_455 S
C11    C68     1.421   .     A
C11    C42     1.425   .     A
C11    C131    1.424   .     A
C12    C132    1.424   .     A
C12    C39     1.425   .     A
C12    C190    1.421   .     A
C13    C107    1.454   .     S
C13    C15     1.419   .     A
C13    C481    1.400   .     S
C14    C133    1.423   .     A
C14    C768    1.424   .     S
C15    C134    1.422   .     A
C15    C41     1.423   .     A
C16    C136    1.422   .     A
C16    C24     1.419   .     A
C16    C406    1.423   1_455 S
C17    C182    1.411   .     A
C17    C152    1.460   .     S
C17    C180    1.411   .     A
C18    C181    1.412   .     A
C18    C178    1.411   .     A
C18    C153    1.460   .     S
C19    C177    1.412   .     A
C19    C184    1.412   .     A
C19    C145    1.462   .     S
C20    C183    1.411   .     A
C20    C176    1.411   .     A
C20    C147    1.460   .     S
C21    C186    1.412   .     A
C21    C175    1.411   .     A
C21    C148    1.460   .     S
C22    C149    1.460   .     S
C22    C174    1.411   .     A
C22    C185    1.411   .     A
C23    C188    1.411   .     A
C23    C150    1.461   .     S
C23    C173    1.411   .     A
C24    C108    1.454   .     S
C24    C482    1.400   1_455 S
C25    C187    1.412   .     A
C25    C151    1.462   .     S
C25    C172    1.412   .     A
C26    C191    1.411   .     A
C26    C161    1.461   .     S
C26    C171    1.411   .     A
C27    C162    1.462   .     S
C27    C170    1.413   .     A
C27    C189    1.412   .     A
C28    C169    1.412   .     A
C28    C154    1.460   .     S
C28    C193    1.412   .     A
C29    C155    1.459   .     S
C29    C192    1.411   .     A
C29    C167    1.411   .     A
C30    C156    1.462   .     S
C30    C195    1.412   .     A
C30    C166    1.413   .     A
C31    C165    1.411   .     A
C31    C158    1.460   .     S
C31    C194    1.411   .     A
C32    C197    1.411   .     A
C32    C164    1.411   .     A
C32    C159    1.460   .     S
C33    C163    1.411   .     A
C33    C196    1.412   .     A
C33    C160    1.460   .     S
C34    C198    1.423   .     A
C34    C36     1.417   .     A
C35    C109    1.454   .     S
C35    C843    1.400   .     S
C36    C199    1.424   .     A
C37    C38     1.412   .     A
C37    C928    1.425   1_545 S
C38    C735    1.424   1_545 S
C39    C736    1.423   1_545 S
C39    C40     1.417   1_556 S
C40    C742    1.424   1_545 S
C40    C39     1.417   1_554 S
C41    C374    1.425   .     S
C41    C42     1.417   1_556 S
C42    C380    1.423   .     S
C42    C41     1.417   1_554 S
C43    O314    1.398   .     S
C43    C119    1.487   .     S
C43    O313    1.223   .     D
C44    O316    1.397   .     S
C44    C120    1.486   .     S
C44    O315    1.223   .     D
C45    O317    1.223   .     D
C45    O318    1.397   .     S
C45    C121    1.485   .     S
C46    C110    1.454   .     S
C46    C844    1.400   1_545 S
C47    O319    1.223   .     D
C47    O321    1.397   .     S
C47    C122    1.487   .     S
C48    C123    1.487   .     S
C48    O322    1.223   .     D
C48    O323    1.398   .     S
C49    O324    1.223   .     D
C49    C125    1.486   .     S
C49    O325    1.397   .     S
C50    O327    1.398   .     S
C50    O326    1.223   .     D
C50    C126    1.487   .     S
C51    O328    1.223   .     D
C51    C127    1.488   .     S
C51    O329    1.398   .     S
C52    C128    1.487   .     S
C52    O332    1.398   .     S
C52    O330    1.223   .     D
C53    O333    1.223   .     D
C53    C129    1.487   .     S
C53    O334    1.398   .     S
C54    O336    1.397   .     S
C54    C130    1.486   .     S
C54    O335    1.223   .     D
C55    O338    1.397   .     S
C55    C131    1.486   .     S
C55    O337    1.223   .     D
C56    O340    1.397   .     S
C56    C132    1.486   .     S
C56    O339    1.223   .     D
C57    C111    1.454   .     S
C57    C117    1.401   .     A
C58    O343    1.397   .     S
C58    O341    1.223   .     D
C58    C133    1.486   .     S
C59    O344    1.223   .     D
C59    C134    1.487   .     S
C59    O345    1.398   .     S
C60    O347    1.398   .     S
C60    O346    1.223   .     D
C60    C136    1.487   .     S
C61    N217    1.157   .     T
C61    C163    1.453   .     S
C62    N228    1.157   .     T
C62    C164    1.453   .     S
C63    N239    1.157   .     T
C63    C165    1.454   .     S
C64    N250    1.157   .     T
C64    C166    1.453   .     S
C65    C167    1.453   .     S
C65    N260    1.157   .     T
C66    N261    1.157   .     T
C66    C169    1.453   .     S
C67    C170    1.453   .     S
C67    N262    1.157   .     T
C68    C118    1.401   .     A
C68    C114    1.454   .     S
C69    N263    1.157   .     T
C69    C171    1.453   .     S
C70    N264    1.157   .     T
C70    C172    1.453   .     S
C71    N218    1.157   .     T
C71    C173    1.454   .     S
C72    C174    1.453   .     S
C72    N219    1.157   .     T
C73    C175    1.453   .     S
C73    N220    1.157   .     T
C74    C176    1.454   .     S
C74    N221    1.157   .     T
C75    C177    1.453   .     S
C75    N222    1.157   .     T
C76    N223    1.157   .     T
C76    C178    1.453   .     S
C77    C180    1.453   .     S
C77    N224    1.157   .     T
C78    C181    1.453   .     S
C78    N225    1.157   .     T
C79    C139    1.462   .     S
C79    C146    1.400   .     A
C80    C182    1.454   .     S
C80    N226    1.157   .     T
C81    C183    1.453   .     S
C81    N227    1.157   .     T
C82    C184    1.452   .     S
C82    N229    1.157   .     T
C83    N230    1.157   .     T
C83    C185    1.453   .     S
C84    C186    1.453   .     S
C84    N231    1.157   .     T
C85    C187    1.453   .     S
C85    N232    1.157   .     T
C86    C188    1.453   .     S
C86    N233    1.157   .     T
C87    N234    1.157   .     T
C87    C189    1.453   .     S
C88    C191    1.453   .     S
C88    N235    1.157   .     T
C89    N236    1.157   .     T
C89    C192    1.454   .     S
C90    C140    1.464   .     S
C90    C157    1.401   .     A
C90    C112    1.401   .     A
C91    N237    1.157   .     T
C91    C193    1.454   .     S
C92    C194    1.453   .     S
C92    N238    1.157   .     T
C93    N240    1.157   .     T
C93    C195    1.453   .     S
C94    C196    1.454   .     S
C94    N241    1.157   .     T
C95    C197    1.454   .     S
C95    N242    1.157   .     T
C96    N243    1.158   .     T
C96    C365    1.454   .     S
C97    C112    1.454   .     S
C97    N608    1.158   1_455 S
C98    N245    1.158   .     T
C98    C124    1.454   .     S
C99    N246    1.158   .     T
C99    C135    1.454   .     S
C100   N247    1.158   .     T
C100   C510    1.454   .     S
C101   C124    1.397   .     A
C101   C865    1.454   1_545 S
C101   C896    1.399   1_545 S
C102   N248    1.158   .     T
C102   C521    1.454   .     S
C103   N249    1.158   .     T
C103   C168    1.454   .     S
C104   C179    1.454   .     S
C104   N251    1.158   .     T
C105   N252    1.158   .     T
C105   C190    1.454   .     S
C106   N253    1.158   .     T
C107   N254    1.158   .     T
C108   N255    1.158   .     T
C109   N256    1.158   .     T
C110   N257    1.158   .     T
C111   N258    1.158   .     T
C113   C179    1.398   .     A
C113   C138    1.453   .     S
C113   C863    1.398   1_545 S
C114   N259    1.158   .     T
C115   C190    1.401   .     A
C115   C143    1.463   .     S
C115   C763    1.400   1_545 S
C116   C144    1.463   .     S
C116   C774    1.400   .     S
C117   C141    1.463   .     S
C117   C377    1.400   1_455 S
C118   C142    1.463   .     S
C118   C388    1.400   .     S
C119   C198    1.421   .     A
C119   C125    1.409   .     A
C120   C199    1.424   .     A
C120   C123    1.410   .     A
C121   C127    1.408   .     A
C121   C200    1.422   .     A
C122   C126    1.407   .     A
C128   C133    1.409   1_556 S
C129   C132    1.409   1_554 S
C130   C136    1.409   1_556 S
C131   C134    1.409   1_554 S
C132   C129    1.409   1_556 S
C133   C128    1.409   1_554 S
C134   C131    1.409   1_556 S
C135   C841    1.398   .     S
C136   C130    1.409   1_554 S
C137   O309    1.277   .     A
C137   C829    1.454   .     S
C137   O1076   1.277   .     S
C138   O320    1.276   .     A
C138   O994    1.277   1_545 S
C139   O331    1.275   .     A
C139   O631    1.282   1_455 S
C140   O268    1.275   .     A
C140   O706    1.283   1_455 S
C141   O269    1.276   .     S
C141   O273    1.282   .     S
C142   O634    1.282   .     A
C142   O638    1.276   .     S
C143   O271    1.275   .     A
C143   O275    1.282   .     A
C144   O1000   1.282   .     S
C144   O1005   1.275   .     S
C145   O306    1.280   .     A
C145   O278    1.281   .     A
C146   C198    1.419   .     A
C146   C464    1.454   1_455 S
C147   O307    1.280   .     A
C147   O279    1.280   .     A
C148   O304    1.281   .     A
C148   O280    1.280   .     A
C149   O281    1.281   .     A
C149   O305    1.280   .     A
C150   O311    1.280   .     A
C150   O282    1.280   .     A
C151   O312    1.280   .     A
C151   O283    1.281   .     A
C152   O284    1.281   .     A
C152   O308    1.279   .     A
C153   O310    1.281   .     A
C153   O285    1.279   .     A
C154   O297    1.280   .     A
C154   O286    1.281   .     A
C155   O288    1.280   .     A
C155   O299    1.280   .     A
C156   O295    1.280   .     A
C156   O289    1.280   .     A
C157   C199    1.421   .     A
C157   C466    1.454   1_455 S
C158   O290    1.280   .     A
C158   O296    1.280   .     A
C159   O302    1.280   .     A
C159   O291    1.280   .     A
C160   O303    1.280   .     A
C160   O292    1.280   .     A
C161   O293    1.280   .     A
C161   O300    1.280   .     A
C162   O301    1.280   .     A
C162   O294    1.280   .     A
C163   C180    1.399   .     A
C164   C178    1.400   .     A
C165   C177    1.400   .     A
C166   C176    1.399   .     A
C167   C175    1.400   .     A
C168   C200    1.417   .     A
C168   C829    1.399   .     S
C169   C174    1.399   .     A
C170   C173    1.399   .     A
C171   C172    1.399   .     A
C181   C197    1.400   .     A
C182   C196    1.400   .     A
C183   C195    1.399   .     A
C184   C194    1.400   .     A
C185   C193    1.400   .     A
C186   C192    1.400   .     A
C187   C191    1.399   .     A
C188   C189    1.398   .     A
C200   C765    1.425   .     S
H201   O314    1.014   .     S
H202   O334    1.014   .     S
H203   O336    1.014   .     S
H204   O338    1.014   .     S
H205   O340    1.014   .     S
H206   O343    1.014   .     S
H207   O345    1.014   .     S
H208   O347    1.014   .     S
H209   O316    1.014   .     S
H210   O318    1.014   .     S
H211   O321    1.014   .     S
H212   O323    1.014   .     S
H213   O325    1.014   .     S
H214   O327    1.014   .     S
H215   O329    1.014   .     S
H216   O332    1.014   .     S
N244   C461    1.158   .     S
O265   Zn352   1.950   .     S
O265   Zn360   1.949   .     S
O265   Zn349   1.950   .     S
O265   Zn1084  1.949   1_545 S
O266   Zn351   1.945   .     S
O266   C866    1.277   .     S
O267   Zn354   1.945   .     S
O267   C503    1.282   .     S
O268   Zn353   1.945   .     S
O269   Zn363   1.945   .     S
O270   C506    1.282   1_455 A
O270   Zn362   1.945   .     S
O271   Zn357   1.945   .     S
O272   Zn349   1.945   .     S
O272   C872    1.282   1_545 S
O273   Zn359   1.945   .     S
O274   Zn358   1.945   .     S
O274   C506    1.276   1_455 S
O275   Zn361   1.945   .     S
O276   Zn355   1.949   .     S
O276   Zn357   1.950   .     S
O276   Zn361   1.949   .     S
O276   Zn1079  1.950   1_545 S
O277   Zn360   1.945   .     S
O277   C872    1.275   1_545 S
O278   Zn352   1.942   .     S
O279   Zn351   1.942   .     S
O280   Zn354   1.940   .     S
O281   Zn353   1.940   .     S
O282   Zn356   1.942   .     S
O283   Zn355   1.942   .     S
O284   Zn350   1.940   .     S
O285   Zn364   1.940   .     S
O286   Zn351   1.940   .     S
O287   Zn350   1.950   .     S
O287   Zn358   1.950   .     S
O287   Zn718   1.949   1_455 S
O287   Zn362   1.949   .     S
O288   Zn352   1.940   .     S
O289   Zn364   1.942   .     S
O290   Zn350   1.942   .     S
O291   Zn355   1.940   .     S
O292   Zn356   1.940   .     S
O293   Zn353   1.942   .     S
O294   Zn354   1.942   .     S
O295   Zn723   1.942   .     S
O296   Zn358   1.942   .     S
O297   Zn1089  1.940   .     S
O298   Zn353   1.949   .     S
O298   Zn359   1.950   .     S
O298   Zn363   1.949   .     S
O298   Zn728   1.950   1_455 S
O299   Zn360   1.940   .     S
O300   Zn363   1.942   .     S
O301   Zn726   1.942   .     S
O302   Zn357   1.940   .     S
O303   Zn1077  1.940   .     S
O304   Zn722   1.940   .     S
O305   Zn359   1.940   .     S
O306   Zn349   1.942   .     S
O307   Zn1085  1.942   .     S
O308   Zn362   1.940   .     S
O309   Zn356   1.945   .     S
O310   Zn727   1.940   .     S
O311   Zn1088  1.942   .     S
O312   Zn361   1.942   .     S
O320   Zn355   1.945   .     S
O331   Zn350   1.945   .     S
O342   Zn364   1.945   .     S
O342   C504    1.283   .     S
O348   Zn352   1.945   .     S
O348   C865    1.277   1_545 S
Zn349  O1031   1.940   1_545 S
Zn351  O1004   1.950   .     S
Zn354  O651    1.949   .     S
Zn356  O993    1.949   .     S
Zn357  O1035   1.942   1_545 S
Zn358  O668    1.940   1_455 S
Zn359  O659    1.942   1_455 S
Zn360  O1039   1.942   1_545 S
Zn361  O1025   1.940   1_545 S
Zn362  O665    1.942   1_455 S
Zn363  O674    1.940   1_455 S
Zn364  O662    1.950   .     S
C365   C443    1.401   .     A
C365   C368    1.421   .     A
C366   C480    1.401   .     A
C366   C378    1.421   .     A
C366   C470    1.454   .     S
C367   C543    1.414   .     A
C367   C402    1.424   .     A
C367   C486    1.420   .     A
C368   C398    1.423   .     A
C368   C487    1.422   .     A
C369   C400    1.425   .     A
C369   C489    1.424   .     A
C369   C476    1.420   .     A
C370   C490    1.421   .     A
C370   C401    1.424   .     A
C370   C488    1.413   .     A
C371   C499    1.415   .     A
C371   C491    1.420   .     A
C371   C1130   1.424   .     S
C372   C399    1.419   .     A
C372   C492    1.422   .     A
C372   C1131   1.423   .     S
C373   C410    1.419   .     A
C373   C404    1.423   .     A
C373   C493    1.422   .     A
C374   C421    1.421   .     A
C374   C494    1.423   .     A
C375   C432    1.421   .     A
C375   C406    1.425   .     A
C375   C495    1.424   .     A
C376   C496    1.424   .     A
C376   C403    1.425   .     A
C376   C554    1.421   .     A
C377   C471    1.454   .     S
C377   C379    1.419   .     A
C377   C117    1.400   1_655 S
C378   C497    1.423   .     A
C378   C1132   1.424   .     S
C379   C498    1.422   .     A
C379   C405    1.423   .     A
C380   C500    1.422   .     A
C380   C388    1.419   .     A
C381   C546    1.411   .     A
C381   C516    1.460   .     S
C381   C544    1.411   .     A
C382   C545    1.412   .     A
C382   C542    1.411   .     A
C382   C517    1.460   .     S
C383   C541    1.412   .     A
C383   C548    1.412   .     A
C383   C509    1.462   .     S
C384   C547    1.411   .     A
C384   C540    1.411   .     A
C384   C511    1.460   .     S
C385   C550    1.412   .     A
C385   C539    1.411   .     A
C385   C512    1.460   .     S
C386   C513    1.460   .     S
C386   C538    1.411   .     A
C386   C549    1.411   .     A
C387   C552    1.411   .     A
C387   C514    1.461   .     S
C387   C537    1.411   .     A
C388   C472    1.454   .     S
C389   C551    1.412   .     A
C389   C515    1.462   .     S
C389   C536    1.412   .     A
C390   C555    1.411   .     A
C390   C525    1.461   .     S
C390   C535    1.411   .     A
C391   C526    1.462   .     S
C391   C534    1.413   .     A
C391   C553    1.412   .     A
C392   C533    1.412   .     A
C392   C518    1.460   .     S
C392   C557    1.412   .     A
C393   C519    1.459   .     S
C393   C556    1.411   .     A
C393   C531    1.411   .     A
C394   C520    1.462   .     S
C394   C559    1.412   .     A
C394   C530    1.413   .     A
C395   C529    1.411   .     A
C395   C522    1.460   .     S
C395   C558    1.411   .     A
C396   C561    1.411   .     A
C396   C528    1.411   .     A
C396   C523    1.460   .     S
C397   C527    1.411   .     A
C397   C560    1.412   .     A
C397   C524    1.460   .     S
C398   C562    1.423   .     A
C398   C400    1.417   .     A
C399   C473    1.454   .     S
C399   C1207   1.400   .     S
C400   C563    1.424   .     A
C401   C402    1.412   .     A
C401   C1292   1.425   1_545 S
C402   C1099   1.424   1_545 S
C403   C1100   1.423   1_545 S
C403   C404    1.417   1_556 S
C404   C1106   1.424   1_545 S
C404   C403    1.417   1_554 S
C405   C10     1.425   1_655 S
C405   C406    1.417   1_556 S
C406   C16     1.423   1_655 S
C406   C405    1.417   1_554 S
C407   O678    1.398   .     S
C407   C483    1.487   .     S
C407   O677    1.223   .     D
C408   O680    1.397   .     S
C408   C484    1.486   .     S
C408   O679    1.223   .     D
C409   O681    1.223   .     D
C409   O682    1.397   .     S
C409   C485    1.485   .     S
C410   C474    1.454   .     S
C410   C1208   1.400   1_545 S
C411   O683    1.223   .     D
C411   O685    1.397   .     S
C411   C486    1.487   .     S
C412   C487    1.487   .     S
C412   O686    1.223   .     D
C412   O687    1.398   .     S
C413   O688    1.223   .     D
C413   C489    1.486   .     S
C413   O689    1.397   .     S
C414   O691    1.398   .     S
C414   O690    1.223   .     D
C414   C490    1.487   .     S
C415   O692    1.223   .     D
C415   C491    1.488   .     S
C415   O693    1.398   .     S
C416   C492    1.487   .     S
C416   O696    1.398   .     S
C416   O694    1.223   .     D
C417   O697    1.223   .     D
C417   C493    1.487   .     S
C417   O698    1.398   .     S
C418   O700    1.397   .     S
C418   C494    1.486   .     S
C418   O699    1.223   .     D
C419   O702    1.397   .     S
C419   C495    1.486   .     S
C419   O701    1.223   .     D
C420   O704    1.397   .     S
C420   C496    1.486   .     S
C420   O703    1.223   .     D
C421   C475    1.454   .     S
C421   C481    1.401   .     A
C422   O707    1.397   .     S
C422   O705    1.223   .     D
C422   C497    1.486   .     S
C423   O708    1.223   .     D
C423   C498    1.487   .     S
C423   O709    1.398   .     S
C424   O711    1.398   .     S
C424   O710    1.223   .     D
C424   C500    1.487   .     S
C425   N581    1.157   .     T
C425   C527    1.453   .     S
C426   N592    1.157   .     T
C426   C528    1.453   .     S
C427   N603    1.157   .     T
C427   C529    1.454   .     S
C428   N614    1.157   .     T
C428   C530    1.453   .     S
C429   C531    1.453   .     S
C429   N624    1.157   .     T
C430   N625    1.157   .     T
C430   C533    1.453   .     S
C431   C534    1.453   .     S
C431   N626    1.157   .     T
C432   C482    1.401   .     A
C432   C478    1.454   .     S
C433   N627    1.157   .     T
C433   C535    1.453   .     S
C434   N628    1.157   .     T
C434   C536    1.453   .     S
C435   N582    1.157   .     T
C435   C537    1.454   .     S
C436   C538    1.453   .     S
C436   N583    1.157   .     T
C437   C539    1.453   .     S
C437   N584    1.157   .     T
C438   C540    1.454   .     S
C438   N585    1.157   .     T
C439   C541    1.453   .     S
C439   N586    1.157   .     T
C440   N587    1.157   .     T
C440   C542    1.453   .     S
C441   C544    1.453   .     S
C441   N588    1.157   .     T
C442   C545    1.453   .     S
C442   N589    1.157   .     T
C443   C503    1.462   .     S
C443   C510    1.400   .     A
C444   C546    1.454   .     S
C444   N590    1.157   .     T
C445   C547    1.453   .     S
C445   N591    1.157   .     T
C446   C548    1.452   .     S
C446   N593    1.157   .     T
C447   N594    1.157   .     T
C447   C549    1.453   .     S
C448   C550    1.453   .     S
C448   N595    1.157   .     T
C449   C551    1.453   .     S
C449   N596    1.157   .     T
C450   C552    1.453   .     S
C450   N597    1.157   .     T
C451   N598    1.157   .     T
C451   C553    1.453   .     S
C452   C555    1.453   .     S
C452   N599    1.157   .     T
C453   N600    1.157   .     T
C453   C556    1.454   .     S
C454   C504    1.464   .     S
C454   C521    1.401   .     A
C454   C476    1.401   .     A
C455   N601    1.157   .     T
C455   C557    1.454   .     S
C456   C558    1.453   .     S
C456   N602    1.157   .     T
C457   N604    1.157   .     T
C457   C559    1.453   .     S
C458   C560    1.454   .     S
C458   N605    1.157   .     T
C459   C561    1.454   .     S
C459   N606    1.157   .     T
C460   N607    1.158   .     T
C460   C1      1.454   1_655 S
C461   C476    1.454   .     S
C462   N609    1.158   .     T
C462   C488    1.454   .     S
C463   N610    1.158   .     T
C463   C499    1.454   .     S
C464   N611    1.158   .     T
C464   C146    1.454   1_655 S
C465   C488    1.397   .     A
C465   C1229   1.454   1_545 S
C465   C1260   1.399   1_545 S
C466   N612    1.158   .     T
C466   C157    1.454   1_655 S
C467   N613    1.158   .     T
C467   C532    1.454   .     S
C468   C543    1.454   .     S
C468   N615    1.158   .     T
C469   N616    1.158   .     T
C469   C554    1.454   .     S
C470   N617    1.158   .     T
C471   N618    1.158   .     T
C472   N619    1.158   .     T
C473   N620    1.158   .     T
C474   N621    1.158   .     T
C475   N622    1.158   .     T
C477   C543    1.398   .     A
C477   C502    1.453   .     S
C477   C1227   1.398   1_545 S
C478   N623    1.158   .     T
C479   C554    1.401   .     A
C479   C507    1.463   .     S
C479   C1127   1.400   1_545 S
C480   C508    1.463   .     S
C480   C1138   1.400   .     S
C481   C505    1.463   .     S
C482   C506    1.463   .     S
C482   C24     1.400   1_655 S
C483   C562    1.421   .     A
C483   C489    1.409   .     A
C484   C563    1.424   .     A
C484   C487    1.410   .     A
C485   C491    1.408   .     A
C485   C564    1.422   .     A
C486   C490    1.407   .     A
C492   C497    1.409   1_556 S
C493   C496    1.409   1_554 S
C494   C500    1.409   1_556 S
C495   C498    1.409   1_554 S
C496   C493    1.409   1_556 S
C497   C492    1.409   1_554 S
C498   C495    1.409   1_556 S
C499   C1205   1.398   .     S
C500   C494    1.409   1_554 S
C501   O673    1.277   .     A
C501   C1193   1.454   .     S
C501   O1440   1.277   .     S
C502   O684    1.276   .     A
C502   O1358   1.277   1_545 S
C503   O695    1.275   .     A
C504   O632    1.275   .     A
C505   O633    1.276   .     S
C505   O637    1.282   .     S
C506   O270    1.282   1_655 A
C506   O274    1.276   1_655 S
C507   O635    1.275   .     A
C507   O639    1.282   .     A
C508   O1364   1.282   .     S
C508   O1369   1.275   .     S
C509   O670    1.280   .     A
C509   O642    1.281   .     A
C510   C562    1.419   .     A
C511   O671    1.280   .     A
C511   O643    1.280   .     A
C512   O668    1.281   .     A
C512   O644    1.280   .     A
C513   O645    1.281   .     A
C513   O669    1.280   .     A
C514   O675    1.280   .     A
C514   O646    1.280   .     A
C515   O676    1.280   .     A
C515   O647    1.281   .     A
C516   O648    1.281   .     A
C516   O672    1.279   .     A
C517   O674    1.281   .     A
C517   O649    1.279   .     A
C518   O661    1.280   .     A
C518   O650    1.281   .     A
C519   O652    1.280   .     A
C519   O663    1.280   .     A
C520   O659    1.280   .     A
C520   O653    1.280   .     A
C521   C563    1.421   .     A
C522   O654    1.280   .     A
C522   O660    1.280   .     A
C523   O666    1.280   .     A
C523   O655    1.280   .     A
C524   O667    1.280   .     A
C524   O656    1.280   .     A
C525   O657    1.280   .     A
C525   O664    1.280   .     A
C526   O665    1.280   .     A
C526   O658    1.280   .     A
C527   C544    1.399   .     A
C528   C542    1.400   .     A
C529   C541    1.400   .     A
C530   C540    1.399   .     A
C531   C539    1.400   .     A
C532   C564    1.417   .     A
C532   C1193   1.399   .     S
C533   C538    1.399   .     A
C534   C537    1.399   .     A
C535   C536    1.399   .     A
C545   C561    1.400   .     A
C546   C560    1.400   .     A
C547   C559    1.399   .     A
C548   C558    1.400   .     A
C549   C557    1.400   .     A
C550   C556    1.400   .     A
C551   C555    1.399   .     A
C552   C553    1.398   .     A
C564   C1129   1.425   .     S
H565   O678    1.014   .     S
H566   O698    1.014   .     S
H567   O700    1.014   .     S
H568   O702    1.014   .     S
H569   O704    1.014   .     S
H570   O707    1.014   .     S
H571   O709    1.014   .     S
H572   O711    1.014   .     S
H573   O680    1.014   .     S
H574   O682    1.014   .     S
H575   O685    1.014   .     S
H576   O687    1.014   .     S
H577   O689    1.014   .     S
H578   O691    1.014   .     S
H579   O693    1.014   .     S
H580   O696    1.014   .     S
N608   C97     1.158   1_655 S
O629   Zn716   1.950   .     S
O629   Zn724   1.949   .     S
O629   Zn713   1.950   .     S
O629   Zn1448  1.949   1_545 S
O630   Zn715   1.945   .     S
O630   C1230   1.277   .     S
O631   Zn718   1.945   .     S
O631   C139    1.282   1_655 S
O632   Zn717   1.945   .     S
O633   Zn727   1.945   .     S
O634   Zn726   1.945   .     S
O635   Zn721   1.945   .     S
O636   Zn713   1.945   .     S
O636   C1236   1.282   1_545 S
O637   Zn723   1.945   .     S
O638   Zn722   1.945   .     S
O639   Zn725   1.945   .     S
O640   Zn719   1.949   .     S
O640   Zn721   1.950   .     S
O640   Zn725   1.949   .     S
O640   Zn1443  1.950   1_545 S
O641   Zn724   1.945   .     S
O641   C1236   1.275   1_545 S
O642   Zn716   1.942   .     S
O643   Zn715   1.942   .     S
O644   Zn718   1.940   .     S
O645   Zn717   1.940   .     S
O646   Zn720   1.942   .     S
O647   Zn719   1.942   .     S
O648   Zn714   1.940   .     S
O649   Zn728   1.940   .     S
O650   Zn715   1.940   .     S
O651   Zn714   1.950   .     S
O651   Zn722   1.950   .     S
O651   Zn726   1.949   .     S
O652   Zn716   1.940   .     S
O653   Zn728   1.942   .     S
O654   Zn714   1.942   .     S
O655   Zn719   1.940   .     S
O656   Zn720   1.940   .     S
O657   Zn717   1.942   .     S
O658   Zn718   1.942   .     S
O659   Zn359   1.942   1_655 S
O660   Zn722   1.942   .     S
O661   Zn1453  1.940   .     S
O662   Zn717   1.949   .     S
O662   Zn723   1.950   .     S
O662   Zn727   1.949   .     S
O663   Zn724   1.940   .     S
O664   Zn727   1.942   .     S
O665   Zn362   1.942   1_655 S
O666   Zn721   1.940   .     S
O667   Zn1441  1.940   .     S
O668   Zn358   1.940   1_655 S
O669   Zn723   1.940   .     S
O670   Zn713   1.942   .     S
O671   Zn1449  1.942   .     S
O672   Zn726   1.940   .     S
O673   Zn720   1.945   .     S
O674   Zn363   1.940   1_655 S
O675   Zn1452  1.942   .     S
O676   Zn725   1.942   .     S
O684   Zn719   1.945   .     S
O695   Zn714   1.945   .     S
O706   Zn728   1.945   .     S
O706   C140    1.283   1_655 S
O712   Zn716   1.945   .     S
O712   C1229   1.277   1_545 S
Zn713  O1395   1.940   1_545 S
Zn715  O1368   1.950   .     S
Zn718  O287    1.949   1_655 S
Zn720  O1357   1.949   .     S
Zn721  O1399   1.942   1_545 S
Zn724  O1403   1.942   1_545 S
Zn725  O1389   1.940   1_545 S
Zn728  O298    1.950   1_655 S
C729   C807    1.401   .     A
C729   C732    1.421   .     A
C729   C1188   1.454   1_455 S
C730   C844    1.401   .     A
C730   C742    1.421   .     A
C730   C834    1.454   .     S
C731   C907    1.414   .     A
C731   C766    1.424   .     A
C731   C850    1.420   .     A
C732   C762    1.423   .     A
C732   C851    1.422   .     A
C733   C764    1.425   .     A
C733   C853    1.424   .     A
C733   C840    1.420   .     A
C734   C854    1.421   .     A
C734   C765    1.424   .     A
C734   C852    1.413   .     A
C735   C863    1.415   .     A
C735   C855    1.420   .     A
C735   C38     1.424   1_565 S
C736   C763    1.419   .     A
C736   C856    1.422   .     A
C736   C39     1.423   1_565 S
C737   C774    1.419   .     A
C737   C768    1.423   .     A
C737   C857    1.422   .     A
C738   C785    1.421   .     A
C738   C858    1.423   .     A
C738   C1133   1.425   1_455 S
C739   C796    1.421   .     A
C739   C770    1.425   .     A
C739   C859    1.424   .     A
C740   C860    1.424   .     A
C740   C767    1.425   .     A
C740   C918    1.421   .     A
C741   C835    1.454   .     S
C741   C743    1.419   .     A
C741   C1209   1.400   .     S
C742   C861    1.423   .     A
C742   C40     1.424   1_565 S
C743   C862    1.422   .     A
C743   C769    1.423   .     A
C744   C864    1.422   .     A
C744   C752    1.419   .     A
C744   C1134   1.423   1_455 S
C745   C910    1.411   .     A
C745   C880    1.460   .     S
C745   C908    1.411   .     A
C746   C909    1.412   .     A
C746   C906    1.411   .     A
C746   C881    1.460   .     S
C747   C905    1.412   .     A
C747   C912    1.412   .     A
C747   C873    1.462   .     S
C748   C911    1.411   .     A
C748   C904    1.411   .     A
C748   C875    1.460   .     S
C749   C914    1.412   .     A
C749   C903    1.411   .     A
C749   C876    1.460   .     S
C750   C877    1.460   .     S
C750   C902    1.411   .     A
C750   C913    1.411   .     A
C751   C916    1.411   .     A
C751   C878    1.461   .     S
C751   C901    1.411   .     A
C752   C836    1.454   .     S
C752   C1210   1.400   1_455 S
C753   C915    1.412   .     A
C753   C879    1.462   .     S
C753   C900    1.412   .     A
C754   C919    1.411   .     A
C754   C889    1.461   .     S
C754   C899    1.411   .     A
C755   C890    1.462   .     S
C755   C898    1.413   .     A
C755   C917    1.412   .     A
C756   C897    1.412   .     A
C756   C882    1.460   .     S
C756   C921    1.412   .     A
C757   C883    1.459   .     S
C757   C920    1.411   .     A
C757   C895    1.411   .     A
C758   C884    1.462   .     S
C758   C923    1.412   .     A
C758   C894    1.413   .     A
C759   C893    1.411   .     A
C759   C886    1.460   .     S
C759   C922    1.411   .     A
C760   C925    1.411   .     A
C760   C892    1.411   .     A
C760   C887    1.460   .     S
C761   C891    1.411   .     A
C761   C924    1.412   .     A
C761   C888    1.460   .     S
C762   C926    1.423   .     A
C762   C764    1.417   .     A
C763   C837    1.454   .     S
C763   C115    1.400   1_565 S
C764   C927    1.424   .     A
C765   C766    1.412   .     A
C767   C768    1.417   1_556 S
C768   C767    1.417   1_554 S
C769   C1102   1.425   .     S
C769   C770    1.417   1_556 S
C770   C1108   1.423   .     S
C770   C769    1.417   1_554 S
C771   O1042   1.398   .     S
C771   C847    1.487   .     S
C771   O1041   1.223   .     D
C772   O1044   1.397   .     S
C772   C848    1.486   .     S
C772   O1043   1.223   .     D
C773   O1045   1.223   .     D
C773   O1046   1.397   .     S
C773   C849    1.485   .     S
C774   C838    1.454   .     S
C775   O1047   1.223   .     D
C775   O1049   1.397   .     S
C775   C850    1.487   .     S
C776   C851    1.487   .     S
C776   O1050   1.223   .     D
C776   O1051   1.398   .     S
C777   O1052   1.223   .     D
C777   C853    1.486   .     S
C777   O1053   1.397   .     S
C778   O1055   1.398   .     S
C778   O1054   1.223   .     D
C778   C854    1.487   .     S
C779   O1056   1.223   .     D
C779   C855    1.488   .     S
C779   O1057   1.398   .     S
C780   C856    1.487   .     S
C780   O1060   1.398   .     S
C780   O1058   1.223   .     D
C781   O1061   1.223   .     D
C781   C857    1.487   .     S
C781   O1062   1.398   .     S
C782   O1064   1.397   .     S
C782   C858    1.486   .     S
C782   O1063   1.223   .     D
C783   O1066   1.397   .     S
C783   C859    1.486   .     S
C783   O1065   1.223   .     D
C784   O1068   1.397   .     S
C784   C860    1.486   .     S
C784   O1067   1.223   .     D
C785   C839    1.454   .     S
C785   C845    1.401   .     A
C786   O1071   1.397   .     S
C786   O1069   1.223   .     D
C786   C861    1.486   .     S
C787   O1072   1.223   .     D
C787   C862    1.487   .     S
C787   O1073   1.398   .     S
C788   O1075   1.398   .     S
C788   O1074   1.223   .     D
C788   C864    1.487   .     S
C789   N945    1.157   .     T
C789   C891    1.453   .     S
C790   N956    1.157   .     T
C790   C892    1.453   .     S
C791   N967    1.157   .     T
C791   C893    1.454   .     S
C792   N978    1.157   .     T
C792   C894    1.453   .     S
C793   C895    1.453   .     S
C793   N988    1.157   .     T
C794   N989    1.157   .     T
C794   C897    1.453   .     S
C795   C898    1.453   .     S
C795   N990    1.157   .     T
C796   C846    1.401   .     A
C796   C842    1.454   .     S
C797   N991    1.157   .     T
C797   C899    1.453   .     S
C798   N992    1.157   .     T
C798   C900    1.453   .     S
C799   N946    1.157   .     T
C799   C901    1.454   .     S
C800   C902    1.453   .     S
C800   N947    1.157   .     T
C801   C903    1.453   .     S
C801   N948    1.157   .     T
C802   C904    1.454   .     S
C802   N949    1.157   .     T
C803   C905    1.453   .     S
C803   N950    1.157   .     T
C804   N951    1.157   .     T
C804   C906    1.453   .     S
C805   C908    1.453   .     S
C805   N952    1.157   .     T
C806   C909    1.453   .     S
C806   N953    1.157   .     T
C807   C867    1.462   .     S
C807   C874    1.400   .     A
C808   C910    1.454   .     S
C808   N954    1.157   .     T
C809   C911    1.453   .     S
C809   N955    1.157   .     T
C810   C912    1.452   .     S
C810   N957    1.157   .     T
C811   N958    1.157   .     T
C811   C913    1.453   .     S
C812   C914    1.453   .     S
C812   N959    1.157   .     T
C813   C915    1.453   .     S
C813   N960    1.157   .     T
C814   C916    1.453   .     S
C814   N961    1.157   .     T
C815   N962    1.157   .     T
C815   C917    1.453   .     S
C816   C919    1.453   .     S
C816   N963    1.157   .     T
C817   N964    1.157   .     T
C817   C920    1.454   .     S
C818   C868    1.464   .     S
C818   C885    1.401   .     A
C818   C840    1.401   .     A
C819   N965    1.157   .     T
C819   C921    1.454   .     S
C820   C922    1.453   .     S
C820   N966    1.157   .     T
C821   N968    1.157   .     T
C821   C923    1.453   .     S
C822   C924    1.454   .     S
C822   N969    1.157   .     T
C823   C925    1.454   .     S
C823   N970    1.157   .     T
C824   N971    1.158   .     T
C824   C1093   1.454   .     S
C825   C840    1.454   .     S
C825   N1336   1.158   1_455 S
C826   N973    1.158   .     T
C826   C852    1.454   .     S
C827   N974    1.158   .     T
C827   C863    1.454   .     S
C828   N975    1.158   .     T
C828   C1238   1.454   .     S
C829   C852    1.397   .     A
C830   N976    1.158   .     T
C830   C1249   1.454   .     S
C831   N977    1.158   .     T
C831   C896    1.454   .     S
C832   C907    1.454   .     S
C832   N979    1.158   .     T
C833   N980    1.158   .     T
C833   C918    1.454   .     S
C834   N981    1.158   .     T
C835   N982    1.158   .     T
C836   N983    1.158   .     T
C837   N984    1.158   .     T
C838   N985    1.158   .     T
C839   N986    1.158   .     T
C841   C907    1.398   .     A
C841   C866    1.453   .     S
C842   N987    1.158   .     T
C843   C918    1.401   .     A
C843   C871    1.463   .     S
C844   C872    1.463   .     S
C844   C46     1.400   1_565 S
C845   C869    1.463   .     S
C845   C1105   1.400   1_455 S
C846   C870    1.463   .     S
C846   C1116   1.400   .     S
C847   C926    1.421   .     A
C847   C853    1.409   .     A
C848   C927    1.424   .     A
C848   C851    1.410   .     A
C849   C855    1.408   .     A
C849   C928    1.422   .     A
C850   C854    1.407   .     A
C856   C861    1.409   1_556 S
C857   C860    1.409   1_554 S
C858   C864    1.409   1_556 S
C859   C862    1.409   1_554 S
C860   C857    1.409   1_556 S
C861   C856    1.409   1_554 S
C862   C859    1.409   1_556 S
C863   C113    1.398   1_565 S
C864   C858    1.409   1_554 S
C865   O1037   1.277   .     A
C865   C101    1.454   1_565 S
C865   O348    1.277   1_565 S
C866   O1048   1.276   .     A
C867   O1059   1.275   .     A
C867   O1359   1.282   1_455 S
C868   O996    1.275   .     A
C868   O1434   1.283   1_455 S
C869   O997    1.276   .     S
C869   O1001   1.282   .     S
C870   O1362   1.282   .     A
C870   O1366   1.276   .     S
C871   O999    1.275   .     A
C871   O1003   1.282   .     A
C872   O272    1.282   1_565 S
C872   O277    1.275   1_565 S
C873   O1034   1.280   .     A
C873   O1006   1.281   .     A
C874   C926    1.419   .     A
C874   C1192   1.454   1_455 S
C875   O1035   1.280   .     A
C875   O1007   1.280   .     A
C876   O1032   1.281   .     A
C876   O1008   1.280   .     A
C877   O1009   1.281   .     A
C877   O1033   1.280   .     A
C878   O1039   1.280   .     A
C878   O1010   1.280   .     A
C879   O1040   1.280   .     A
C879   O1011   1.281   .     A
C880   O1012   1.281   .     A
C880   O1036   1.279   .     A
C881   O1038   1.281   .     A
C881   O1013   1.279   .     A
C882   O1025   1.280   .     A
C882   O1014   1.281   .     A
C883   O1016   1.280   .     A
C883   O1027   1.280   .     A
C884   O1023   1.280   .     A
C884   O1017   1.280   .     A
C885   C927    1.421   .     A
C885   C1194   1.454   1_455 S
C886   O1018   1.280   .     A
C886   O1024   1.280   .     A
C887   O1030   1.280   .     A
C887   O1019   1.280   .     A
C888   O1031   1.280   .     A
C888   O1020   1.280   .     A
C889   O1021   1.280   .     A
C889   O1028   1.280   .     A
C890   O1029   1.280   .     A
C890   O1022   1.280   .     A
C891   C908    1.399   .     A
C892   C906    1.400   .     A
C893   C905    1.400   .     A
C894   C904    1.399   .     A
C895   C903    1.400   .     A
C896   C928    1.417   .     A
C896   C101    1.399   1_565 S
C897   C902    1.399   .     A
C898   C901    1.399   .     A
C899   C900    1.399   .     A
C909   C925    1.400   .     A
C910   C924    1.400   .     A
C911   C923    1.399   .     A
C912   C922    1.400   .     A
C913   C921    1.400   .     A
C914   C920    1.400   .     A
C915   C919    1.399   .     A
C916   C917    1.398   .     A
C928   C37     1.425   1_565 S
H929   O1042   1.014   .     S
H930   O1062   1.014   .     S
H931   O1064   1.014   .     S
H932   O1066   1.014   .     S
H933   O1068   1.014   .     S
H934   O1071   1.014   .     S
H935   O1073   1.014   .     S
H936   O1075   1.014   .     S
H937   O1044   1.014   .     S
H938   O1046   1.014   .     S
H939   O1049   1.014   .     S
H940   O1051   1.014   .     S
H941   O1053   1.014   .     S
H942   O1055   1.014   .     S
H943   O1057   1.014   .     S
H944   O1060   1.014   .     S
N972   C1189   1.158   .     S
O993   Zn1080  1.950   .     S
O993   Zn1088  1.949   .     S
O993   Zn1077  1.950   .     S
O994   Zn1079  1.945   .     S
O994   C138    1.277   1_565 S
O995   Zn1082  1.945   .     S
O995   C1231   1.282   .     S
O996   Zn1081  1.945   .     S
O997   Zn1091  1.945   .     S
O998   C1234   1.282   1_455 A
O998   Zn1090  1.945   .     S
O999   Zn1085  1.945   .     S
O1000  Zn1077  1.945   .     S
O1001  Zn1087  1.945   .     S
O1002  Zn1086  1.945   .     S
O1002  C1234   1.276   1_455 S
O1003  Zn1089  1.945   .     S
O1004  Zn1083  1.949   .     S
O1004  Zn1085  1.950   .     S
O1004  Zn1089  1.949   .     S
O1005  Zn1088  1.945   .     S
O1006  Zn1080  1.942   .     S
O1007  Zn1079  1.942   .     S
O1008  Zn1082  1.940   .     S
O1009  Zn1081  1.940   .     S
O1010  Zn1084  1.942   .     S
O1011  Zn1083  1.942   .     S
O1012  Zn1078  1.940   .     S
O1013  Zn1092  1.940   .     S
O1014  Zn1079  1.940   .     S
O1015  Zn1078  1.950   .     S
O1015  Zn1086  1.950   .     S
O1015  Zn1446  1.949   1_455 S
O1015  Zn1090  1.949   .     S
O1016  Zn1080  1.940   .     S
O1017  Zn1092  1.942   .     S
O1018  Zn1078  1.942   .     S
O1019  Zn1083  1.940   .     S
O1020  Zn1084  1.940   .     S
O1021  Zn1081  1.942   .     S
O1022  Zn1082  1.942   .     S
O1023  Zn1451  1.942   .     S
O1024  Zn1086  1.942   .     S
O1025  Zn361   1.940   1_565 S
O1026  Zn1081  1.949   .     S
O1026  Zn1087  1.950   .     S
O1026  Zn1091  1.949   .     S
O1026  Zn1456  1.950   1_455 S
O1027  Zn1088  1.940   .     S
O1028  Zn1091  1.942   .     S
O1029  Zn1454  1.942   .     S
O1030  Zn1085  1.940   .     S
O1031  Zn349   1.940   1_565 S
O1032  Zn1450  1.940   .     S
O1033  Zn1087  1.940   .     S
O1034  Zn1077  1.942   .     S
O1035  Zn357   1.942   1_565 S
O1036  Zn1090  1.940   .     S
O1037  Zn1084  1.945   .     S
O1038  Zn1455  1.940   .     S
O1039  Zn360   1.942   1_565 S
O1040  Zn1089  1.942   .     S
O1048  Zn1083  1.945   .     S
O1059  Zn1078  1.945   .     S
O1070  Zn1092  1.945   .     S
O1070  C1232   1.283   .     S
O1076  Zn1080  1.945   .     S
Zn1079 O276    1.950   1_565 S
Zn1082 O1379   1.949   .     S
Zn1084 O265    1.949   1_565 S
Zn1086 O1396   1.940   1_455 S
Zn1087 O1387   1.942   1_455 S
Zn1090 O1393   1.942   1_455 S
Zn1091 O1402   1.940   1_455 S
Zn1092 O1390   1.950   .     S
C1093  C1171   1.401   .     A
C1093  C1096   1.421   .     A
C1094  C1208   1.401   .     A
C1094  C1106   1.421   .     A
C1094  C1198   1.454   .     S
C1095  C1271   1.414   .     A
C1095  C1130   1.424   .     A
C1095  C1214   1.420   .     A
C1096  C1126   1.423   .     A
C1096  C1215   1.422   .     A
C1097  C1128   1.425   .     A
C1097  C1217   1.424   .     A
C1097  C1204   1.420   .     A
C1098  C1218   1.421   .     A
C1098  C1129   1.424   .     A
C1098  C1216   1.413   .     A
C1099  C1227   1.415   .     A
C1099  C1219   1.420   .     A
C1099  C402    1.424   1_565 S
C1100  C1127   1.419   .     A
C1100  C1220   1.422   .     A
C1100  C403    1.423   1_565 S
C1101  C1138   1.419   .     A
C1101  C1132   1.423   .     A
C1101  C1221   1.422   .     A
C1102  C1149   1.421   .     A
C1102  C1222   1.423   .     A
C1103  C1160   1.421   .     A
C1103  C1134   1.425   .     A
C1103  C1223   1.424   .     A
C1104  C1224   1.424   .     A
C1104  C1131   1.425   .     A
C1104  C1282   1.421   .     A
C1105  C1199   1.454   .     S
C1105  C1107   1.419   .     A
C1105  C845    1.400   1_655 S
C1106  C1225   1.423   .     A
C1106  C404    1.424   1_565 S
C1107  C1226   1.422   .     A
C1107  C1133   1.423   .     A
C1108  C1228   1.422   .     A
C1108  C1116   1.419   .     A
C1109  C1274   1.411   .     A
C1109  C1244   1.460   .     S
C1109  C1272   1.411   .     A
C1110  C1273   1.412   .     A
C1110  C1270   1.411   .     A
C1110  C1245   1.460   .     S
C1111  C1269   1.412   .     A
C1111  C1276   1.412   .     A
C1111  C1237   1.462   .     S
C1112  C1275   1.411   .     A
C1112  C1268   1.411   .     A
C1112  C1239   1.460   .     S
C1113  C1278   1.412   .     A
C1113  C1267   1.411   .     A
C1113  C1240   1.460   .     S
C1114  C1241   1.460   .     S
C1114  C1266   1.411   .     A
C1114  C1277   1.411   .     A
C1115  C1280   1.411   .     A
C1115  C1242   1.461   .     S
C1115  C1265   1.411   .     A
C1116  C1200   1.454   .     S
C1117  C1279   1.412   .     A
C1117  C1243   1.462   .     S
C1117  C1264   1.412   .     A
C1118  C1283   1.411   .     A
C1118  C1253   1.461   .     S
C1118  C1263   1.411   .     A
C1119  C1254   1.462   .     S
C1119  C1262   1.413   .     A
C1119  C1281   1.412   .     A
C1120  C1261   1.412   .     A
C1120  C1246   1.460   .     S
C1120  C1285   1.412   .     A
C1121  C1247   1.459   .     S
C1121  C1284   1.411   .     A
C1121  C1259   1.411   .     A
C1122  C1248   1.462   .     S
C1122  C1287   1.412   .     A
C1122  C1258   1.413   .     A
C1123  C1257   1.411   .     A
C1123  C1250   1.460   .     S
C1123  C1286   1.411   .     A
C1124  C1289   1.411   .     A
C1124  C1256   1.411   .     A
C1124  C1251   1.460   .     S
C1125  C1255   1.411   .     A
C1125  C1288   1.412   .     A
C1125  C1252   1.460   .     S
C1126  C1290   1.423   .     A
C1126  C1128   1.417   .     A
C1127  C1201   1.454   .     S
C1127  C479    1.400   1_565 S
C1128  C1291   1.424   .     A
C1129  C1130   1.412   .     A
C1131  C1132   1.417   1_556 S
C1132  C1131   1.417   1_554 S
C1133  C738    1.425   1_655 S
C1133  C1134   1.417   1_556 S
C1134  C744    1.423   1_655 S
C1134  C1133   1.417   1_554 S
C1135  O1406   1.398   .     S
C1135  C1211   1.487   .     S
C1135  O1405   1.223   .     D
C1136  O1408   1.397   .     S
C1136  C1212   1.486   .     S
C1136  O1407   1.223   .     D
C1137  O1409   1.223   .     D
C1137  O1410   1.397   .     S
C1137  C1213   1.485   .     S
C1138  C1202   1.454   .     S
C1139  O1411   1.223   .     D
C1139  O1413   1.397   .     S
C1139  C1214   1.487   .     S
C1140  C1215   1.487   .     S
C1140  O1414   1.223   .     D
C1140  O1415   1.398   .     S
C1141  O1416   1.223   .     D
C1141  C1217   1.486   .     S
C1141  O1417   1.397   .     S
C1142  O1419   1.398   .     S
C1142  O1418   1.223   .     D
C1142  C1218   1.487   .     S
C1143  O1420   1.223   .     D
C1143  C1219   1.488   .     S
C1143  O1421   1.398   .     S
C1144  C1220   1.487   .     S
C1144  O1424   1.398   .     S
C1144  O1422   1.223   .     D
C1145  O1425   1.223   .     D
C1145  C1221   1.487   .     S
C1145  O1426   1.398   .     S
C1146  O1428   1.397   .     S
C1146  C1222   1.486   .     S
C1146  O1427   1.223   .     D
C1147  O1430   1.397   .     S
C1147  C1223   1.486   .     S
C1147  O1429   1.223   .     D
C1148  O1432   1.397   .     S
C1148  C1224   1.486   .     S
C1148  O1431   1.223   .     D
C1149  C1203   1.454   .     S
C1149  C1209   1.401   .     A
C1150  O1435   1.397   .     S
C1150  O1433   1.223   .     D
C1150  C1225   1.486   .     S
C1151  O1436   1.223   .     D
C1151  C1226   1.487   .     S
C1151  O1437   1.398   .     S
C1152  O1439   1.398   .     S
C1152  O1438   1.223   .     D
C1152  C1228   1.487   .     S
C1153  N1309   1.157   .     T
C1153  C1255   1.453   .     S
C1154  N1320   1.157   .     T
C1154  C1256   1.453   .     S
C1155  N1331   1.157   .     T
C1155  C1257   1.454   .     S
C1156  N1342   1.157   .     T
C1156  C1258   1.453   .     S
C1157  C1259   1.453   .     S
C1157  N1352   1.157   .     T
C1158  N1353   1.157   .     T
C1158  C1261   1.453   .     S
C1159  C1262   1.453   .     S
C1159  N1354   1.157   .     T
C1160  C1210   1.401   .     A
C1160  C1206   1.454   .     S
C1161  N1355   1.157   .     T
C1161  C1263   1.453   .     S
C1162  N1356   1.157   .     T
C1162  C1264   1.453   .     S
C1163  N1310   1.157   .     T
C1163  C1265   1.454   .     S
C1164  C1266   1.453   .     S
C1164  N1311   1.157   .     T
C1165  C1267   1.453   .     S
C1165  N1312   1.157   .     T
C1166  C1268   1.454   .     S
C1166  N1313   1.157   .     T
C1167  C1269   1.453   .     S
C1167  N1314   1.157   .     T
C1168  N1315   1.157   .     T
C1168  C1270   1.453   .     S
C1169  C1272   1.453   .     S
C1169  N1316   1.157   .     T
C1170  C1273   1.453   .     S
C1170  N1317   1.157   .     T
C1171  C1231   1.462   .     S
C1171  C1238   1.400   .     A
C1172  C1274   1.454   .     S
C1172  N1318   1.157   .     T
C1173  C1275   1.453   .     S
C1173  N1319   1.157   .     T
C1174  C1276   1.452   .     S
C1174  N1321   1.157   .     T
C1175  N1322   1.157   .     T
C1175  C1277   1.453   .     S
C1176  C1278   1.453   .     S
C1176  N1323   1.157   .     T
C1177  C1279   1.453   .     S
C1177  N1324   1.157   .     T
C1178  C1280   1.453   .     S
C1178  N1325   1.157   .     T
C1179  N1326   1.157   .     T
C1179  C1281   1.453   .     S
C1180  C1283   1.453   .     S
C1180  N1327   1.157   .     T
C1181  N1328   1.157   .     T
C1181  C1284   1.454   .     S
C1182  C1232   1.464   .     S
C1182  C1249   1.401   .     A
C1182  C1204   1.401   .     A
C1183  N1329   1.157   .     T
C1183  C1285   1.454   .     S
C1184  C1286   1.453   .     S
C1184  N1330   1.157   .     T
C1185  N1332   1.157   .     T
C1185  C1287   1.453   .     S
C1186  C1288   1.454   .     S
C1186  N1333   1.157   .     T
C1187  C1289   1.454   .     S
C1187  N1334   1.157   .     T
C1188  N1335   1.158   .     T
C1188  C729    1.454   1_655 S
C1189  C1204   1.454   .     S
C1190  N1337   1.158   .     T
C1190  C1216   1.454   .     S
C1191  N1338   1.158   .     T
C1191  C1227   1.454   .     S
C1192  N1339   1.158   .     T
C1192  C874    1.454   1_655 S
C1193  C1216   1.397   .     A
C1194  N1340   1.158   .     T
C1194  C885    1.454   1_655 S
C1195  N1341   1.158   .     T
C1195  C1260   1.454   .     S
C1196  C1271   1.454   .     S
C1196  N1343   1.158   .     T
C1197  N1344   1.158   .     T
C1197  C1282   1.454   .     S
C1198  N1345   1.158   .     T
C1199  N1346   1.158   .     T
C1200  N1347   1.158   .     T
C1201  N1348   1.158   .     T
C1202  N1349   1.158   .     T
C1203  N1350   1.158   .     T
C1205  C1271   1.398   .     A
C1205  C1230   1.453   .     S
C1206  N1351   1.158   .     T
C1207  C1282   1.401   .     A
C1207  C1235   1.463   .     S
C1208  C1236   1.463   .     S
C1208  C410    1.400   1_565 S
C1209  C1233   1.463   .     S
C1210  C1234   1.463   .     S
C1210  C752    1.400   1_655 S
C1211  C1290   1.421   .     A
C1211  C1217   1.409   .     A
C1212  C1291   1.424   .     A
C1212  C1215   1.410   .     A
C1213  C1219   1.408   .     A
C1213  C1292   1.422   .     A
C1214  C1218   1.407   .     A
C1220  C1225   1.409   1_556 S
C1221  C1224   1.409   1_554 S
C1222  C1228   1.409   1_556 S
C1223  C1226   1.409   1_554 S
C1224  C1221   1.409   1_556 S
C1225  C1220   1.409   1_554 S
C1226  C1223   1.409   1_556 S
C1227  C477    1.398   1_565 S
C1228  C1222   1.409   1_554 S
C1229  O1401   1.277   .     A
C1229  C465    1.454   1_565 S
C1229  O712    1.277   1_565 S
C1230  O1412   1.276   .     A
C1231  O1423   1.275   .     A
C1232  O1360   1.275   .     A
C1233  O1361   1.276   .     S
C1233  O1365   1.282   .     S
C1234  O998    1.282   1_655 A
C1234  O1002   1.276   1_655 S
C1235  O1363   1.275   .     A
C1235  O1367   1.282   .     A
C1236  O636    1.282   1_565 S
C1236  O641    1.275   1_565 S
C1237  O1398   1.280   .     A
C1237  O1370   1.281   .     A
C1238  C1290   1.419   .     A
C1239  O1399   1.280   .     A
C1239  O1371   1.280   .     A
C1240  O1396   1.281   .     A
C1240  O1372   1.280   .     A
C1241  O1373   1.281   .     A
C1241  O1397   1.280   .     A
C1242  O1403   1.280   .     A
C1242  O1374   1.280   .     A
C1243  O1404   1.280   .     A
C1243  O1375   1.281   .     A
C1244  O1376   1.281   .     A
C1244  O1400   1.279   .     A
C1245  O1402   1.281   .     A
C1245  O1377   1.279   .     A
C1246  O1389   1.280   .     A
C1246  O1378   1.281   .     A
C1247  O1380   1.280   .     A
C1247  O1391   1.280   .     A
C1248  O1387   1.280   .     A
C1248  O1381   1.280   .     A
C1249  C1291   1.421   .     A
C1250  O1382   1.280   .     A
C1250  O1388   1.280   .     A
C1251  O1394   1.280   .     A
C1251  O1383   1.280   .     A
C1252  O1395   1.280   .     A
C1252  O1384   1.280   .     A
C1253  O1385   1.280   .     A
C1253  O1392   1.280   .     A
C1254  O1393   1.280   .     A
C1254  O1386   1.280   .     A
C1255  C1272   1.399   .     A
C1256  C1270   1.400   .     A
C1257  C1269   1.400   .     A
C1258  C1268   1.399   .     A
C1259  C1267   1.400   .     A
C1260  C1292   1.417   .     A
C1260  C465    1.399   1_565 S
C1261  C1266   1.399   .     A
C1262  C1265   1.399   .     A
C1263  C1264   1.399   .     A
C1273  C1289   1.400   .     A
C1274  C1288   1.400   .     A
C1275  C1287   1.399   .     A
C1276  C1286   1.400   .     A
C1277  C1285   1.400   .     A
C1278  C1284   1.400   .     A
C1279  C1283   1.399   .     A
C1280  C1281   1.398   .     A
C1292  C401    1.425   1_565 S
H1293  O1406   1.014   .     S
H1294  O1426   1.014   .     S
H1295  O1428   1.014   .     S
H1296  O1430   1.014   .     S
H1297  O1432   1.014   .     S
H1298  O1435   1.014   .     S
H1299  O1437   1.014   .     S
H1300  O1439   1.014   .     S
H1301  O1408   1.014   .     S
H1302  O1410   1.014   .     S
H1303  O1413   1.014   .     S
H1304  O1415   1.014   .     S
H1305  O1417   1.014   .     S
H1306  O1419   1.014   .     S
H1307  O1421   1.014   .     S
H1308  O1424   1.014   .     S
N1336  C825    1.158   1_655 S
O1357  Zn1444  1.950   .     S
O1357  Zn1452  1.949   .     S
O1357  Zn1441  1.950   .     S
O1358  Zn1443  1.945   .     S
O1358  C502    1.277   1_565 S
O1359  Zn1446  1.945   .     S
O1359  C867    1.282   1_655 S
O1360  Zn1445  1.945   .     S
O1361  Zn1455  1.945   .     S
O1362  Zn1454  1.945   .     S
O1363  Zn1449  1.945   .     S
O1364  Zn1441  1.945   .     S
O1365  Zn1451  1.945   .     S
O1366  Zn1450  1.945   .     S
O1367  Zn1453  1.945   .     S
O1368  Zn1447  1.949   .     S
O1368  Zn1449  1.950   .     S
O1368  Zn1453  1.949   .     S
O1369  Zn1452  1.945   .     S
O1370  Zn1444  1.942   .     S
O1371  Zn1443  1.942   .     S
O1372  Zn1446  1.940   .     S
O1373  Zn1445  1.940   .     S
O1374  Zn1448  1.942   .     S
O1375  Zn1447  1.942   .     S
O1376  Zn1442  1.940   .     S
O1377  Zn1456  1.940   .     S
O1378  Zn1443  1.940   .     S
O1379  Zn1442  1.950   .     S
O1379  Zn1450  1.950   .     S
O1379  Zn1454  1.949   .     S
O1380  Zn1444  1.940   .     S
O1381  Zn1456  1.942   .     S
O1382  Zn1442  1.942   .     S
O1383  Zn1447  1.940   .     S
O1384  Zn1448  1.940   .     S
O1385  Zn1445  1.942   .     S
O1386  Zn1446  1.942   .     S
O1387  Zn1087  1.942   1_655 S
O1388  Zn1450  1.942   .     S
O1389  Zn725   1.940   1_565 S
O1390  Zn1445  1.949   .     S
O1390  Zn1451  1.950   .     S
O1390  Zn1455  1.949   .     S
O1391  Zn1452  1.940   .     S
O1392  Zn1455  1.942   .     S
O1393  Zn1090  1.942   1_655 S
O1394  Zn1449  1.940   .     S
O1395  Zn713   1.940   1_565 S
O1396  Zn1086  1.940   1_655 S
O1397  Zn1451  1.940   .     S
O1398  Zn1441  1.942   .     S
O1399  Zn721   1.942   1_565 S
O1400  Zn1454  1.940   .     S
O1401  Zn1448  1.945   .     S
O1402  Zn1091  1.940   1_655 S
O1403  Zn724   1.942   1_565 S
O1404  Zn1453  1.942   .     S
O1412  Zn1447  1.945   .     S
O1423  Zn1442  1.945   .     S
O1434  Zn1456  1.945   .     S
O1434  C868    1.283   1_655 S
O1440  Zn1444  1.945   .     S
Zn1443 O640    1.950   1_565 S
Zn1446 O1015   1.949   1_655 S
Zn1448 O629    1.949   1_565 S
Zn1456 O1026   1.950   1_655 S
