data_str_m2_o1_o18_pcu_sym.205
_audit_creation_date              2020-01-03
_audit_creation_method            'Materials Studio'
_symmetry_space_group_name_H-M    'P1'
_symmetry_Int_Tables_number       1
_symmetry_cell_setting            triclinic
loop_
_symmetry_equiv_pos_as_xyz
  x,y,z
_cell_length_a                    28.6108
_cell_length_b                    32.3779
_cell_length_c                    30.8006
_cell_angle_alpha                 89.8679
_cell_angle_beta                  74.5376
_cell_angle_gamma                 90.5556
loop_
_atom_site_label
_atom_site_type_symbol
_atom_site_fract_x
_atom_site_fract_y
_atom_site_fract_z
_atom_site_U_iso_or_equiv
_atom_site_adp_type
_atom_site_occupancy
C1     C     0.33294   0.08748   0.25049   0.00000  Uiso   1.00
C2     C     0.00040   0.24585   0.24946   0.00000  Uiso   1.00
C3     C     0.18529   0.13111   0.04285   0.00000  Uiso   1.00
C4     C     0.14038   0.17750   0.45140   0.00000  Uiso   1.00
C5     C     0.23270   0.12172   0.02035   0.00000  Uiso   1.00
C6     C     0.09279   0.18638   0.47362   0.00000  Uiso   1.00
C7     C     0.31462   0.02205   0.21871   0.00000  Uiso   1.00
C8     C     0.01874   0.31128   0.28120   0.00000  Uiso   1.00
C9     C     0.31661   0.31218   0.21666   0.00000  Uiso   1.00
C10    C     0.01671   0.02114   0.28326   0.00000  Uiso   1.00
C11    C     0.00131   0.29052   0.24858   0.00000  Uiso   1.00
C12    C     0.33204   0.04281   0.25134   0.00000  Uiso   1.00
C13    C     0.18322   0.14065   0.27804   0.00000  Uiso   1.00
C14    C     0.15011   0.19270   0.22198   0.00000  Uiso   1.00
C15    C     0.13341   0.14087   0.27785   0.00000  Uiso   1.00
C16    C     0.19992   0.19246   0.22214   0.00000  Uiso   1.00
C17    C     0.30617   0.16510   0.33620   0.00000  Uiso   1.00
C18    C     0.02713   0.16776   0.16373   0.00000  Uiso   1.00
C19    C     0.29116   0.15780   0.38527   0.00000  Uiso   1.00
C20    C     0.04156   0.17088   0.11408   0.00000  Uiso   1.00
C21    C     0.30120   0.12458   0.45331   0.00000  Uiso   1.00
C22    C     0.02729   0.19177   0.04258   0.00000  Uiso   1.00
C23    C     0.32091   0.13686   0.40772   0.00000  Uiso   1.00
C24    C     0.00998   0.18644   0.08995   0.00000  Uiso   1.00
C25    C     0.24375   0.16781   0.40818   0.00000  Uiso   1.00
C26    C     0.08876   0.15985   0.09137   0.00000  Uiso   1.00
C27    C     0.22270   0.15463   0.45254   0.00000  Uiso   1.00
C28    C     0.10639   0.16360   0.04442   0.00000  Uiso   1.00
C29    C     0.25237   0.13363   0.47546   0.00000  Uiso   1.00
C30    C     0.07532   0.18058   0.02017   0.00000  Uiso   1.00
C31    C     0.17293   0.16197   0.47466   0.00000  Uiso   1.00
C32    C     0.15476   0.15234   0.02123   0.00000  Uiso   1.00
Cu33   Cu    0.04689   0.16667   0.25000   0.00000  Uiso   1.00
Cu34   Cu    0.28645   0.16666   0.25000   0.00000  Uiso   1.00
H35    H     0.25406   0.10525   0.03885   0.00000  Uiso   1.00
H36    H     0.06974   0.19817   0.45376   0.00000  Uiso   1.00
H37    H     0.11172   0.14952   0.11165   0.00000  Uiso   1.00
H38    H     0.22395   0.18629   0.39018   0.00000  Uiso   1.00
H39    H     0.17333   0.11989   0.07699   0.00000  Uiso   1.00
H40    H     0.14999   0.18206   0.41545   0.00000  Uiso   1.00
H41    H     0.10764   0.12031   0.29993   0.00000  Uiso   1.00
H42    H     0.22571   0.21300   0.20004   0.00000  Uiso   1.00
N43    N     0.11736   0.16668   0.24999   0.00000  Uiso   1.00
N44    N     0.21597   0.16666   0.25001   0.00000  Uiso   1.00
O45    O     0.03958   0.10655   0.25000   0.00000  Uiso   1.00
O46    O     0.29375   0.22678   0.25000   0.00000  Uiso   1.00
O47    O     0.29372   0.10654   0.25000   0.00000  Uiso   1.00
O48    O     0.03961   0.22679   0.24999   0.00000  Uiso   1.00
O49    O     0.01852   0.16668   0.31491   0.00000  Uiso   1.00
O50    O     0.31481   0.16666   0.18508   0.00000  Uiso   1.00
O51    O     0.27267   0.16667   0.31492   0.00000  Uiso   1.00
O52    O     0.06067   0.16667   0.18508   0.00000  Uiso   1.00
O53    O     0.29703   0.19765   0.11384   0.00000  Uiso   1.00
H54    H     0.27774   0.20654   0.09336   0.00000  Uiso   1.00
O55    O     0.03456   0.12780   0.38380   0.00000  Uiso   1.00
H56    H     0.05244   0.11481   0.40347   0.00000  Uiso   1.00
N57    N     0.32946   0.10162   0.47702   0.00000  Uiso   1.00
H58    H     0.00737   0.07418   0.45972   0.00000  Uiso   1.00
H59    H     0.02642   0.11920   0.47851   0.00000  Uiso   1.00
N60    N     0.33062   0.20973   0.01699   0.00000  Uiso   1.00
H61    H     0.29971   0.19127   0.02046   0.00000  Uiso   1.00
H62    H     0.32043   0.23927   0.02938   0.00000  Uiso   1.00
O63    O     0.29797   0.04522   0.18810   0.00000  Uiso   1.00
H64    H     0.28569   0.02690   0.16784   0.00000  Uiso   1.00
O65    O     0.03541   0.28813   0.31180   0.00000  Uiso   1.00
H66    H     0.04774   0.30644   0.33202   0.00000  Uiso   1.00
O67    O     0.30178   0.29236   0.18274   0.00000  Uiso   1.00
H68    H     0.31766   0.26519   0.17663   0.00000  Uiso   1.00
O69    O     0.03144   0.04096   0.31722   0.00000  Uiso   1.00
H70    H     0.01533   0.06802   0.32343   0.00000  Uiso   1.00
O71    O     0.19936   0.11441   0.30612   0.00000  Uiso   1.00
H72    H     0.17150   0.09799   0.32426   0.00000  Uiso   1.00
O73    O     0.13395   0.21900   0.19397   0.00000  Uiso   1.00
H74    H     0.16179   0.23550   0.17592   0.00000  Uiso   1.00
C75    C     0.66627   0.08748   0.25049   0.00000  Uiso   1.00
C76    C     0.33374   0.24585   0.24946   0.00000  Uiso   1.00
C77    C     0.51863   0.13111   0.04285   0.00000  Uiso   1.00
C78    C     0.47371   0.17750   0.45140   0.00000  Uiso   1.00
C79    C     0.56603   0.12172   0.02035   0.00000  Uiso   1.00
C80    C     0.42612   0.18638   0.47362   0.00000  Uiso   1.00
C81    C     0.64795   0.02205   0.21871   0.00000  Uiso   1.00
C82    C     0.35207   0.31128   0.28120   0.00000  Uiso   1.00
C83    C     0.64994   0.31218   0.21666   0.00000  Uiso   1.00
C84    C     0.35005   0.02114   0.28326   0.00000  Uiso   1.00
C85    C     0.33464   0.29052   0.24858   0.00000  Uiso   1.00
C86    C     0.66537   0.04281   0.25134   0.00000  Uiso   1.00
C87    C     0.51655   0.14065   0.27804   0.00000  Uiso   1.00
C88    C     0.48344   0.19270   0.22198   0.00000  Uiso   1.00
C89    C     0.46675   0.14087   0.27785   0.00000  Uiso   1.00
C90    C     0.53326   0.19246   0.22214   0.00000  Uiso   1.00
C91    C     0.63951   0.16510   0.33620   0.00000  Uiso   1.00
C92    C     0.36046   0.16776   0.16373   0.00000  Uiso   1.00
C93    C     0.62449   0.15780   0.38527   0.00000  Uiso   1.00
C94    C     0.37490   0.17088   0.11408   0.00000  Uiso   1.00
C95    C     0.63453   0.12458   0.45331   0.00000  Uiso   1.00
C96    C     0.36062   0.19177   0.04258   0.00000  Uiso   1.00
C97    C     0.65424   0.13686   0.40772   0.00000  Uiso   1.00
C98    C     0.34331   0.18644   0.08995   0.00000  Uiso   1.00
C99    C     0.57708   0.16781   0.40818   0.00000  Uiso   1.00
C100   C     0.42209   0.15985   0.09137   0.00000  Uiso   1.00
C101   C     0.55604   0.15463   0.45254   0.00000  Uiso   1.00
C102   C     0.43973   0.16360   0.04442   0.00000  Uiso   1.00
C103   C     0.58570   0.13363   0.47546   0.00000  Uiso   1.00
C104   C     0.40866   0.18058   0.02017   0.00000  Uiso   1.00
C105   C     0.50626   0.16197   0.47466   0.00000  Uiso   1.00
C106   C     0.48809   0.15234   0.02123   0.00000  Uiso   1.00
Cu107  Cu    0.38022   0.16667   0.25000   0.00000  Uiso   1.00
Cu108  Cu    0.61978   0.16666   0.25000   0.00000  Uiso   1.00
H109   H     0.58740   0.10525   0.03885   0.00000  Uiso   1.00
H110   H     0.40308   0.19817   0.45376   0.00000  Uiso   1.00
H111   H     0.44506   0.14952   0.11165   0.00000  Uiso   1.00
H112   H     0.55729   0.18629   0.39018   0.00000  Uiso   1.00
H113   H     0.50666   0.11989   0.07699   0.00000  Uiso   1.00
H114   H     0.48332   0.18206   0.41545   0.00000  Uiso   1.00
H115   H     0.44097   0.12031   0.29993   0.00000  Uiso   1.00
H116   H     0.55905   0.21300   0.20004   0.00000  Uiso   1.00
N117   N     0.45069   0.16668   0.24999   0.00000  Uiso   1.00
N118   N     0.54931   0.16666   0.25001   0.00000  Uiso   1.00
O119   O     0.37291   0.10655   0.25000   0.00000  Uiso   1.00
O120   O     0.62709   0.22678   0.25000   0.00000  Uiso   1.00
O121   O     0.62706   0.10654   0.25000   0.00000  Uiso   1.00
O122   O     0.37294   0.22679   0.24999   0.00000  Uiso   1.00
O123   O     0.35186   0.16668   0.31491   0.00000  Uiso   1.00
O124   O     0.64814   0.16666   0.18508   0.00000  Uiso   1.00
O125   O     0.60600   0.16667   0.31492   0.00000  Uiso   1.00
O126   O     0.39400   0.16667   0.18508   0.00000  Uiso   1.00
O127   O     0.63036   0.19765   0.11384   0.00000  Uiso   1.00
H128   H     0.61107   0.20654   0.09336   0.00000  Uiso   1.00
O129   O     0.36790   0.12780   0.38380   0.00000  Uiso   1.00
H130   H     0.38577   0.11481   0.40347   0.00000  Uiso   1.00
N131   N     0.66279   0.10162   0.47702   0.00000  Uiso   1.00
H132   H     0.34070   0.07418   0.45972   0.00000  Uiso   1.00
H133   H     0.35976   0.11920   0.47851   0.00000  Uiso   1.00
N134   N     0.66395   0.20973   0.01699   0.00000  Uiso   1.00
H135   H     0.63304   0.19127   0.02046   0.00000  Uiso   1.00
H136   H     0.65376   0.23927   0.02938   0.00000  Uiso   1.00
O137   O     0.63130   0.04522   0.18810   0.00000  Uiso   1.00
H138   H     0.61902   0.02690   0.16784   0.00000  Uiso   1.00
O139   O     0.36874   0.28813   0.31180   0.00000  Uiso   1.00
H140   H     0.38107   0.30644   0.33202   0.00000  Uiso   1.00
O141   O     0.63512   0.29236   0.18274   0.00000  Uiso   1.00
H142   H     0.65100   0.26519   0.17663   0.00000  Uiso   1.00
O143   O     0.36477   0.04096   0.31722   0.00000  Uiso   1.00
H144   H     0.34866   0.06802   0.32343   0.00000  Uiso   1.00
O145   O     0.53269   0.11441   0.30612   0.00000  Uiso   1.00
H146   H     0.50483   0.09799   0.32426   0.00000  Uiso   1.00
O147   O     0.46728   0.21900   0.19397   0.00000  Uiso   1.00
H148   H     0.49512   0.23550   0.17592   0.00000  Uiso   1.00
C149   C     0.99961   0.08748   0.25049   0.00000  Uiso   1.00
C150   C     0.66707   0.24585   0.24946   0.00000  Uiso   1.00
C151   C     0.85196   0.13111   0.04285   0.00000  Uiso   1.00
C152   C     0.80705   0.17750   0.45140   0.00000  Uiso   1.00
C153   C     0.89936   0.12172   0.02035   0.00000  Uiso   1.00
C154   C     0.75945   0.18638   0.47362   0.00000  Uiso   1.00
C155   C     0.98129   0.02205   0.21871   0.00000  Uiso   1.00
C156   C     0.68541   0.31128   0.28120   0.00000  Uiso   1.00
C157   C     0.98327   0.31218   0.21666   0.00000  Uiso   1.00
C158   C     0.68338   0.02114   0.28326   0.00000  Uiso   1.00
C159   C     0.66798   0.29052   0.24858   0.00000  Uiso   1.00
C160   C     0.99870   0.04281   0.25134   0.00000  Uiso   1.00
C161   C     0.84989   0.14065   0.27804   0.00000  Uiso   1.00
C162   C     0.81678   0.19270   0.22198   0.00000  Uiso   1.00
C163   C     0.80008   0.14087   0.27785   0.00000  Uiso   1.00
C164   C     0.86659   0.19246   0.22214   0.00000  Uiso   1.00
C165   C     0.97284   0.16510   0.33620   0.00000  Uiso   1.00
C166   C     0.69380   0.16776   0.16373   0.00000  Uiso   1.00
C167   C     0.95783   0.15780   0.38527   0.00000  Uiso   1.00
C168   C     0.70823   0.17088   0.11408   0.00000  Uiso   1.00
C169   C     0.96786   0.12458   0.45331   0.00000  Uiso   1.00
C170   C     0.69396   0.19177   0.04258   0.00000  Uiso   1.00
C171   C     0.98758   0.13686   0.40772   0.00000  Uiso   1.00
C172   C     0.67665   0.18644   0.08995   0.00000  Uiso   1.00
C173   C     0.91042   0.16781   0.40818   0.00000  Uiso   1.00
C174   C     0.75543   0.15985   0.09137   0.00000  Uiso   1.00
C175   C     0.88937   0.15463   0.45254   0.00000  Uiso   1.00
C176   C     0.77306   0.16360   0.04442   0.00000  Uiso   1.00
C177   C     0.91904   0.13363   0.47546   0.00000  Uiso   1.00
C178   C     0.74199   0.18058   0.02017   0.00000  Uiso   1.00
C179   C     0.83959   0.16197   0.47466   0.00000  Uiso   1.00
C180   C     0.82143   0.15234   0.02123   0.00000  Uiso   1.00
Cu181  Cu    0.71355   0.16667   0.25000   0.00000  Uiso   1.00
Cu182  Cu    0.95311   0.16666   0.25000   0.00000  Uiso   1.00
H183   H     0.92073   0.10525   0.03885   0.00000  Uiso   1.00
H184   H     0.73641   0.19817   0.45376   0.00000  Uiso   1.00
H185   H     0.77839   0.14952   0.11165   0.00000  Uiso   1.00
H186   H     0.89062   0.18629   0.39018   0.00000  Uiso   1.00
H187   H     0.83999   0.11989   0.07699   0.00000  Uiso   1.00
H188   H     0.81666   0.18206   0.41545   0.00000  Uiso   1.00
H189   H     0.77430   0.12031   0.29993   0.00000  Uiso   1.00
H190   H     0.89238   0.21300   0.20004   0.00000  Uiso   1.00
N191   N     0.78403   0.16668   0.24999   0.00000  Uiso   1.00
N192   N     0.88264   0.16666   0.25001   0.00000  Uiso   1.00
O193   O     0.70625   0.10655   0.25000   0.00000  Uiso   1.00
O194   O     0.96042   0.22678   0.25000   0.00000  Uiso   1.00
O195   O     0.96039   0.10654   0.25000   0.00000  Uiso   1.00
O196   O     0.70628   0.22679   0.24999   0.00000  Uiso   1.00
O197   O     0.68519   0.16668   0.31491   0.00000  Uiso   1.00
O198   O     0.98148   0.16666   0.18508   0.00000  Uiso   1.00
O199   O     0.93933   0.16667   0.31492   0.00000  Uiso   1.00
O200   O     0.72733   0.16667   0.18508   0.00000  Uiso   1.00
O201   O     0.96369   0.19765   0.11384   0.00000  Uiso   1.00
H202   H     0.94440   0.20654   0.09336   0.00000  Uiso   1.00
O203   O     0.70123   0.12780   0.38380   0.00000  Uiso   1.00
H204   H     0.71910   0.11481   0.40347   0.00000  Uiso   1.00
N205   N     0.99613   0.10162   0.47702   0.00000  Uiso   1.00
H206   H     0.67404   0.07418   0.45972   0.00000  Uiso   1.00
H207   H     0.69309   0.11920   0.47851   0.00000  Uiso   1.00
N208   N     0.99729   0.20973   0.01699   0.00000  Uiso   1.00
H209   H     0.96638   0.19127   0.02046   0.00000  Uiso   1.00
H210   H     0.98710   0.23927   0.02938   0.00000  Uiso   1.00
O211   O     0.96464   0.04522   0.18810   0.00000  Uiso   1.00
H212   H     0.95236   0.02690   0.16784   0.00000  Uiso   1.00
O213   O     0.70208   0.28813   0.31180   0.00000  Uiso   1.00
H214   H     0.71441   0.30644   0.33202   0.00000  Uiso   1.00
O215   O     0.96845   0.29236   0.18274   0.00000  Uiso   1.00
H216   H     0.98433   0.26519   0.17663   0.00000  Uiso   1.00
O217   O     0.69811   0.04096   0.31722   0.00000  Uiso   1.00
H218   H     0.68200   0.06802   0.32343   0.00000  Uiso   1.00
O219   O     0.86603   0.11441   0.30612   0.00000  Uiso   1.00
H220   H     0.83816   0.09799   0.32426   0.00000  Uiso   1.00
O221   O     0.80062   0.21900   0.19397   0.00000  Uiso   1.00
H222   H     0.82846   0.23550   0.17592   0.00000  Uiso   1.00
C223   C     0.33294   0.42082   0.25049   0.00000  Uiso   1.00
C224   C     0.00040   0.57918   0.24946   0.00000  Uiso   1.00
C225   C     0.18529   0.46445   0.04285   0.00000  Uiso   1.00
C226   C     0.14038   0.51084   0.45140   0.00000  Uiso   1.00
C227   C     0.23270   0.45505   0.02035   0.00000  Uiso   1.00
C228   C     0.09279   0.51971   0.47362   0.00000  Uiso   1.00
C229   C     0.31462   0.35539   0.21871   0.00000  Uiso   1.00
C230   C     0.01874   0.64461   0.28120   0.00000  Uiso   1.00
C231   C     0.31661   0.64551   0.21666   0.00000  Uiso   1.00
C232   C     0.01671   0.35448   0.28326   0.00000  Uiso   1.00
C233   C     0.00131   0.62385   0.24858   0.00000  Uiso   1.00
C234   C     0.33204   0.37614   0.25134   0.00000  Uiso   1.00
C235   C     0.18322   0.47399   0.27804   0.00000  Uiso   1.00
C236   C     0.15011   0.52604   0.22198   0.00000  Uiso   1.00
C237   C     0.13341   0.47421   0.27785   0.00000  Uiso   1.00
C238   C     0.19992   0.52579   0.22214   0.00000  Uiso   1.00
C239   C     0.30617   0.49843   0.33620   0.00000  Uiso   1.00
C240   C     0.02713   0.50109   0.16373   0.00000  Uiso   1.00
C241   C     0.29116   0.49113   0.38527   0.00000  Uiso   1.00
C242   C     0.04156   0.50422   0.11408   0.00000  Uiso   1.00
C243   C     0.30120   0.45792   0.45331   0.00000  Uiso   1.00
C244   C     0.02729   0.52511   0.04258   0.00000  Uiso   1.00
C245   C     0.32091   0.47019   0.40772   0.00000  Uiso   1.00
C246   C     0.00998   0.51977   0.08995   0.00000  Uiso   1.00
C247   C     0.24375   0.50115   0.40818   0.00000  Uiso   1.00
C248   C     0.08876   0.49319   0.09137   0.00000  Uiso   1.00
C249   C     0.22270   0.48797   0.45254   0.00000  Uiso   1.00
C250   C     0.10639   0.49693   0.04442   0.00000  Uiso   1.00
C251   C     0.25237   0.46696   0.47546   0.00000  Uiso   1.00
C252   C     0.07532   0.51392   0.02017   0.00000  Uiso   1.00
C253   C     0.17293   0.49530   0.47466   0.00000  Uiso   1.00
C254   C     0.15476   0.48567   0.02123   0.00000  Uiso   1.00
Cu255  Cu    0.04689   0.50001   0.25000   0.00000  Uiso   1.00
Cu256  Cu    0.28645   0.49999   0.25000   0.00000  Uiso   1.00
H257   H     0.25406   0.43859   0.03885   0.00000  Uiso   1.00
H258   H     0.06974   0.53150   0.45376   0.00000  Uiso   1.00
H259   H     0.11172   0.48285   0.11165   0.00000  Uiso   1.00
H260   H     0.22395   0.51963   0.39018   0.00000  Uiso   1.00
H261   H     0.17333   0.45323   0.07699   0.00000  Uiso   1.00
H262   H     0.14999   0.51539   0.41545   0.00000  Uiso   1.00
H263   H     0.10764   0.45364   0.29993   0.00000  Uiso   1.00
H264   H     0.22571   0.54634   0.20004   0.00000  Uiso   1.00
N265   N     0.11736   0.50001   0.24999   0.00000  Uiso   1.00
N266   N     0.21597   0.49999   0.25001   0.00000  Uiso   1.00
O267   O     0.03958   0.43989   0.25000   0.00000  Uiso   1.00
O268   O     0.29375   0.56011   0.25000   0.00000  Uiso   1.00
O269   O     0.29372   0.43988   0.25000   0.00000  Uiso   1.00
O270   O     0.03961   0.56012   0.24999   0.00000  Uiso   1.00
O271   O     0.01852   0.50001   0.31491   0.00000  Uiso   1.00
O272   O     0.31481   0.49999   0.18508   0.00000  Uiso   1.00
O273   O     0.27267   0.50000   0.31492   0.00000  Uiso   1.00
O274   O     0.06067   0.50000   0.18508   0.00000  Uiso   1.00
O275   O     0.29703   0.53098   0.11384   0.00000  Uiso   1.00
H276   H     0.27774   0.53988   0.09336   0.00000  Uiso   1.00
O277   O     0.03456   0.46114   0.38380   0.00000  Uiso   1.00
H278   H     0.05244   0.44814   0.40347   0.00000  Uiso   1.00
N279   N     0.32946   0.43495   0.47702   0.00000  Uiso   1.00
H280   H     0.00737   0.40751   0.45972   0.00000  Uiso   1.00
H281   H     0.02642   0.45253   0.47851   0.00000  Uiso   1.00
N282   N     0.33062   0.54306   0.01699   0.00000  Uiso   1.00
H283   H     0.29971   0.52461   0.02046   0.00000  Uiso   1.00
H284   H     0.32043   0.57260   0.02938   0.00000  Uiso   1.00
O285   O     0.29797   0.37855   0.18810   0.00000  Uiso   1.00
H286   H     0.28569   0.36024   0.16784   0.00000  Uiso   1.00
O287   O     0.03541   0.62146   0.31180   0.00000  Uiso   1.00
H288   H     0.04774   0.63978   0.33202   0.00000  Uiso   1.00
O289   O     0.30178   0.62570   0.18274   0.00000  Uiso   1.00
H290   H     0.31766   0.59852   0.17663   0.00000  Uiso   1.00
O291   O     0.03144   0.37429   0.31722   0.00000  Uiso   1.00
H292   H     0.01533   0.40136   0.32343   0.00000  Uiso   1.00
O293   O     0.19936   0.44774   0.30612   0.00000  Uiso   1.00
H294   H     0.17150   0.43132   0.32426   0.00000  Uiso   1.00
O295   O     0.13395   0.55233   0.19397   0.00000  Uiso   1.00
H296   H     0.16179   0.56883   0.17592   0.00000  Uiso   1.00
C297   C     0.66627   0.42082   0.25049   0.00000  Uiso   1.00
C298   C     0.33374   0.57918   0.24946   0.00000  Uiso   1.00
C299   C     0.51863   0.46445   0.04285   0.00000  Uiso   1.00
C300   C     0.47371   0.51084   0.45140   0.00000  Uiso   1.00
C301   C     0.56603   0.45505   0.02035   0.00000  Uiso   1.00
C302   C     0.42612   0.51971   0.47362   0.00000  Uiso   1.00
C303   C     0.64795   0.35539   0.21871   0.00000  Uiso   1.00
C304   C     0.35207   0.64461   0.28120   0.00000  Uiso   1.00
C305   C     0.64994   0.64551   0.21666   0.00000  Uiso   1.00
C306   C     0.35005   0.35448   0.28326   0.00000  Uiso   1.00
C307   C     0.33464   0.62385   0.24858   0.00000  Uiso   1.00
C308   C     0.66537   0.37614   0.25134   0.00000  Uiso   1.00
C309   C     0.51655   0.47399   0.27804   0.00000  Uiso   1.00
C310   C     0.48344   0.52604   0.22198   0.00000  Uiso   1.00
C311   C     0.46675   0.47421   0.27785   0.00000  Uiso   1.00
C312   C     0.53326   0.52579   0.22214   0.00000  Uiso   1.00
C313   C     0.63951   0.49843   0.33620   0.00000  Uiso   1.00
C314   C     0.36046   0.50109   0.16373   0.00000  Uiso   1.00
C315   C     0.62449   0.49113   0.38527   0.00000  Uiso   1.00
C316   C     0.37490   0.50422   0.11408   0.00000  Uiso   1.00
C317   C     0.63453   0.45792   0.45331   0.00000  Uiso   1.00
C318   C     0.36062   0.52511   0.04258   0.00000  Uiso   1.00
C319   C     0.65424   0.47019   0.40772   0.00000  Uiso   1.00
C320   C     0.34331   0.51977   0.08995   0.00000  Uiso   1.00
C321   C     0.57708   0.50115   0.40818   0.00000  Uiso   1.00
C322   C     0.42209   0.49319   0.09137   0.00000  Uiso   1.00
C323   C     0.55604   0.48797   0.45254   0.00000  Uiso   1.00
C324   C     0.43973   0.49693   0.04442   0.00000  Uiso   1.00
C325   C     0.58570   0.46696   0.47546   0.00000  Uiso   1.00
C326   C     0.40866   0.51392   0.02017   0.00000  Uiso   1.00
C327   C     0.50626   0.49530   0.47466   0.00000  Uiso   1.00
C328   C     0.48809   0.48567   0.02123   0.00000  Uiso   1.00
Cu329  Cu    0.38022   0.50001   0.25000   0.00000  Uiso   1.00
Cu330  Cu    0.61978   0.49999   0.25000   0.00000  Uiso   1.00
H331   H     0.58740   0.43859   0.03885   0.00000  Uiso   1.00
H332   H     0.40308   0.53150   0.45376   0.00000  Uiso   1.00
H333   H     0.44506   0.48285   0.11165   0.00000  Uiso   1.00
H334   H     0.55729   0.51963   0.39018   0.00000  Uiso   1.00
H335   H     0.50666   0.45323   0.07699   0.00000  Uiso   1.00
H336   H     0.48332   0.51539   0.41545   0.00000  Uiso   1.00
H337   H     0.44097   0.45364   0.29993   0.00000  Uiso   1.00
H338   H     0.55905   0.54634   0.20004   0.00000  Uiso   1.00
N339   N     0.45069   0.50001   0.24999   0.00000  Uiso   1.00
N340   N     0.54931   0.49999   0.25001   0.00000  Uiso   1.00
O341   O     0.37291   0.43989   0.25000   0.00000  Uiso   1.00
O342   O     0.62709   0.56011   0.25000   0.00000  Uiso   1.00
O343   O     0.62706   0.43988   0.25000   0.00000  Uiso   1.00
O344   O     0.37294   0.56012   0.24999   0.00000  Uiso   1.00
O345   O     0.35186   0.50001   0.31491   0.00000  Uiso   1.00
O346   O     0.64814   0.49999   0.18508   0.00000  Uiso   1.00
O347   O     0.60600   0.50000   0.31492   0.00000  Uiso   1.00
O348   O     0.39400   0.50000   0.18508   0.00000  Uiso   1.00
O349   O     0.63036   0.53098   0.11384   0.00000  Uiso   1.00
H350   H     0.61107   0.53988   0.09336   0.00000  Uiso   1.00
O351   O     0.36790   0.46114   0.38380   0.00000  Uiso   1.00
H352   H     0.38577   0.44814   0.40347   0.00000  Uiso   1.00
N353   N     0.66279   0.43495   0.47702   0.00000  Uiso   1.00
H354   H     0.34070   0.40751   0.45972   0.00000  Uiso   1.00
H355   H     0.35976   0.45253   0.47851   0.00000  Uiso   1.00
N356   N     0.66395   0.54306   0.01699   0.00000  Uiso   1.00
H357   H     0.63304   0.52461   0.02046   0.00000  Uiso   1.00
H358   H     0.65376   0.57260   0.02938   0.00000  Uiso   1.00
O359   O     0.63130   0.37855   0.18810   0.00000  Uiso   1.00
H360   H     0.61902   0.36024   0.16784   0.00000  Uiso   1.00
O361   O     0.36874   0.62146   0.31180   0.00000  Uiso   1.00
H362   H     0.38107   0.63978   0.33202   0.00000  Uiso   1.00
O363   O     0.63512   0.62570   0.18274   0.00000  Uiso   1.00
H364   H     0.65100   0.59852   0.17663   0.00000  Uiso   1.00
O365   O     0.36477   0.37429   0.31722   0.00000  Uiso   1.00
H366   H     0.34866   0.40136   0.32343   0.00000  Uiso   1.00
O367   O     0.53269   0.44774   0.30612   0.00000  Uiso   1.00
H368   H     0.50483   0.43132   0.32426   0.00000  Uiso   1.00
O369   O     0.46728   0.55233   0.19397   0.00000  Uiso   1.00
H370   H     0.49512   0.56883   0.17592   0.00000  Uiso   1.00
C371   C     0.99961   0.42082   0.25049   0.00000  Uiso   1.00
C372   C     0.66707   0.57918   0.24946   0.00000  Uiso   1.00
C373   C     0.85196   0.46445   0.04285   0.00000  Uiso   1.00
C374   C     0.80705   0.51084   0.45140   0.00000  Uiso   1.00
C375   C     0.89936   0.45505   0.02035   0.00000  Uiso   1.00
C376   C     0.75945   0.51971   0.47362   0.00000  Uiso   1.00
C377   C     0.98129   0.35539   0.21871   0.00000  Uiso   1.00
C378   C     0.68541   0.64461   0.28120   0.00000  Uiso   1.00
C379   C     0.98327   0.64551   0.21666   0.00000  Uiso   1.00
C380   C     0.68338   0.35448   0.28326   0.00000  Uiso   1.00
C381   C     0.66798   0.62385   0.24858   0.00000  Uiso   1.00
C382   C     0.99870   0.37614   0.25134   0.00000  Uiso   1.00
C383   C     0.84989   0.47399   0.27804   0.00000  Uiso   1.00
C384   C     0.81678   0.52604   0.22198   0.00000  Uiso   1.00
C385   C     0.80008   0.47421   0.27785   0.00000  Uiso   1.00
C386   C     0.86659   0.52579   0.22214   0.00000  Uiso   1.00
C387   C     0.97284   0.49843   0.33620   0.00000  Uiso   1.00
C388   C     0.69380   0.50109   0.16373   0.00000  Uiso   1.00
C389   C     0.95783   0.49113   0.38527   0.00000  Uiso   1.00
C390   C     0.70823   0.50422   0.11408   0.00000  Uiso   1.00
C391   C     0.96786   0.45792   0.45331   0.00000  Uiso   1.00
C392   C     0.69396   0.52511   0.04258   0.00000  Uiso   1.00
C393   C     0.98758   0.47019   0.40772   0.00000  Uiso   1.00
C394   C     0.67665   0.51977   0.08995   0.00000  Uiso   1.00
C395   C     0.91042   0.50115   0.40818   0.00000  Uiso   1.00
C396   C     0.75543   0.49319   0.09137   0.00000  Uiso   1.00
C397   C     0.88937   0.48797   0.45254   0.00000  Uiso   1.00
C398   C     0.77306   0.49693   0.04442   0.00000  Uiso   1.00
C399   C     0.91904   0.46696   0.47546   0.00000  Uiso   1.00
C400   C     0.74199   0.51392   0.02017   0.00000  Uiso   1.00
C401   C     0.83959   0.49530   0.47466   0.00000  Uiso   1.00
C402   C     0.82143   0.48567   0.02123   0.00000  Uiso   1.00
Cu403  Cu    0.71355   0.50001   0.25000   0.00000  Uiso   1.00
Cu404  Cu    0.95311   0.49999   0.25000   0.00000  Uiso   1.00
H405   H     0.92073   0.43859   0.03885   0.00000  Uiso   1.00
H406   H     0.73641   0.53150   0.45376   0.00000  Uiso   1.00
H407   H     0.77839   0.48285   0.11165   0.00000  Uiso   1.00
H408   H     0.89062   0.51963   0.39018   0.00000  Uiso   1.00
H409   H     0.83999   0.45323   0.07699   0.00000  Uiso   1.00
H410   H     0.81666   0.51539   0.41545   0.00000  Uiso   1.00
H411   H     0.77430   0.45364   0.29993   0.00000  Uiso   1.00
H412   H     0.89238   0.54634   0.20004   0.00000  Uiso   1.00
N413   N     0.78403   0.50001   0.24999   0.00000  Uiso   1.00
N414   N     0.88264   0.49999   0.25001   0.00000  Uiso   1.00
O415   O     0.70625   0.43989   0.25000   0.00000  Uiso   1.00
O416   O     0.96042   0.56011   0.25000   0.00000  Uiso   1.00
O417   O     0.96039   0.43988   0.25000   0.00000  Uiso   1.00
O418   O     0.70628   0.56012   0.24999   0.00000  Uiso   1.00
O419   O     0.68519   0.50001   0.31491   0.00000  Uiso   1.00
O420   O     0.98148   0.49999   0.18508   0.00000  Uiso   1.00
O421   O     0.93933   0.50000   0.31492   0.00000  Uiso   1.00
O422   O     0.72733   0.50000   0.18508   0.00000  Uiso   1.00
O423   O     0.96369   0.53098   0.11384   0.00000  Uiso   1.00
H424   H     0.94440   0.53988   0.09336   0.00000  Uiso   1.00
O425   O     0.70123   0.46114   0.38380   0.00000  Uiso   1.00
H426   H     0.71910   0.44814   0.40347   0.00000  Uiso   1.00
N427   N     0.99613   0.43495   0.47702   0.00000  Uiso   1.00
H428   H     0.67404   0.40751   0.45972   0.00000  Uiso   1.00
H429   H     0.69309   0.45253   0.47851   0.00000  Uiso   1.00
N430   N     0.99729   0.54306   0.01699   0.00000  Uiso   1.00
H431   H     0.96638   0.52461   0.02046   0.00000  Uiso   1.00
H432   H     0.98710   0.57260   0.02938   0.00000  Uiso   1.00
O433   O     0.96464   0.37855   0.18810   0.00000  Uiso   1.00
H434   H     0.95236   0.36024   0.16784   0.00000  Uiso   1.00
O435   O     0.70208   0.62146   0.31180   0.00000  Uiso   1.00
H436   H     0.71441   0.63978   0.33202   0.00000  Uiso   1.00
O437   O     0.96845   0.62570   0.18274   0.00000  Uiso   1.00
H438   H     0.98433   0.59852   0.17663   0.00000  Uiso   1.00
O439   O     0.69811   0.37429   0.31722   0.00000  Uiso   1.00
H440   H     0.68200   0.40136   0.32343   0.00000  Uiso   1.00
O441   O     0.86603   0.44774   0.30612   0.00000  Uiso   1.00
H442   H     0.83816   0.43132   0.32426   0.00000  Uiso   1.00
O443   O     0.80062   0.55233   0.19397   0.00000  Uiso   1.00
H444   H     0.82846   0.56883   0.17592   0.00000  Uiso   1.00
C445   C     0.33294   0.75415   0.25049   0.00000  Uiso   1.00
C446   C     0.00040   0.91252   0.24946   0.00000  Uiso   1.00
C447   C     0.18529   0.79778   0.04285   0.00000  Uiso   1.00
C448   C     0.14038   0.84417   0.45140   0.00000  Uiso   1.00
C449   C     0.23270   0.78838   0.02035   0.00000  Uiso   1.00
C450   C     0.09279   0.85305   0.47362   0.00000  Uiso   1.00
C451   C     0.31462   0.68872   0.21871   0.00000  Uiso   1.00
C452   C     0.01874   0.97795   0.28120   0.00000  Uiso   1.00
C453   C     0.31661   0.97885   0.21666   0.00000  Uiso   1.00
C454   C     0.01671   0.68781   0.28326   0.00000  Uiso   1.00
C455   C     0.00131   0.95718   0.24858   0.00000  Uiso   1.00
C456   C     0.33204   0.70948   0.25134   0.00000  Uiso   1.00
C457   C     0.18322   0.80732   0.27804   0.00000  Uiso   1.00
C458   C     0.15011   0.85937   0.22198   0.00000  Uiso   1.00
C459   C     0.13341   0.80754   0.27785   0.00000  Uiso   1.00
C460   C     0.19992   0.85913   0.22214   0.00000  Uiso   1.00
C461   C     0.30617   0.83177   0.33620   0.00000  Uiso   1.00
C462   C     0.02713   0.83443   0.16373   0.00000  Uiso   1.00
C463   C     0.29116   0.82446   0.38527   0.00000  Uiso   1.00
C464   C     0.04156   0.83755   0.11408   0.00000  Uiso   1.00
C465   C     0.30120   0.79125   0.45331   0.00000  Uiso   1.00
C466   C     0.02729   0.85844   0.04258   0.00000  Uiso   1.00
C467   C     0.32091   0.80352   0.40772   0.00000  Uiso   1.00
C468   C     0.00998   0.85311   0.08995   0.00000  Uiso   1.00
C469   C     0.24375   0.83448   0.40818   0.00000  Uiso   1.00
C470   C     0.08876   0.82652   0.09137   0.00000  Uiso   1.00
C471   C     0.22270   0.82130   0.45254   0.00000  Uiso   1.00
C472   C     0.10639   0.83026   0.04442   0.00000  Uiso   1.00
C473   C     0.25237   0.80030   0.47546   0.00000  Uiso   1.00
C474   C     0.07532   0.84725   0.02017   0.00000  Uiso   1.00
C475   C     0.17293   0.82864   0.47466   0.00000  Uiso   1.00
C476   C     0.15476   0.81900   0.02123   0.00000  Uiso   1.00
Cu477  Cu    0.04689   0.83334   0.25000   0.00000  Uiso   1.00
Cu478  Cu    0.28645   0.83333   0.25000   0.00000  Uiso   1.00
H479   H     0.25406   0.77192   0.03885   0.00000  Uiso   1.00
H480   H     0.06974   0.86484   0.45376   0.00000  Uiso   1.00
H481   H     0.11172   0.81618   0.11165   0.00000  Uiso   1.00
H482   H     0.22395   0.85296   0.39018   0.00000  Uiso   1.00
H483   H     0.17333   0.78656   0.07699   0.00000  Uiso   1.00
H484   H     0.14999   0.84873   0.41545   0.00000  Uiso   1.00
H485   H     0.10764   0.78698   0.29993   0.00000  Uiso   1.00
H486   H     0.22571   0.87967   0.20004   0.00000  Uiso   1.00
N487   N     0.11736   0.83334   0.24999   0.00000  Uiso   1.00
N488   N     0.21597   0.83332   0.25001   0.00000  Uiso   1.00
O489   O     0.03958   0.77322   0.25000   0.00000  Uiso   1.00
O490   O     0.29375   0.89345   0.25000   0.00000  Uiso   1.00
O491   O     0.29372   0.77321   0.25000   0.00000  Uiso   1.00
O492   O     0.03961   0.89346   0.24999   0.00000  Uiso   1.00
O493   O     0.01852   0.83334   0.31491   0.00000  Uiso   1.00
O494   O     0.31481   0.83332   0.18508   0.00000  Uiso   1.00
O495   O     0.27267   0.83333   0.31492   0.00000  Uiso   1.00
O496   O     0.06067   0.83333   0.18508   0.00000  Uiso   1.00
O497   O     0.29703   0.86431   0.11384   0.00000  Uiso   1.00
H498   H     0.27774   0.87321   0.09336   0.00000  Uiso   1.00
O499   O     0.03456   0.79447   0.38380   0.00000  Uiso   1.00
H500   H     0.05244   0.78148   0.40347   0.00000  Uiso   1.00
N501   N     0.32946   0.76828   0.47702   0.00000  Uiso   1.00
H502   H     0.00737   0.74084   0.45972   0.00000  Uiso   1.00
H503   H     0.02642   0.78586   0.47851   0.00000  Uiso   1.00
N504   N     0.33062   0.87640   0.01699   0.00000  Uiso   1.00
H505   H     0.29971   0.85794   0.02046   0.00000  Uiso   1.00
H506   H     0.32043   0.90593   0.02938   0.00000  Uiso   1.00
O507   O     0.29797   0.71188   0.18810   0.00000  Uiso   1.00
H508   H     0.28569   0.69357   0.16784   0.00000  Uiso   1.00
O509   O     0.03541   0.95479   0.31180   0.00000  Uiso   1.00
H510   H     0.04774   0.97311   0.33202   0.00000  Uiso   1.00
O511   O     0.30178   0.95903   0.18274   0.00000  Uiso   1.00
H512   H     0.31766   0.93185   0.17663   0.00000  Uiso   1.00
O513   O     0.03144   0.70762   0.31722   0.00000  Uiso   1.00
H514   H     0.01533   0.73469   0.32343   0.00000  Uiso   1.00
O515   O     0.19936   0.78107   0.30612   0.00000  Uiso   1.00
H516   H     0.17150   0.76466   0.32426   0.00000  Uiso   1.00
O517   O     0.13395   0.88566   0.19397   0.00000  Uiso   1.00
H518   H     0.16179   0.90217   0.17592   0.00000  Uiso   1.00
C519   C     0.66627   0.75415   0.25049   0.00000  Uiso   1.00
C520   C     0.33374   0.91252   0.24946   0.00000  Uiso   1.00
C521   C     0.51863   0.79778   0.04285   0.00000  Uiso   1.00
C522   C     0.47371   0.84417   0.45140   0.00000  Uiso   1.00
C523   C     0.56603   0.78838   0.02035   0.00000  Uiso   1.00
C524   C     0.42612   0.85305   0.47362   0.00000  Uiso   1.00
C525   C     0.64795   0.68872   0.21871   0.00000  Uiso   1.00
C526   C     0.35207   0.97795   0.28120   0.00000  Uiso   1.00
C527   C     0.64994   0.97885   0.21666   0.00000  Uiso   1.00
C528   C     0.35005   0.68781   0.28326   0.00000  Uiso   1.00
C529   C     0.33464   0.95718   0.24858   0.00000  Uiso   1.00
C530   C     0.66537   0.70948   0.25134   0.00000  Uiso   1.00
C531   C     0.51655   0.80732   0.27804   0.00000  Uiso   1.00
C532   C     0.48344   0.85937   0.22198   0.00000  Uiso   1.00
C533   C     0.46675   0.80754   0.27785   0.00000  Uiso   1.00
C534   C     0.53326   0.85913   0.22214   0.00000  Uiso   1.00
C535   C     0.63951   0.83177   0.33620   0.00000  Uiso   1.00
C536   C     0.36046   0.83443   0.16373   0.00000  Uiso   1.00
C537   C     0.62449   0.82446   0.38527   0.00000  Uiso   1.00
C538   C     0.37490   0.83755   0.11408   0.00000  Uiso   1.00
C539   C     0.63453   0.79125   0.45331   0.00000  Uiso   1.00
C540   C     0.36062   0.85844   0.04258   0.00000  Uiso   1.00
C541   C     0.65424   0.80352   0.40772   0.00000  Uiso   1.00
C542   C     0.34331   0.85311   0.08995   0.00000  Uiso   1.00
C543   C     0.57708   0.83448   0.40818   0.00000  Uiso   1.00
C544   C     0.42209   0.82652   0.09137   0.00000  Uiso   1.00
C545   C     0.55604   0.82130   0.45254   0.00000  Uiso   1.00
C546   C     0.43973   0.83026   0.04442   0.00000  Uiso   1.00
C547   C     0.58570   0.80030   0.47546   0.00000  Uiso   1.00
C548   C     0.40866   0.84725   0.02017   0.00000  Uiso   1.00
C549   C     0.50626   0.82864   0.47466   0.00000  Uiso   1.00
C550   C     0.48809   0.81900   0.02123   0.00000  Uiso   1.00
Cu551  Cu    0.38022   0.83334   0.25000   0.00000  Uiso   1.00
Cu552  Cu    0.61978   0.83333   0.25000   0.00000  Uiso   1.00
H553   H     0.58740   0.77192   0.03885   0.00000  Uiso   1.00
H554   H     0.40308   0.86484   0.45376   0.00000  Uiso   1.00
H555   H     0.44506   0.81618   0.11165   0.00000  Uiso   1.00
H556   H     0.55729   0.85296   0.39018   0.00000  Uiso   1.00
H557   H     0.50666   0.78656   0.07699   0.00000  Uiso   1.00
H558   H     0.48332   0.84873   0.41545   0.00000  Uiso   1.00
H559   H     0.44097   0.78698   0.29993   0.00000  Uiso   1.00
H560   H     0.55905   0.87967   0.20004   0.00000  Uiso   1.00
N561   N     0.45069   0.83334   0.24999   0.00000  Uiso   1.00
N562   N     0.54931   0.83332   0.25001   0.00000  Uiso   1.00
O563   O     0.37291   0.77322   0.25000   0.00000  Uiso   1.00
O564   O     0.62709   0.89345   0.25000   0.00000  Uiso   1.00
O565   O     0.62706   0.77321   0.25000   0.00000  Uiso   1.00
O566   O     0.37294   0.89346   0.24999   0.00000  Uiso   1.00
O567   O     0.35186   0.83334   0.31491   0.00000  Uiso   1.00
O568   O     0.64814   0.83332   0.18508   0.00000  Uiso   1.00
O569   O     0.60600   0.83333   0.31492   0.00000  Uiso   1.00
O570   O     0.39400   0.83333   0.18508   0.00000  Uiso   1.00
O571   O     0.63036   0.86431   0.11384   0.00000  Uiso   1.00
H572   H     0.61107   0.87321   0.09336   0.00000  Uiso   1.00
O573   O     0.36790   0.79447   0.38380   0.00000  Uiso   1.00
H574   H     0.38577   0.78148   0.40347   0.00000  Uiso   1.00
N575   N     0.66279   0.76828   0.47702   0.00000  Uiso   1.00
H576   H     0.34070   0.74084   0.45972   0.00000  Uiso   1.00
H577   H     0.35976   0.78586   0.47851   0.00000  Uiso   1.00
N578   N     0.66395   0.87640   0.01699   0.00000  Uiso   1.00
H579   H     0.63304   0.85794   0.02046   0.00000  Uiso   1.00
H580   H     0.65376   0.90593   0.02938   0.00000  Uiso   1.00
O581   O     0.63130   0.71188   0.18810   0.00000  Uiso   1.00
H582   H     0.61902   0.69357   0.16784   0.00000  Uiso   1.00
O583   O     0.36874   0.95479   0.31180   0.00000  Uiso   1.00
H584   H     0.38107   0.97311   0.33202   0.00000  Uiso   1.00
O585   O     0.63512   0.95903   0.18274   0.00000  Uiso   1.00
H586   H     0.65100   0.93185   0.17663   0.00000  Uiso   1.00
O587   O     0.36477   0.70762   0.31722   0.00000  Uiso   1.00
H588   H     0.34866   0.73469   0.32343   0.00000  Uiso   1.00
O589   O     0.53269   0.78107   0.30612   0.00000  Uiso   1.00
H590   H     0.50483   0.76466   0.32426   0.00000  Uiso   1.00
O591   O     0.46728   0.88566   0.19397   0.00000  Uiso   1.00
H592   H     0.49512   0.90217   0.17592   0.00000  Uiso   1.00
C593   C     0.99961   0.75415   0.25049   0.00000  Uiso   1.00
C594   C     0.66707   0.91252   0.24946   0.00000  Uiso   1.00
C595   C     0.85196   0.79778   0.04285   0.00000  Uiso   1.00
C596   C     0.80705   0.84417   0.45140   0.00000  Uiso   1.00
C597   C     0.89936   0.78838   0.02035   0.00000  Uiso   1.00
C598   C     0.75945   0.85305   0.47362   0.00000  Uiso   1.00
C599   C     0.98129   0.68872   0.21871   0.00000  Uiso   1.00
C600   C     0.68541   0.97795   0.28120   0.00000  Uiso   1.00
C601   C     0.98327   0.97885   0.21666   0.00000  Uiso   1.00
C602   C     0.68338   0.68781   0.28326   0.00000  Uiso   1.00
C603   C     0.66798   0.95718   0.24858   0.00000  Uiso   1.00
C604   C     0.99870   0.70948   0.25134   0.00000  Uiso   1.00
C605   C     0.84989   0.80732   0.27804   0.00000  Uiso   1.00
C606   C     0.81678   0.85937   0.22198   0.00000  Uiso   1.00
C607   C     0.80008   0.80754   0.27785   0.00000  Uiso   1.00
C608   C     0.86659   0.85913   0.22214   0.00000  Uiso   1.00
C609   C     0.97284   0.83177   0.33620   0.00000  Uiso   1.00
C610   C     0.69380   0.83443   0.16373   0.00000  Uiso   1.00
C611   C     0.95783   0.82446   0.38527   0.00000  Uiso   1.00
C612   C     0.70823   0.83755   0.11408   0.00000  Uiso   1.00
C613   C     0.96786   0.79125   0.45331   0.00000  Uiso   1.00
C614   C     0.69396   0.85844   0.04258   0.00000  Uiso   1.00
C615   C     0.98758   0.80352   0.40772   0.00000  Uiso   1.00
C616   C     0.67665   0.85311   0.08995   0.00000  Uiso   1.00
C617   C     0.91042   0.83448   0.40818   0.00000  Uiso   1.00
C618   C     0.75543   0.82652   0.09137   0.00000  Uiso   1.00
C619   C     0.88937   0.82130   0.45254   0.00000  Uiso   1.00
C620   C     0.77306   0.83026   0.04442   0.00000  Uiso   1.00
C621   C     0.91904   0.80030   0.47546   0.00000  Uiso   1.00
C622   C     0.74199   0.84725   0.02017   0.00000  Uiso   1.00
C623   C     0.83959   0.82864   0.47466   0.00000  Uiso   1.00
C624   C     0.82143   0.81900   0.02123   0.00000  Uiso   1.00
Cu625  Cu    0.71355   0.83334   0.25000   0.00000  Uiso   1.00
Cu626  Cu    0.95311   0.83333   0.25000   0.00000  Uiso   1.00
H627   H     0.92073   0.77192   0.03885   0.00000  Uiso   1.00
H628   H     0.73641   0.86484   0.45376   0.00000  Uiso   1.00
H629   H     0.77839   0.81618   0.11165   0.00000  Uiso   1.00
H630   H     0.89062   0.85296   0.39018   0.00000  Uiso   1.00
H631   H     0.83999   0.78656   0.07699   0.00000  Uiso   1.00
H632   H     0.81666   0.84873   0.41545   0.00000  Uiso   1.00
H633   H     0.77430   0.78698   0.29993   0.00000  Uiso   1.00
H634   H     0.89238   0.87967   0.20004   0.00000  Uiso   1.00
N635   N     0.78403   0.83334   0.24999   0.00000  Uiso   1.00
N636   N     0.88264   0.83332   0.25001   0.00000  Uiso   1.00
O637   O     0.70625   0.77322   0.25000   0.00000  Uiso   1.00
O638   O     0.96042   0.89345   0.25000   0.00000  Uiso   1.00
O639   O     0.96039   0.77321   0.25000   0.00000  Uiso   1.00
O640   O     0.70628   0.89346   0.24999   0.00000  Uiso   1.00
O641   O     0.68519   0.83334   0.31491   0.00000  Uiso   1.00
O642   O     0.98148   0.83332   0.18508   0.00000  Uiso   1.00
O643   O     0.93933   0.83333   0.31492   0.00000  Uiso   1.00
O644   O     0.72733   0.83333   0.18508   0.00000  Uiso   1.00
O645   O     0.96369   0.86431   0.11384   0.00000  Uiso   1.00
H646   H     0.94440   0.87321   0.09336   0.00000  Uiso   1.00
O647   O     0.70123   0.79447   0.38380   0.00000  Uiso   1.00
H648   H     0.71910   0.78148   0.40347   0.00000  Uiso   1.00
N649   N     0.99613   0.76828   0.47702   0.00000  Uiso   1.00
H650   H     0.67404   0.74084   0.45972   0.00000  Uiso   1.00
H651   H     0.69309   0.78586   0.47851   0.00000  Uiso   1.00
N652   N     0.99729   0.87640   0.01699   0.00000  Uiso   1.00
H653   H     0.96638   0.85794   0.02046   0.00000  Uiso   1.00
H654   H     0.98710   0.90593   0.02938   0.00000  Uiso   1.00
O655   O     0.96464   0.71188   0.18810   0.00000  Uiso   1.00
H656   H     0.95236   0.69357   0.16784   0.00000  Uiso   1.00
O657   O     0.70208   0.95479   0.31180   0.00000  Uiso   1.00
H658   H     0.71441   0.97311   0.33202   0.00000  Uiso   1.00
O659   O     0.96845   0.95903   0.18274   0.00000  Uiso   1.00
H660   H     0.98433   0.93185   0.17663   0.00000  Uiso   1.00
O661   O     0.69811   0.70762   0.31722   0.00000  Uiso   1.00
H662   H     0.68200   0.73469   0.32343   0.00000  Uiso   1.00
O663   O     0.86603   0.78107   0.30612   0.00000  Uiso   1.00
H664   H     0.83816   0.76466   0.32426   0.00000  Uiso   1.00
O665   O     0.80062   0.88566   0.19397   0.00000  Uiso   1.00
H666   H     0.82846   0.90217   0.17592   0.00000  Uiso   1.00
C667   C     0.33294   0.08748   0.75049   0.00000  Uiso   1.00
C668   C     0.00040   0.24585   0.74946   0.00000  Uiso   1.00
C669   C     0.18529   0.13111   0.54285   0.00000  Uiso   1.00
C670   C     0.14038   0.17750   0.95140   0.00000  Uiso   1.00
C671   C     0.23270   0.12172   0.52035   0.00000  Uiso   1.00
C672   C     0.09279   0.18638   0.97362   0.00000  Uiso   1.00
C673   C     0.31462   0.02205   0.71871   0.00000  Uiso   1.00
C674   C     0.01874   0.31128   0.78120   0.00000  Uiso   1.00
C675   C     0.31661   0.31218   0.71666   0.00000  Uiso   1.00
C676   C     0.01671   0.02114   0.78326   0.00000  Uiso   1.00
C677   C     0.00131   0.29052   0.74858   0.00000  Uiso   1.00
C678   C     0.33204   0.04281   0.75134   0.00000  Uiso   1.00
C679   C     0.18322   0.14065   0.77804   0.00000  Uiso   1.00
C680   C     0.15011   0.19270   0.72198   0.00000  Uiso   1.00
C681   C     0.13341   0.14087   0.77785   0.00000  Uiso   1.00
C682   C     0.19992   0.19246   0.72214   0.00000  Uiso   1.00
C683   C     0.30617   0.16510   0.83620   0.00000  Uiso   1.00
C684   C     0.02713   0.16776   0.66373   0.00000  Uiso   1.00
C685   C     0.29116   0.15780   0.88527   0.00000  Uiso   1.00
C686   C     0.04156   0.17088   0.61408   0.00000  Uiso   1.00
C687   C     0.30120   0.12458   0.95331   0.00000  Uiso   1.00
C688   C     0.02729   0.19177   0.54258   0.00000  Uiso   1.00
C689   C     0.32091   0.13686   0.90772   0.00000  Uiso   1.00
C690   C     0.00998   0.18644   0.58995   0.00000  Uiso   1.00
C691   C     0.24375   0.16781   0.90818   0.00000  Uiso   1.00
C692   C     0.08876   0.15985   0.59137   0.00000  Uiso   1.00
C693   C     0.22270   0.15463   0.95254   0.00000  Uiso   1.00
C694   C     0.10639   0.16360   0.54442   0.00000  Uiso   1.00
C695   C     0.25237   0.13363   0.97546   0.00000  Uiso   1.00
C696   C     0.07532   0.18058   0.52017   0.00000  Uiso   1.00
C697   C     0.17293   0.16197   0.97466   0.00000  Uiso   1.00
C698   C     0.15476   0.15234   0.52123   0.00000  Uiso   1.00
Cu699  Cu    0.04689   0.16667   0.75000   0.00000  Uiso   1.00
Cu700  Cu    0.28645   0.16666   0.75000   0.00000  Uiso   1.00
H701   H     0.25406   0.10525   0.53885   0.00000  Uiso   1.00
H702   H     0.06974   0.19817   0.95376   0.00000  Uiso   1.00
H703   H     0.11172   0.14952   0.61165   0.00000  Uiso   1.00
H704   H     0.22395   0.18629   0.89018   0.00000  Uiso   1.00
H705   H     0.17333   0.11989   0.57699   0.00000  Uiso   1.00
H706   H     0.14999   0.18206   0.91545   0.00000  Uiso   1.00
H707   H     0.10764   0.12031   0.79993   0.00000  Uiso   1.00
H708   H     0.22571   0.21300   0.70004   0.00000  Uiso   1.00
N709   N     0.11736   0.16668   0.74999   0.00000  Uiso   1.00
N710   N     0.21597   0.16666   0.75001   0.00000  Uiso   1.00
O711   O     0.03958   0.10655   0.75000   0.00000  Uiso   1.00
O712   O     0.29375   0.22678   0.75000   0.00000  Uiso   1.00
O713   O     0.29372   0.10654   0.75000   0.00000  Uiso   1.00
O714   O     0.03961   0.22679   0.74999   0.00000  Uiso   1.00
O715   O     0.01852   0.16668   0.81491   0.00000  Uiso   1.00
O716   O     0.31481   0.16666   0.68508   0.00000  Uiso   1.00
O717   O     0.27267   0.16667   0.81492   0.00000  Uiso   1.00
O718   O     0.06067   0.16667   0.68508   0.00000  Uiso   1.00
O719   O     0.29703   0.19765   0.61384   0.00000  Uiso   1.00
H720   H     0.27774   0.20654   0.59336   0.00000  Uiso   1.00
O721   O     0.03456   0.12780   0.88380   0.00000  Uiso   1.00
H722   H     0.05244   0.11481   0.90347   0.00000  Uiso   1.00
N723   N     0.32946   0.10162   0.97702   0.00000  Uiso   1.00
H724   H     0.00737   0.07418   0.95972   0.00000  Uiso   1.00
H725   H     0.02642   0.11920   0.97851   0.00000  Uiso   1.00
N726   N     0.33062   0.20973   0.51699   0.00000  Uiso   1.00
H727   H     0.29971   0.19127   0.52046   0.00000  Uiso   1.00
H728   H     0.32043   0.23927   0.52938   0.00000  Uiso   1.00
O729   O     0.29797   0.04522   0.68810   0.00000  Uiso   1.00
H730   H     0.28569   0.02690   0.66784   0.00000  Uiso   1.00
O731   O     0.03541   0.28813   0.81180   0.00000  Uiso   1.00
H732   H     0.04774   0.30644   0.83202   0.00000  Uiso   1.00
O733   O     0.30178   0.29236   0.68274   0.00000  Uiso   1.00
H734   H     0.31766   0.26519   0.67663   0.00000  Uiso   1.00
O735   O     0.03144   0.04096   0.81722   0.00000  Uiso   1.00
H736   H     0.01533   0.06802   0.82343   0.00000  Uiso   1.00
O737   O     0.19936   0.11441   0.80612   0.00000  Uiso   1.00
H738   H     0.17150   0.09799   0.82426   0.00000  Uiso   1.00
O739   O     0.13395   0.21900   0.69397   0.00000  Uiso   1.00
H740   H     0.16179   0.23550   0.67592   0.00000  Uiso   1.00
C741   C     0.66627   0.08748   0.75049   0.00000  Uiso   1.00
C742   C     0.33374   0.24585   0.74946   0.00000  Uiso   1.00
C743   C     0.51863   0.13111   0.54285   0.00000  Uiso   1.00
C744   C     0.47371   0.17750   0.95140   0.00000  Uiso   1.00
C745   C     0.56603   0.12172   0.52035   0.00000  Uiso   1.00
C746   C     0.42612   0.18638   0.97362   0.00000  Uiso   1.00
C747   C     0.64795   0.02205   0.71871   0.00000  Uiso   1.00
C748   C     0.35207   0.31128   0.78120   0.00000  Uiso   1.00
C749   C     0.64994   0.31218   0.71666   0.00000  Uiso   1.00
C750   C     0.35005   0.02114   0.78326   0.00000  Uiso   1.00
C751   C     0.33464   0.29052   0.74858   0.00000  Uiso   1.00
C752   C     0.66537   0.04281   0.75134   0.00000  Uiso   1.00
C753   C     0.51655   0.14065   0.77804   0.00000  Uiso   1.00
C754   C     0.48344   0.19270   0.72198   0.00000  Uiso   1.00
C755   C     0.46675   0.14087   0.77785   0.00000  Uiso   1.00
C756   C     0.53326   0.19246   0.72214   0.00000  Uiso   1.00
C757   C     0.63951   0.16510   0.83620   0.00000  Uiso   1.00
C758   C     0.36046   0.16776   0.66373   0.00000  Uiso   1.00
C759   C     0.62449   0.15780   0.88527   0.00000  Uiso   1.00
C760   C     0.37490   0.17088   0.61408   0.00000  Uiso   1.00
C761   C     0.63453   0.12458   0.95331   0.00000  Uiso   1.00
C762   C     0.36062   0.19177   0.54258   0.00000  Uiso   1.00
C763   C     0.65424   0.13686   0.90772   0.00000  Uiso   1.00
C764   C     0.34331   0.18644   0.58995   0.00000  Uiso   1.00
C765   C     0.57708   0.16781   0.90818   0.00000  Uiso   1.00
C766   C     0.42209   0.15985   0.59137   0.00000  Uiso   1.00
C767   C     0.55604   0.15463   0.95254   0.00000  Uiso   1.00
C768   C     0.43973   0.16360   0.54442   0.00000  Uiso   1.00
C769   C     0.58570   0.13363   0.97546   0.00000  Uiso   1.00
C770   C     0.40866   0.18058   0.52017   0.00000  Uiso   1.00
C771   C     0.50626   0.16197   0.97466   0.00000  Uiso   1.00
C772   C     0.48809   0.15234   0.52123   0.00000  Uiso   1.00
Cu773  Cu    0.38022   0.16667   0.75000   0.00000  Uiso   1.00
Cu774  Cu    0.61978   0.16666   0.75000   0.00000  Uiso   1.00
H775   H     0.58740   0.10525   0.53885   0.00000  Uiso   1.00
H776   H     0.40308   0.19817   0.95376   0.00000  Uiso   1.00
H777   H     0.44506   0.14952   0.61165   0.00000  Uiso   1.00
H778   H     0.55729   0.18629   0.89018   0.00000  Uiso   1.00
H779   H     0.50666   0.11989   0.57699   0.00000  Uiso   1.00
H780   H     0.48332   0.18206   0.91545   0.00000  Uiso   1.00
H781   H     0.44097   0.12031   0.79993   0.00000  Uiso   1.00
H782   H     0.55905   0.21300   0.70004   0.00000  Uiso   1.00
N783   N     0.45069   0.16668   0.74999   0.00000  Uiso   1.00
N784   N     0.54931   0.16666   0.75001   0.00000  Uiso   1.00
O785   O     0.37291   0.10655   0.75000   0.00000  Uiso   1.00
O786   O     0.62709   0.22678   0.75000   0.00000  Uiso   1.00
O787   O     0.62706   0.10654   0.75000   0.00000  Uiso   1.00
O788   O     0.37294   0.22679   0.74999   0.00000  Uiso   1.00
O789   O     0.35186   0.16668   0.81491   0.00000  Uiso   1.00
O790   O     0.64814   0.16666   0.68508   0.00000  Uiso   1.00
O791   O     0.60600   0.16667   0.81492   0.00000  Uiso   1.00
O792   O     0.39400   0.16667   0.68508   0.00000  Uiso   1.00
O793   O     0.63036   0.19765   0.61384   0.00000  Uiso   1.00
H794   H     0.61107   0.20654   0.59336   0.00000  Uiso   1.00
O795   O     0.36790   0.12780   0.88380   0.00000  Uiso   1.00
H796   H     0.38577   0.11481   0.90347   0.00000  Uiso   1.00
N797   N     0.66279   0.10162   0.97702   0.00000  Uiso   1.00
H798   H     0.34070   0.07418   0.95972   0.00000  Uiso   1.00
H799   H     0.35976   0.11920   0.97851   0.00000  Uiso   1.00
N800   N     0.66395   0.20973   0.51699   0.00000  Uiso   1.00
H801   H     0.63304   0.19127   0.52046   0.00000  Uiso   1.00
H802   H     0.65376   0.23927   0.52938   0.00000  Uiso   1.00
O803   O     0.63130   0.04522   0.68810   0.00000  Uiso   1.00
H804   H     0.61902   0.02690   0.66784   0.00000  Uiso   1.00
O805   O     0.36874   0.28813   0.81180   0.00000  Uiso   1.00
H806   H     0.38107   0.30644   0.83202   0.00000  Uiso   1.00
O807   O     0.63512   0.29236   0.68274   0.00000  Uiso   1.00
H808   H     0.65100   0.26519   0.67663   0.00000  Uiso   1.00
O809   O     0.36477   0.04096   0.81722   0.00000  Uiso   1.00
H810   H     0.34866   0.06802   0.82343   0.00000  Uiso   1.00
O811   O     0.53269   0.11441   0.80612   0.00000  Uiso   1.00
H812   H     0.50483   0.09799   0.82426   0.00000  Uiso   1.00
O813   O     0.46728   0.21900   0.69397   0.00000  Uiso   1.00
H814   H     0.49512   0.23550   0.67592   0.00000  Uiso   1.00
C815   C     0.99961   0.08748   0.75049   0.00000  Uiso   1.00
C816   C     0.66707   0.24585   0.74946   0.00000  Uiso   1.00
C817   C     0.85196   0.13111   0.54285   0.00000  Uiso   1.00
C818   C     0.80705   0.17750   0.95140   0.00000  Uiso   1.00
C819   C     0.89936   0.12172   0.52035   0.00000  Uiso   1.00
C820   C     0.75945   0.18638   0.97362   0.00000  Uiso   1.00
C821   C     0.98129   0.02205   0.71871   0.00000  Uiso   1.00
C822   C     0.68541   0.31128   0.78120   0.00000  Uiso   1.00
C823   C     0.98327   0.31218   0.71666   0.00000  Uiso   1.00
C824   C     0.68338   0.02114   0.78326   0.00000  Uiso   1.00
C825   C     0.66798   0.29052   0.74858   0.00000  Uiso   1.00
C826   C     0.99870   0.04281   0.75134   0.00000  Uiso   1.00
C827   C     0.84989   0.14065   0.77804   0.00000  Uiso   1.00
C828   C     0.81678   0.19270   0.72198   0.00000  Uiso   1.00
C829   C     0.80008   0.14087   0.77785   0.00000  Uiso   1.00
C830   C     0.86659   0.19246   0.72214   0.00000  Uiso   1.00
C831   C     0.97284   0.16510   0.83620   0.00000  Uiso   1.00
C832   C     0.69380   0.16776   0.66373   0.00000  Uiso   1.00
C833   C     0.95783   0.15780   0.88527   0.00000  Uiso   1.00
C834   C     0.70823   0.17088   0.61408   0.00000  Uiso   1.00
C835   C     0.96786   0.12458   0.95331   0.00000  Uiso   1.00
C836   C     0.69396   0.19177   0.54258   0.00000  Uiso   1.00
C837   C     0.98758   0.13686   0.90772   0.00000  Uiso   1.00
C838   C     0.67665   0.18644   0.58995   0.00000  Uiso   1.00
C839   C     0.91042   0.16781   0.90818   0.00000  Uiso   1.00
C840   C     0.75543   0.15985   0.59137   0.00000  Uiso   1.00
C841   C     0.88937   0.15463   0.95254   0.00000  Uiso   1.00
C842   C     0.77306   0.16360   0.54442   0.00000  Uiso   1.00
C843   C     0.91904   0.13363   0.97546   0.00000  Uiso   1.00
C844   C     0.74199   0.18058   0.52017   0.00000  Uiso   1.00
C845   C     0.83959   0.16197   0.97466   0.00000  Uiso   1.00
C846   C     0.82143   0.15234   0.52123   0.00000  Uiso   1.00
Cu847  Cu    0.71355   0.16667   0.75000   0.00000  Uiso   1.00
Cu848  Cu    0.95311   0.16666   0.75000   0.00000  Uiso   1.00
H849   H     0.92073   0.10525   0.53885   0.00000  Uiso   1.00
H850   H     0.73641   0.19817   0.95376   0.00000  Uiso   1.00
H851   H     0.77839   0.14952   0.61165   0.00000  Uiso   1.00
H852   H     0.89062   0.18629   0.89018   0.00000  Uiso   1.00
H853   H     0.83999   0.11989   0.57699   0.00000  Uiso   1.00
H854   H     0.81666   0.18206   0.91545   0.00000  Uiso   1.00
H855   H     0.77430   0.12031   0.79993   0.00000  Uiso   1.00
H856   H     0.89238   0.21300   0.70004   0.00000  Uiso   1.00
N857   N     0.78403   0.16668   0.74999   0.00000  Uiso   1.00
N858   N     0.88264   0.16666   0.75001   0.00000  Uiso   1.00
O859   O     0.70625   0.10655   0.75000   0.00000  Uiso   1.00
O860   O     0.96042   0.22678   0.75000   0.00000  Uiso   1.00
O861   O     0.96039   0.10654   0.75000   0.00000  Uiso   1.00
O862   O     0.70628   0.22679   0.74999   0.00000  Uiso   1.00
O863   O     0.68519   0.16668   0.81491   0.00000  Uiso   1.00
O864   O     0.98148   0.16666   0.68508   0.00000  Uiso   1.00
O865   O     0.93933   0.16667   0.81492   0.00000  Uiso   1.00
O866   O     0.72733   0.16667   0.68508   0.00000  Uiso   1.00
O867   O     0.96369   0.19765   0.61384   0.00000  Uiso   1.00
H868   H     0.94440   0.20654   0.59336   0.00000  Uiso   1.00
O869   O     0.70123   0.12780   0.88380   0.00000  Uiso   1.00
H870   H     0.71910   0.11481   0.90347   0.00000  Uiso   1.00
N871   N     0.99613   0.10162   0.97702   0.00000  Uiso   1.00
H872   H     0.67404   0.07418   0.95972   0.00000  Uiso   1.00
H873   H     0.69309   0.11920   0.97851   0.00000  Uiso   1.00
N874   N     0.99729   0.20973   0.51699   0.00000  Uiso   1.00
H875   H     0.96638   0.19127   0.52046   0.00000  Uiso   1.00
H876   H     0.98710   0.23927   0.52938   0.00000  Uiso   1.00
O877   O     0.96464   0.04522   0.68810   0.00000  Uiso   1.00
H878   H     0.95236   0.02690   0.66784   0.00000  Uiso   1.00
O879   O     0.70208   0.28813   0.81180   0.00000  Uiso   1.00
H880   H     0.71441   0.30644   0.83202   0.00000  Uiso   1.00
O881   O     0.96845   0.29236   0.68274   0.00000  Uiso   1.00
H882   H     0.98433   0.26519   0.67663   0.00000  Uiso   1.00
O883   O     0.69811   0.04096   0.81722   0.00000  Uiso   1.00
H884   H     0.68200   0.06802   0.82343   0.00000  Uiso   1.00
O885   O     0.86603   0.11441   0.80612   0.00000  Uiso   1.00
H886   H     0.83816   0.09799   0.82426   0.00000  Uiso   1.00
O887   O     0.80062   0.21900   0.69397   0.00000  Uiso   1.00
H888   H     0.82846   0.23550   0.67592   0.00000  Uiso   1.00
C889   C     0.33294   0.42082   0.75049   0.00000  Uiso   1.00
C890   C     0.00040   0.57918   0.74946   0.00000  Uiso   1.00
C891   C     0.18529   0.46445   0.54285   0.00000  Uiso   1.00
C892   C     0.14038   0.51084   0.95140   0.00000  Uiso   1.00
C893   C     0.23270   0.45505   0.52035   0.00000  Uiso   1.00
C894   C     0.09279   0.51971   0.97362   0.00000  Uiso   1.00
C895   C     0.31462   0.35539   0.71871   0.00000  Uiso   1.00
C896   C     0.01874   0.64461   0.78120   0.00000  Uiso   1.00
C897   C     0.31661   0.64551   0.71666   0.00000  Uiso   1.00
C898   C     0.01671   0.35448   0.78326   0.00000  Uiso   1.00
C899   C     0.00131   0.62385   0.74858   0.00000  Uiso   1.00
C900   C     0.33204   0.37614   0.75134   0.00000  Uiso   1.00
C901   C     0.18322   0.47399   0.77804   0.00000  Uiso   1.00
C902   C     0.15011   0.52604   0.72198   0.00000  Uiso   1.00
C903   C     0.13341   0.47421   0.77785   0.00000  Uiso   1.00
C904   C     0.19992   0.52579   0.72214   0.00000  Uiso   1.00
C905   C     0.30617   0.49843   0.83620   0.00000  Uiso   1.00
C906   C     0.02713   0.50109   0.66373   0.00000  Uiso   1.00
C907   C     0.29116   0.49113   0.88527   0.00000  Uiso   1.00
C908   C     0.04156   0.50422   0.61408   0.00000  Uiso   1.00
C909   C     0.30120   0.45792   0.95331   0.00000  Uiso   1.00
C910   C     0.02729   0.52511   0.54258   0.00000  Uiso   1.00
C911   C     0.32091   0.47019   0.90772   0.00000  Uiso   1.00
C912   C     0.00998   0.51977   0.58995   0.00000  Uiso   1.00
C913   C     0.24375   0.50115   0.90818   0.00000  Uiso   1.00
C914   C     0.08876   0.49319   0.59137   0.00000  Uiso   1.00
C915   C     0.22270   0.48797   0.95254   0.00000  Uiso   1.00
C916   C     0.10639   0.49693   0.54442   0.00000  Uiso   1.00
C917   C     0.25237   0.46696   0.97546   0.00000  Uiso   1.00
C918   C     0.07532   0.51392   0.52017   0.00000  Uiso   1.00
C919   C     0.17293   0.49530   0.97466   0.00000  Uiso   1.00
C920   C     0.15476   0.48567   0.52123   0.00000  Uiso   1.00
Cu921  Cu    0.04689   0.50001   0.75000   0.00000  Uiso   1.00
Cu922  Cu    0.28645   0.49999   0.75000   0.00000  Uiso   1.00
H923   H     0.25406   0.43859   0.53885   0.00000  Uiso   1.00
H924   H     0.06974   0.53150   0.95376   0.00000  Uiso   1.00
H925   H     0.11172   0.48285   0.61165   0.00000  Uiso   1.00
H926   H     0.22395   0.51963   0.89018   0.00000  Uiso   1.00
H927   H     0.17333   0.45323   0.57699   0.00000  Uiso   1.00
H928   H     0.14999   0.51539   0.91545   0.00000  Uiso   1.00
H929   H     0.10764   0.45364   0.79993   0.00000  Uiso   1.00
H930   H     0.22571   0.54634   0.70004   0.00000  Uiso   1.00
N931   N     0.11736   0.50001   0.74999   0.00000  Uiso   1.00
N932   N     0.21597   0.49999   0.75001   0.00000  Uiso   1.00
O933   O     0.03958   0.43989   0.75000   0.00000  Uiso   1.00
O934   O     0.29375   0.56011   0.75000   0.00000  Uiso   1.00
O935   O     0.29372   0.43988   0.75000   0.00000  Uiso   1.00
O936   O     0.03961   0.56012   0.74999   0.00000  Uiso   1.00
O937   O     0.01852   0.50001   0.81491   0.00000  Uiso   1.00
O938   O     0.31481   0.49999   0.68508   0.00000  Uiso   1.00
O939   O     0.27267   0.50000   0.81492   0.00000  Uiso   1.00
O940   O     0.06067   0.50000   0.68508   0.00000  Uiso   1.00
O941   O     0.29703   0.53098   0.61384   0.00000  Uiso   1.00
H942   H     0.27774   0.53988   0.59336   0.00000  Uiso   1.00
O943   O     0.03456   0.46114   0.88380   0.00000  Uiso   1.00
H944   H     0.05244   0.44814   0.90347   0.00000  Uiso   1.00
N945   N     0.32946   0.43495   0.97702   0.00000  Uiso   1.00
H946   H     0.00737   0.40751   0.95972   0.00000  Uiso   1.00
H947   H     0.02642   0.45253   0.97851   0.00000  Uiso   1.00
N948   N     0.33062   0.54306   0.51699   0.00000  Uiso   1.00
H949   H     0.29971   0.52461   0.52046   0.00000  Uiso   1.00
H950   H     0.32043   0.57260   0.52938   0.00000  Uiso   1.00
O951   O     0.29797   0.37855   0.68810   0.00000  Uiso   1.00
H952   H     0.28569   0.36024   0.66784   0.00000  Uiso   1.00
O953   O     0.03541   0.62146   0.81180   0.00000  Uiso   1.00
H954   H     0.04774   0.63978   0.83202   0.00000  Uiso   1.00
O955   O     0.30178   0.62570   0.68274   0.00000  Uiso   1.00
H956   H     0.31766   0.59852   0.67663   0.00000  Uiso   1.00
O957   O     0.03144   0.37429   0.81722   0.00000  Uiso   1.00
H958   H     0.01533   0.40136   0.82343   0.00000  Uiso   1.00
O959   O     0.19936   0.44774   0.80612   0.00000  Uiso   1.00
H960   H     0.17150   0.43132   0.82426   0.00000  Uiso   1.00
O961   O     0.13395   0.55233   0.69397   0.00000  Uiso   1.00
H962   H     0.16179   0.56883   0.67592   0.00000  Uiso   1.00
C963   C     0.66627   0.42082   0.75049   0.00000  Uiso   1.00
C964   C     0.33374   0.57918   0.74946   0.00000  Uiso   1.00
C965   C     0.51863   0.46445   0.54285   0.00000  Uiso   1.00
C966   C     0.47371   0.51084   0.95140   0.00000  Uiso   1.00
C967   C     0.56603   0.45505   0.52035   0.00000  Uiso   1.00
C968   C     0.42612   0.51971   0.97362   0.00000  Uiso   1.00
C969   C     0.64795   0.35539   0.71871   0.00000  Uiso   1.00
C970   C     0.35207   0.64461   0.78120   0.00000  Uiso   1.00
C971   C     0.64994   0.64551   0.71666   0.00000  Uiso   1.00
C972   C     0.35005   0.35448   0.78326   0.00000  Uiso   1.00
C973   C     0.33464   0.62385   0.74858   0.00000  Uiso   1.00
C974   C     0.66537   0.37614   0.75134   0.00000  Uiso   1.00
C975   C     0.51655   0.47399   0.77804   0.00000  Uiso   1.00
C976   C     0.48344   0.52604   0.72198   0.00000  Uiso   1.00
C977   C     0.46675   0.47421   0.77785   0.00000  Uiso   1.00
C978   C     0.53326   0.52579   0.72214   0.00000  Uiso   1.00
C979   C     0.63951   0.49843   0.83620   0.00000  Uiso   1.00
C980   C     0.36046   0.50109   0.66373   0.00000  Uiso   1.00
C981   C     0.62449   0.49113   0.88527   0.00000  Uiso   1.00
C982   C     0.37490   0.50422   0.61408   0.00000  Uiso   1.00
C983   C     0.63453   0.45792   0.95331   0.00000  Uiso   1.00
C984   C     0.36062   0.52511   0.54258   0.00000  Uiso   1.00
C985   C     0.65424   0.47019   0.90772   0.00000  Uiso   1.00
C986   C     0.34331   0.51977   0.58995   0.00000  Uiso   1.00
C987   C     0.57708   0.50115   0.90818   0.00000  Uiso   1.00
C988   C     0.42209   0.49319   0.59137   0.00000  Uiso   1.00
C989   C     0.55604   0.48797   0.95254   0.00000  Uiso   1.00
C990   C     0.43973   0.49693   0.54442   0.00000  Uiso   1.00
C991   C     0.58570   0.46696   0.97546   0.00000  Uiso   1.00
C992   C     0.40866   0.51392   0.52017   0.00000  Uiso   1.00
C993   C     0.50626   0.49530   0.97466   0.00000  Uiso   1.00
C994   C     0.48809   0.48567   0.52123   0.00000  Uiso   1.00
Cu995  Cu    0.38022   0.50001   0.75000   0.00000  Uiso   1.00
Cu996  Cu    0.61978   0.49999   0.75000   0.00000  Uiso   1.00
H997   H     0.58740   0.43859   0.53885   0.00000  Uiso   1.00
H998   H     0.40308   0.53150   0.95376   0.00000  Uiso   1.00
H999   H     0.44506   0.48285   0.61165   0.00000  Uiso   1.00
H1000  H     0.55729   0.51963   0.89018   0.00000  Uiso   1.00
H1001  H     0.50666   0.45323   0.57699   0.00000  Uiso   1.00
H1002  H     0.48332   0.51539   0.91545   0.00000  Uiso   1.00
H1003  H     0.44097   0.45364   0.79993   0.00000  Uiso   1.00
H1004  H     0.55905   0.54634   0.70004   0.00000  Uiso   1.00
N1005  N     0.45069   0.50001   0.74999   0.00000  Uiso   1.00
N1006  N     0.54931   0.49999   0.75001   0.00000  Uiso   1.00
O1007  O     0.37291   0.43989   0.75000   0.00000  Uiso   1.00
O1008  O     0.62709   0.56011   0.75000   0.00000  Uiso   1.00
O1009  O     0.62706   0.43988   0.75000   0.00000  Uiso   1.00
O1010  O     0.37294   0.56012   0.74999   0.00000  Uiso   1.00
O1011  O     0.35186   0.50001   0.81491   0.00000  Uiso   1.00
O1012  O     0.64814   0.49999   0.68508   0.00000  Uiso   1.00
O1013  O     0.60600   0.50000   0.81492   0.00000  Uiso   1.00
O1014  O     0.39400   0.50000   0.68508   0.00000  Uiso   1.00
O1015  O     0.63036   0.53098   0.61384   0.00000  Uiso   1.00
H1016  H     0.61107   0.53988   0.59336   0.00000  Uiso   1.00
O1017  O     0.36790   0.46114   0.88380   0.00000  Uiso   1.00
H1018  H     0.38577   0.44814   0.90347   0.00000  Uiso   1.00
N1019  N     0.66279   0.43495   0.97702   0.00000  Uiso   1.00
H1020  H     0.34070   0.40751   0.95972   0.00000  Uiso   1.00
H1021  H     0.35976   0.45253   0.97851   0.00000  Uiso   1.00
N1022  N     0.66395   0.54306   0.51699   0.00000  Uiso   1.00
H1023  H     0.63304   0.52461   0.52046   0.00000  Uiso   1.00
H1024  H     0.65376   0.57260   0.52938   0.00000  Uiso   1.00
O1025  O     0.63130   0.37855   0.68810   0.00000  Uiso   1.00
H1026  H     0.61902   0.36024   0.66784   0.00000  Uiso   1.00
O1027  O     0.36874   0.62146   0.81180   0.00000  Uiso   1.00
H1028  H     0.38107   0.63978   0.83202   0.00000  Uiso   1.00
O1029  O     0.63512   0.62570   0.68274   0.00000  Uiso   1.00
H1030  H     0.65100   0.59852   0.67663   0.00000  Uiso   1.00
O1031  O     0.36477   0.37429   0.81722   0.00000  Uiso   1.00
H1032  H     0.34866   0.40136   0.82343   0.00000  Uiso   1.00
O1033  O     0.53269   0.44774   0.80612   0.00000  Uiso   1.00
H1034  H     0.50483   0.43132   0.82426   0.00000  Uiso   1.00
O1035  O     0.46728   0.55233   0.69397   0.00000  Uiso   1.00
H1036  H     0.49512   0.56883   0.67592   0.00000  Uiso   1.00
C1037  C     0.99961   0.42082   0.75049   0.00000  Uiso   1.00
C1038  C     0.66707   0.57918   0.74946   0.00000  Uiso   1.00
C1039  C     0.85196   0.46445   0.54285   0.00000  Uiso   1.00
C1040  C     0.80705   0.51084   0.95140   0.00000  Uiso   1.00
C1041  C     0.89936   0.45505   0.52035   0.00000  Uiso   1.00
C1042  C     0.75945   0.51971   0.97362   0.00000  Uiso   1.00
C1043  C     0.98129   0.35539   0.71871   0.00000  Uiso   1.00
C1044  C     0.68541   0.64461   0.78120   0.00000  Uiso   1.00
C1045  C     0.98327   0.64551   0.71666   0.00000  Uiso   1.00
C1046  C     0.68338   0.35448   0.78326   0.00000  Uiso   1.00
C1047  C     0.66798   0.62385   0.74858   0.00000  Uiso   1.00
C1048  C     0.99870   0.37614   0.75134   0.00000  Uiso   1.00
C1049  C     0.84989   0.47399   0.77804   0.00000  Uiso   1.00
C1050  C     0.81678   0.52604   0.72198   0.00000  Uiso   1.00
C1051  C     0.80008   0.47421   0.77785   0.00000  Uiso   1.00
C1052  C     0.86659   0.52579   0.72214   0.00000  Uiso   1.00
C1053  C     0.97284   0.49843   0.83620   0.00000  Uiso   1.00
C1054  C     0.69380   0.50109   0.66373   0.00000  Uiso   1.00
C1055  C     0.95783   0.49113   0.88527   0.00000  Uiso   1.00
C1056  C     0.70823   0.50422   0.61408   0.00000  Uiso   1.00
C1057  C     0.96786   0.45792   0.95331   0.00000  Uiso   1.00
C1058  C     0.69396   0.52511   0.54258   0.00000  Uiso   1.00
C1059  C     0.98758   0.47019   0.90772   0.00000  Uiso   1.00
C1060  C     0.67665   0.51977   0.58995   0.00000  Uiso   1.00
C1061  C     0.91042   0.50115   0.90818   0.00000  Uiso   1.00
C1062  C     0.75543   0.49319   0.59137   0.00000  Uiso   1.00
C1063  C     0.88937   0.48797   0.95254   0.00000  Uiso   1.00
C1064  C     0.77306   0.49693   0.54442   0.00000  Uiso   1.00
C1065  C     0.91904   0.46696   0.97546   0.00000  Uiso   1.00
C1066  C     0.74199   0.51392   0.52017   0.00000  Uiso   1.00
C1067  C     0.83959   0.49530   0.97466   0.00000  Uiso   1.00
C1068  C     0.82143   0.48567   0.52123   0.00000  Uiso   1.00
Cu1069 Cu    0.71355   0.50001   0.75000   0.00000  Uiso   1.00
Cu1070 Cu    0.95311   0.49999   0.75000   0.00000  Uiso   1.00
H1071  H     0.92073   0.43859   0.53885   0.00000  Uiso   1.00
H1072  H     0.73641   0.53150   0.95376   0.00000  Uiso   1.00
H1073  H     0.77839   0.48285   0.61165   0.00000  Uiso   1.00
H1074  H     0.89062   0.51963   0.89018   0.00000  Uiso   1.00
H1075  H     0.83999   0.45323   0.57699   0.00000  Uiso   1.00
H1076  H     0.81666   0.51539   0.91545   0.00000  Uiso   1.00
H1077  H     0.77430   0.45364   0.79993   0.00000  Uiso   1.00
H1078  H     0.89238   0.54634   0.70004   0.00000  Uiso   1.00
N1079  N     0.78403   0.50001   0.74999   0.00000  Uiso   1.00
N1080  N     0.88264   0.49999   0.75001   0.00000  Uiso   1.00
O1081  O     0.70625   0.43989   0.75000   0.00000  Uiso   1.00
O1082  O     0.96042   0.56011   0.75000   0.00000  Uiso   1.00
O1083  O     0.96039   0.43988   0.75000   0.00000  Uiso   1.00
O1084  O     0.70628   0.56012   0.74999   0.00000  Uiso   1.00
O1085  O     0.68519   0.50001   0.81491   0.00000  Uiso   1.00
O1086  O     0.98148   0.49999   0.68508   0.00000  Uiso   1.00
O1087  O     0.93933   0.50000   0.81492   0.00000  Uiso   1.00
O1088  O     0.72733   0.50000   0.68508   0.00000  Uiso   1.00
O1089  O     0.96369   0.53098   0.61384   0.00000  Uiso   1.00
H1090  H     0.94440   0.53988   0.59336   0.00000  Uiso   1.00
O1091  O     0.70123   0.46114   0.88380   0.00000  Uiso   1.00
H1092  H     0.71910   0.44814   0.90347   0.00000  Uiso   1.00
N1093  N     0.99613   0.43495   0.97702   0.00000  Uiso   1.00
H1094  H     0.67404   0.40751   0.95972   0.00000  Uiso   1.00
H1095  H     0.69309   0.45253   0.97851   0.00000  Uiso   1.00
N1096  N     0.99729   0.54306   0.51699   0.00000  Uiso   1.00
H1097  H     0.96638   0.52461   0.52046   0.00000  Uiso   1.00
H1098  H     0.98710   0.57260   0.52938   0.00000  Uiso   1.00
O1099  O     0.96464   0.37855   0.68810   0.00000  Uiso   1.00
H1100  H     0.95236   0.36024   0.66784   0.00000  Uiso   1.00
O1101  O     0.70208   0.62146   0.81180   0.00000  Uiso   1.00
H1102  H     0.71441   0.63978   0.83202   0.00000  Uiso   1.00
O1103  O     0.96845   0.62570   0.68274   0.00000  Uiso   1.00
H1104  H     0.98433   0.59852   0.67663   0.00000  Uiso   1.00
O1105  O     0.69811   0.37429   0.81722   0.00000  Uiso   1.00
H1106  H     0.68200   0.40136   0.82343   0.00000  Uiso   1.00
O1107  O     0.86603   0.44774   0.80612   0.00000  Uiso   1.00
H1108  H     0.83816   0.43132   0.82426   0.00000  Uiso   1.00
O1109  O     0.80062   0.55233   0.69397   0.00000  Uiso   1.00
H1110  H     0.82846   0.56883   0.67592   0.00000  Uiso   1.00
C1111  C     0.33294   0.75415   0.75049   0.00000  Uiso   1.00
C1112  C     0.00040   0.91252   0.74946   0.00000  Uiso   1.00
C1113  C     0.18529   0.79778   0.54285   0.00000  Uiso   1.00
C1114  C     0.14038   0.84417   0.95140   0.00000  Uiso   1.00
C1115  C     0.23270   0.78838   0.52035   0.00000  Uiso   1.00
C1116  C     0.09279   0.85305   0.97362   0.00000  Uiso   1.00
C1117  C     0.31462   0.68872   0.71871   0.00000  Uiso   1.00
C1118  C     0.01874   0.97795   0.78120   0.00000  Uiso   1.00
C1119  C     0.31661   0.97885   0.71666   0.00000  Uiso   1.00
C1120  C     0.01671   0.68781   0.78326   0.00000  Uiso   1.00
C1121  C     0.00131   0.95718   0.74858   0.00000  Uiso   1.00
C1122  C     0.33204   0.70948   0.75134   0.00000  Uiso   1.00
C1123  C     0.18322   0.80732   0.77804   0.00000  Uiso   1.00
C1124  C     0.15011   0.85937   0.72198   0.00000  Uiso   1.00
C1125  C     0.13341   0.80754   0.77785   0.00000  Uiso   1.00
C1126  C     0.19992   0.85913   0.72214   0.00000  Uiso   1.00
C1127  C     0.30617   0.83177   0.83620   0.00000  Uiso   1.00
C1128  C     0.02713   0.83443   0.66373   0.00000  Uiso   1.00
C1129  C     0.29116   0.82446   0.88527   0.00000  Uiso   1.00
C1130  C     0.04156   0.83755   0.61408   0.00000  Uiso   1.00
C1131  C     0.30120   0.79125   0.95331   0.00000  Uiso   1.00
C1132  C     0.02729   0.85844   0.54258   0.00000  Uiso   1.00
C1133  C     0.32091   0.80352   0.90772   0.00000  Uiso   1.00
C1134  C     0.00998   0.85311   0.58995   0.00000  Uiso   1.00
C1135  C     0.24375   0.83448   0.90818   0.00000  Uiso   1.00
C1136  C     0.08876   0.82652   0.59137   0.00000  Uiso   1.00
C1137  C     0.22270   0.82130   0.95254   0.00000  Uiso   1.00
C1138  C     0.10639   0.83026   0.54442   0.00000  Uiso   1.00
C1139  C     0.25237   0.80030   0.97546   0.00000  Uiso   1.00
C1140  C     0.07532   0.84725   0.52017   0.00000  Uiso   1.00
C1141  C     0.17293   0.82864   0.97466   0.00000  Uiso   1.00
C1142  C     0.15476   0.81900   0.52123   0.00000  Uiso   1.00
Cu1143 Cu    0.04689   0.83334   0.75000   0.00000  Uiso   1.00
Cu1144 Cu    0.28645   0.83333   0.75000   0.00000  Uiso   1.00
H1145  H     0.25406   0.77192   0.53885   0.00000  Uiso   1.00
H1146  H     0.06974   0.86484   0.95376   0.00000  Uiso   1.00
H1147  H     0.11172   0.81618   0.61165   0.00000  Uiso   1.00
H1148  H     0.22395   0.85296   0.89018   0.00000  Uiso   1.00
H1149  H     0.17333   0.78656   0.57699   0.00000  Uiso   1.00
H1150  H     0.14999   0.84873   0.91545   0.00000  Uiso   1.00
H1151  H     0.10764   0.78698   0.79993   0.00000  Uiso   1.00
H1152  H     0.22571   0.87967   0.70004   0.00000  Uiso   1.00
N1153  N     0.11736   0.83334   0.74999   0.00000  Uiso   1.00
N1154  N     0.21597   0.83332   0.75001   0.00000  Uiso   1.00
O1155  O     0.03958   0.77322   0.75000   0.00000  Uiso   1.00
O1156  O     0.29375   0.89345   0.75000   0.00000  Uiso   1.00
O1157  O     0.29372   0.77321   0.75000   0.00000  Uiso   1.00
O1158  O     0.03961   0.89346   0.74999   0.00000  Uiso   1.00
O1159  O     0.01852   0.83334   0.81491   0.00000  Uiso   1.00
O1160  O     0.31481   0.83332   0.68508   0.00000  Uiso   1.00
O1161  O     0.27267   0.83333   0.81492   0.00000  Uiso   1.00
O1162  O     0.06067   0.83333   0.68508   0.00000  Uiso   1.00
O1163  O     0.29703   0.86431   0.61384   0.00000  Uiso   1.00
H1164  H     0.27774   0.87321   0.59336   0.00000  Uiso   1.00
O1165  O     0.03456   0.79447   0.88380   0.00000  Uiso   1.00
H1166  H     0.05244   0.78148   0.90347   0.00000  Uiso   1.00
N1167  N     0.32946   0.76828   0.97702   0.00000  Uiso   1.00
H1168  H     0.00737   0.74084   0.95972   0.00000  Uiso   1.00
H1169  H     0.02642   0.78586   0.97851   0.00000  Uiso   1.00
N1170  N     0.33062   0.87640   0.51699   0.00000  Uiso   1.00
H1171  H     0.29971   0.85794   0.52046   0.00000  Uiso   1.00
H1172  H     0.32043   0.90593   0.52938   0.00000  Uiso   1.00
O1173  O     0.29797   0.71188   0.68810   0.00000  Uiso   1.00
H1174  H     0.28569   0.69357   0.66784   0.00000  Uiso   1.00
O1175  O     0.03541   0.95479   0.81180   0.00000  Uiso   1.00
H1176  H     0.04774   0.97311   0.83202   0.00000  Uiso   1.00
O1177  O     0.30178   0.95903   0.68274   0.00000  Uiso   1.00
H1178  H     0.31766   0.93185   0.67663   0.00000  Uiso   1.00
O1179  O     0.03144   0.70762   0.81722   0.00000  Uiso   1.00
H1180  H     0.01533   0.73469   0.82343   0.00000  Uiso   1.00
O1181  O     0.19936   0.78107   0.80612   0.00000  Uiso   1.00
H1182  H     0.17150   0.76466   0.82426   0.00000  Uiso   1.00
O1183  O     0.13395   0.88566   0.69397   0.00000  Uiso   1.00
H1184  H     0.16179   0.90217   0.67592   0.00000  Uiso   1.00
C1185  C     0.66627   0.75415   0.75049   0.00000  Uiso   1.00
C1186  C     0.33374   0.91252   0.74946   0.00000  Uiso   1.00
C1187  C     0.51863   0.79778   0.54285   0.00000  Uiso   1.00
C1188  C     0.47371   0.84417   0.95140   0.00000  Uiso   1.00
C1189  C     0.56603   0.78838   0.52035   0.00000  Uiso   1.00
C1190  C     0.42612   0.85305   0.97362   0.00000  Uiso   1.00
C1191  C     0.64795   0.68872   0.71871   0.00000  Uiso   1.00
C1192  C     0.35207   0.97795   0.78120   0.00000  Uiso   1.00
C1193  C     0.64994   0.97885   0.71666   0.00000  Uiso   1.00
C1194  C     0.35005   0.68781   0.78326   0.00000  Uiso   1.00
C1195  C     0.33464   0.95718   0.74858   0.00000  Uiso   1.00
C1196  C     0.66537   0.70948   0.75134   0.00000  Uiso   1.00
C1197  C     0.51655   0.80732   0.77804   0.00000  Uiso   1.00
C1198  C     0.48344   0.85937   0.72198   0.00000  Uiso   1.00
C1199  C     0.46675   0.80754   0.77785   0.00000  Uiso   1.00
C1200  C     0.53326   0.85913   0.72214   0.00000  Uiso   1.00
C1201  C     0.63951   0.83177   0.83620   0.00000  Uiso   1.00
C1202  C     0.36046   0.83443   0.66373   0.00000  Uiso   1.00
C1203  C     0.62449   0.82446   0.88527   0.00000  Uiso   1.00
C1204  C     0.37490   0.83755   0.61408   0.00000  Uiso   1.00
C1205  C     0.63453   0.79125   0.95331   0.00000  Uiso   1.00
C1206  C     0.36062   0.85844   0.54258   0.00000  Uiso   1.00
C1207  C     0.65424   0.80352   0.90772   0.00000  Uiso   1.00
C1208  C     0.34331   0.85311   0.58995   0.00000  Uiso   1.00
C1209  C     0.57708   0.83448   0.90818   0.00000  Uiso   1.00
C1210  C     0.42209   0.82652   0.59137   0.00000  Uiso   1.00
C1211  C     0.55604   0.82130   0.95254   0.00000  Uiso   1.00
C1212  C     0.43973   0.83026   0.54442   0.00000  Uiso   1.00
C1213  C     0.58570   0.80030   0.97546   0.00000  Uiso   1.00
C1214  C     0.40866   0.84725   0.52017   0.00000  Uiso   1.00
C1215  C     0.50626   0.82864   0.97466   0.00000  Uiso   1.00
C1216  C     0.48809   0.81900   0.52123   0.00000  Uiso   1.00
Cu1217 Cu    0.38022   0.83334   0.75000   0.00000  Uiso   1.00
Cu1218 Cu    0.61978   0.83333   0.75000   0.00000  Uiso   1.00
H1219  H     0.58740   0.77192   0.53885   0.00000  Uiso   1.00
H1220  H     0.40308   0.86484   0.95376   0.00000  Uiso   1.00
H1221  H     0.44506   0.81618   0.61165   0.00000  Uiso   1.00
H1222  H     0.55729   0.85296   0.89018   0.00000  Uiso   1.00
H1223  H     0.50666   0.78656   0.57699   0.00000  Uiso   1.00
H1224  H     0.48332   0.84873   0.91545   0.00000  Uiso   1.00
H1225  H     0.44097   0.78698   0.79993   0.00000  Uiso   1.00
H1226  H     0.55905   0.87967   0.70004   0.00000  Uiso   1.00
N1227  N     0.45069   0.83334   0.74999   0.00000  Uiso   1.00
N1228  N     0.54931   0.83332   0.75001   0.00000  Uiso   1.00
O1229  O     0.37291   0.77322   0.75000   0.00000  Uiso   1.00
O1230  O     0.62709   0.89345   0.75000   0.00000  Uiso   1.00
O1231  O     0.62706   0.77321   0.75000   0.00000  Uiso   1.00
O1232  O     0.37294   0.89346   0.74999   0.00000  Uiso   1.00
O1233  O     0.35186   0.83334   0.81491   0.00000  Uiso   1.00
O1234  O     0.64814   0.83332   0.68508   0.00000  Uiso   1.00
O1235  O     0.60600   0.83333   0.81492   0.00000  Uiso   1.00
O1236  O     0.39400   0.83333   0.68508   0.00000  Uiso   1.00
O1237  O     0.63036   0.86431   0.61384   0.00000  Uiso   1.00
H1238  H     0.61107   0.87321   0.59336   0.00000  Uiso   1.00
O1239  O     0.36790   0.79447   0.88380   0.00000  Uiso   1.00
H1240  H     0.38577   0.78148   0.90347   0.00000  Uiso   1.00
N1241  N     0.66279   0.76828   0.97702   0.00000  Uiso   1.00
H1242  H     0.34070   0.74084   0.95972   0.00000  Uiso   1.00
H1243  H     0.35976   0.78586   0.97851   0.00000  Uiso   1.00
N1244  N     0.66395   0.87640   0.51699   0.00000  Uiso   1.00
H1245  H     0.63304   0.85794   0.52046   0.00000  Uiso   1.00
H1246  H     0.65376   0.90593   0.52938   0.00000  Uiso   1.00
O1247  O     0.63130   0.71188   0.68810   0.00000  Uiso   1.00
H1248  H     0.61902   0.69357   0.66784   0.00000  Uiso   1.00
O1249  O     0.36874   0.95479   0.81180   0.00000  Uiso   1.00
H1250  H     0.38107   0.97311   0.83202   0.00000  Uiso   1.00
O1251  O     0.63512   0.95903   0.68274   0.00000  Uiso   1.00
H1252  H     0.65100   0.93185   0.67663   0.00000  Uiso   1.00
O1253  O     0.36477   0.70762   0.81722   0.00000  Uiso   1.00
H1254  H     0.34866   0.73469   0.82343   0.00000  Uiso   1.00
O1255  O     0.53269   0.78107   0.80612   0.00000  Uiso   1.00
H1256  H     0.50483   0.76466   0.82426   0.00000  Uiso   1.00
O1257  O     0.46728   0.88566   0.69397   0.00000  Uiso   1.00
H1258  H     0.49512   0.90217   0.67592   0.00000  Uiso   1.00
C1259  C     0.99961   0.75415   0.75049   0.00000  Uiso   1.00
C1260  C     0.66707   0.91252   0.74946   0.00000  Uiso   1.00
C1261  C     0.85196   0.79778   0.54285   0.00000  Uiso   1.00
C1262  C     0.80705   0.84417   0.95140   0.00000  Uiso   1.00
C1263  C     0.89936   0.78838   0.52035   0.00000  Uiso   1.00
C1264  C     0.75945   0.85305   0.97362   0.00000  Uiso   1.00
C1265  C     0.98129   0.68872   0.71871   0.00000  Uiso   1.00
C1266  C     0.68541   0.97795   0.78120   0.00000  Uiso   1.00
C1267  C     0.98327   0.97885   0.71666   0.00000  Uiso   1.00
C1268  C     0.68338   0.68781   0.78326   0.00000  Uiso   1.00
C1269  C     0.66798   0.95718   0.74858   0.00000  Uiso   1.00
C1270  C     0.99870   0.70948   0.75134   0.00000  Uiso   1.00
C1271  C     0.84989   0.80732   0.77804   0.00000  Uiso   1.00
C1272  C     0.81678   0.85937   0.72198   0.00000  Uiso   1.00
C1273  C     0.80008   0.80754   0.77785   0.00000  Uiso   1.00
C1274  C     0.86659   0.85913   0.72214   0.00000  Uiso   1.00
C1275  C     0.97284   0.83177   0.83620   0.00000  Uiso   1.00
C1276  C     0.69380   0.83443   0.66373   0.00000  Uiso   1.00
C1277  C     0.95783   0.82446   0.88527   0.00000  Uiso   1.00
C1278  C     0.70823   0.83755   0.61408   0.00000  Uiso   1.00
C1279  C     0.96786   0.79125   0.95331   0.00000  Uiso   1.00
C1280  C     0.69396   0.85844   0.54258   0.00000  Uiso   1.00
C1281  C     0.98758   0.80352   0.90772   0.00000  Uiso   1.00
C1282  C     0.67665   0.85311   0.58995   0.00000  Uiso   1.00
C1283  C     0.91042   0.83448   0.90818   0.00000  Uiso   1.00
C1284  C     0.75543   0.82652   0.59137   0.00000  Uiso   1.00
C1285  C     0.88937   0.82130   0.95254   0.00000  Uiso   1.00
C1286  C     0.77306   0.83026   0.54442   0.00000  Uiso   1.00
C1287  C     0.91904   0.80030   0.97546   0.00000  Uiso   1.00
C1288  C     0.74199   0.84725   0.52017   0.00000  Uiso   1.00
C1289  C     0.83959   0.82864   0.97466   0.00000  Uiso   1.00
C1290  C     0.82143   0.81900   0.52123   0.00000  Uiso   1.00
Cu1291 Cu    0.71355   0.83334   0.75000   0.00000  Uiso   1.00
Cu1292 Cu    0.95311   0.83333   0.75000   0.00000  Uiso   1.00
H1293  H     0.92073   0.77192   0.53885   0.00000  Uiso   1.00
H1294  H     0.73641   0.86484   0.95376   0.00000  Uiso   1.00
H1295  H     0.77839   0.81618   0.61165   0.00000  Uiso   1.00
H1296  H     0.89062   0.85296   0.89018   0.00000  Uiso   1.00
H1297  H     0.83999   0.78656   0.57699   0.00000  Uiso   1.00
H1298  H     0.81666   0.84873   0.91545   0.00000  Uiso   1.00
H1299  H     0.77430   0.78698   0.79993   0.00000  Uiso   1.00
H1300  H     0.89238   0.87967   0.70004   0.00000  Uiso   1.00
N1301  N     0.78403   0.83334   0.74999   0.00000  Uiso   1.00
N1302  N     0.88264   0.83332   0.75001   0.00000  Uiso   1.00
O1303  O     0.70625   0.77322   0.75000   0.00000  Uiso   1.00
O1304  O     0.96042   0.89345   0.75000   0.00000  Uiso   1.00
O1305  O     0.96039   0.77321   0.75000   0.00000  Uiso   1.00
O1306  O     0.70628   0.89346   0.74999   0.00000  Uiso   1.00
O1307  O     0.68519   0.83334   0.81491   0.00000  Uiso   1.00
O1308  O     0.98148   0.83332   0.68508   0.00000  Uiso   1.00
O1309  O     0.93933   0.83333   0.81492   0.00000  Uiso   1.00
O1310  O     0.72733   0.83333   0.68508   0.00000  Uiso   1.00
O1311  O     0.96369   0.86431   0.61384   0.00000  Uiso   1.00
H1312  H     0.94440   0.87321   0.59336   0.00000  Uiso   1.00
O1313  O     0.70123   0.79447   0.88380   0.00000  Uiso   1.00
H1314  H     0.71910   0.78148   0.90347   0.00000  Uiso   1.00
N1315  N     0.99613   0.76828   0.97702   0.00000  Uiso   1.00
H1316  H     0.67404   0.74084   0.95972   0.00000  Uiso   1.00
H1317  H     0.69309   0.78586   0.97851   0.00000  Uiso   1.00
N1318  N     0.99729   0.87640   0.51699   0.00000  Uiso   1.00
H1319  H     0.96638   0.85794   0.52046   0.00000  Uiso   1.00
H1320  H     0.98710   0.90593   0.52938   0.00000  Uiso   1.00
O1321  O     0.96464   0.71188   0.68810   0.00000  Uiso   1.00
H1322  H     0.95236   0.69357   0.66784   0.00000  Uiso   1.00
O1323  O     0.70208   0.95479   0.81180   0.00000  Uiso   1.00
H1324  H     0.71441   0.97311   0.83202   0.00000  Uiso   1.00
O1325  O     0.96845   0.95903   0.68274   0.00000  Uiso   1.00
H1326  H     0.98433   0.93185   0.67663   0.00000  Uiso   1.00
O1327  O     0.69811   0.70762   0.81722   0.00000  Uiso   1.00
H1328  H     0.68200   0.73469   0.82343   0.00000  Uiso   1.00
O1329  O     0.86603   0.78107   0.80612   0.00000  Uiso   1.00
H1330  H     0.83816   0.76466   0.82426   0.00000  Uiso   1.00
O1331  O     0.80062   0.88566   0.69397   0.00000  Uiso   1.00
H1332  H     0.82846   0.90217   0.67592   0.00000  Uiso   1.00
loop_
_geom_bond_atom_site_label_1
_geom_bond_atom_site_label_2
_geom_bond_distance
_geom_bond_site_symmetry_2
_ccdc_geom_bond_type
C1     C12     1.446   .     S
C1     O47     1.289   .     A
C1     O119    1.291   .     S
C2     C11     1.446   .     S
C2     O48     1.289   .     A
C2     O194    1.291   1_455 S
C3     H39     1.077   .     S
C3     C32     1.414   .     A
C3     C5      1.386   .     A
C4     H40     1.077   .     S
C4     C6      1.384   .     A
C4     C31     1.413   .     A
C5     H35     1.083   .     S
C5     C695    1.398   1_554 S
C6     H36     1.083   .     S
C6     C696    1.398   .     S
C7     C12     1.405   .     A
C7     O63     1.386   .     S
C7     C453    1.402   1_545 S
C8     O65     1.386   .     S
C8     C11     1.405   .     A
C8     C232    1.401   .     S
C9     O67     1.385   .     S
C9     C229    1.402   .     S
C9     C85     1.414   .     S
C10    O69     1.384   .     S
C10    C452    1.401   1_545 S
C10    C160    1.414   1_455 S
C11    C157    1.414   1_455 S
C12    C84     1.414   .     S
C13    O71     1.378   .     S
C13    C15     1.427   .     A
C13    N44     1.372   .     A
C14    O73     1.378   .     S
C14    C16     1.427   .     A
C14    N43     1.372   .     A
C15    H41     1.082   .     S
C15    N43     1.364   .     A
C16    N44     1.364   .     A
C16    H42     1.082   .     S
C17    O51     1.299   .     A
C17    C19     1.475   .     S
C17    O123    1.297   .     S
C18    O52     1.301   .     A
C18    C20     1.477   .     S
C18    O198    1.297   1_455 S
C19    C23     1.409   .     A
C19    C25     1.394   .     A
C20    C24     1.410   .     A
C20    C26     1.395   .     A
C21    C23     1.421   .     A
C21    C29     1.415   .     A
C21    N57     1.437   .     S
C22    C30     1.415   .     A
C22    C24     1.420   .     A
C22    N208    1.437   1_455 S
C23    O129    1.384   .     S
C24    O201    1.385   1_455 S
C25    H38     1.076   .     S
C25    C27     1.402   .     A
C26    H37     1.075   .     S
C26    C28     1.403   .     A
C27    C29     1.418   .     A
C27    C31     1.428   .     A
C28    C32     1.429   .     A
C28    C30     1.419   .     A
C29    C671    1.398   .     S
C30    C672    1.398   1_554 S
C31    C698    1.422   .     S
C32    C697    1.422   1_554 S
Cu33   O45     1.956   .     S
Cu33   O52     1.932   .     S
Cu33   O49     1.947   .     S
Cu33   N43     2.016   .     S
Cu33   O48     1.960   .     S
Cu33   Cu182   2.683   1_455 S
Cu34   O51     1.932   .     S
Cu34   O46     1.956   .     S
Cu34   O50     1.947   .     S
Cu34   N44     2.016   .     S
Cu34   O47     1.960   .     S
Cu34   Cu107   2.683   .     S
O45    C149    1.291   1_455 S
O46    C76     1.291   .     S
O49    C165    1.297   1_455 S
O50    C92     1.297   .     S
O53    H54     0.987   .     S
O53    C98     1.385   .     S
O55    H56     0.987   .     S
O55    C171    1.384   1_455 S
N57    H132    1.045   .     S
N57    H133    1.044   .     S
H58    N205    1.045   1_455 S
H59    N205    1.044   1_455 S
N60    H62     1.045   .     S
N60    H61     1.044   .     S
N60    C96     1.437   .     S
O63    H64     0.989   .     S
O65    H66     0.989   .     S
O67    H68     0.989   .     S
O69    H70     0.989   .     S
O71    H72     0.992   .     S
O73    H74     0.992   .     S
C75    C86     1.446   .     S
C75    O121    1.289   .     A
C75    O193    1.291   .     S
C76    C85     1.446   .     S
C76    O122    1.289   .     A
C77    H113    1.077   .     S
C77    C106    1.414   .     A
C77    C79     1.386   .     A
C78    H114    1.077   .     S
C78    C80     1.384   .     A
C78    C105    1.413   .     A
C79    H109    1.083   .     S
C79    C769    1.398   1_554 S
C80    H110    1.083   .     S
C80    C770    1.398   .     S
C81    C86     1.405   .     A
C81    O137    1.386   .     S
C81    C527    1.402   1_545 S
C82    O139    1.386   .     S
C82    C85     1.405   .     A
C82    C306    1.401   .     S
C83    O141    1.385   .     S
C83    C303    1.402   .     S
C83    C159    1.414   .     S
C84    O143    1.384   .     S
C84    C526    1.401   1_545 S
C86    C158    1.414   .     S
C87    O145    1.378   .     S
C87    C89     1.427   .     A
C87    N118    1.372   .     A
C88    O147    1.378   .     S
C88    C90     1.427   .     A
C88    N117    1.372   .     A
C89    H115    1.082   .     S
C89    N117    1.364   .     A
C90    N118    1.364   .     A
C90    H116    1.082   .     S
C91    O125    1.299   .     A
C91    C93     1.475   .     S
C91    O197    1.297   .     S
C92    O126    1.301   .     A
C92    C94     1.477   .     S
C93    C97     1.409   .     A
C93    C99     1.394   .     A
C94    C98     1.410   .     A
C94    C100    1.395   .     A
C95    C97     1.421   .     A
C95    C103    1.415   .     A
C95    N131    1.437   .     S
C96    C104    1.415   .     A
C96    C98     1.420   .     A
C97    O203    1.384   .     S
C99    H112    1.076   .     S
C99    C101    1.402   .     A
C100   H111    1.075   .     S
C100   C102    1.403   .     A
C101   C103    1.418   .     A
C101   C105    1.428   .     A
C102   C106    1.429   .     A
C102   C104    1.419   .     A
C103   C745    1.398   .     S
C104   C746    1.398   1_554 S
C105   C772    1.422   .     S
C106   C771    1.422   1_554 S
Cu107  O119    1.956   .     S
Cu107  O126    1.932   .     S
Cu107  O123    1.947   .     S
Cu107  N117    2.016   .     S
Cu107  O122    1.960   .     S
Cu108  O125    1.932   .     S
Cu108  O120    1.956   .     S
Cu108  O124    1.947   .     S
Cu108  N118    2.016   .     S
Cu108  O121    1.960   .     S
Cu108  Cu181   2.683   .     S
O120   C150    1.291   .     S
O124   C166    1.297   .     S
O127   H128    0.987   .     S
O127   C172    1.385   .     S
O129   H130    0.987   .     S
N131   H206    1.045   .     S
N131   H207    1.044   .     S
N134   H136    1.045   .     S
N134   H135    1.044   .     S
N134   C170    1.437   .     S
O137   H138    0.989   .     S
O139   H140    0.989   .     S
O141   H142    0.989   .     S
O143   H144    0.989   .     S
O145   H146    0.992   .     S
O147   H148    0.992   .     S
C149   C160    1.446   .     S
C149   O195    1.289   .     A
C149   O45     1.291   1_655 S
C150   C159    1.446   .     S
C150   O196    1.289   .     A
C151   H187    1.077   .     S
C151   C180    1.414   .     A
C151   C153    1.386   .     A
C152   H188    1.077   .     S
C152   C154    1.384   .     A
C152   C179    1.413   .     A
C153   H183    1.083   .     S
C153   C843    1.398   1_554 S
C154   H184    1.083   .     S
C154   C844    1.398   .     S
C155   C160    1.405   .     A
C155   O211    1.386   .     S
C155   C601    1.402   1_545 S
C156   O213    1.386   .     S
C156   C159    1.405   .     A
C156   C380    1.401   .     S
C157   O215    1.385   .     S
C157   C377    1.402   .     S
C157   C11     1.414   1_655 S
C158   O217    1.384   .     S
C158   C600    1.401   1_545 S
C160   C10     1.414   1_655 S
C161   O219    1.378   .     S
C161   C163    1.427   .     A
C161   N192    1.372   .     A
C162   O221    1.378   .     S
C162   C164    1.427   .     A
C162   N191    1.372   .     A
C163   H189    1.082   .     S
C163   N191    1.364   .     A
C164   N192    1.364   .     A
C164   H190    1.082   .     S
C165   O199    1.299   .     A
C165   C167    1.475   .     S
C165   O49     1.297   1_655 S
C166   O200    1.301   .     A
C166   C168    1.477   .     S
C167   C171    1.409   .     A
C167   C173    1.394   .     A
C168   C172    1.410   .     A
C168   C174    1.395   .     A
C169   C171    1.421   .     A
C169   C177    1.415   .     A
C169   N205    1.437   .     S
C170   C178    1.415   .     A
C170   C172    1.420   .     A
C171   O55     1.384   1_655 S
C173   H186    1.076   .     S
C173   C175    1.402   .     A
C174   H185    1.075   .     S
C174   C176    1.403   .     A
C175   C177    1.418   .     A
C175   C179    1.428   .     A
C176   C180    1.429   .     A
C176   C178    1.419   .     A
C177   C819    1.398   .     S
C178   C820    1.398   1_554 S
C179   C846    1.422   .     S
C180   C845    1.422   1_554 S
Cu181  O193    1.956   .     S
Cu181  O200    1.932   .     S
Cu181  O197    1.947   .     S
Cu181  N191    2.016   .     S
Cu181  O196    1.960   .     S
Cu182  O199    1.932   .     S
Cu182  O194    1.956   .     S
Cu182  O198    1.947   .     S
Cu182  N192    2.016   .     S
Cu182  O195    1.960   .     S
Cu182  Cu33    2.683   1_655 S
O194   C2      1.291   1_655 S
O198   C18     1.297   1_655 S
O201   H202    0.987   .     S
O201   C24     1.385   1_655 S
O203   H204    0.987   .     S
N205   H58     1.045   1_655 S
N205   H59     1.044   1_655 S
N208   H210    1.045   .     S
N208   H209    1.044   .     S
N208   C22     1.437   1_655 S
O211   H212    0.989   .     S
O213   H214    0.989   .     S
O215   H216    0.989   .     S
O217   H218    0.989   .     S
O219   H220    0.992   .     S
O221   H222    0.992   .     S
C223   C234    1.446   .     S
C223   O269    1.289   .     A
C223   O341    1.291   .     S
C224   C233    1.446   .     S
C224   O270    1.289   .     A
C224   O416    1.291   1_455 S
C225   H261    1.077   .     S
C225   C254    1.414   .     A
C225   C227    1.386   .     A
C226   H262    1.077   .     S
C226   C228    1.384   .     A
C226   C253    1.413   .     A
C227   H257    1.083   .     S
C227   C917    1.398   1_554 S
C228   H258    1.083   .     S
C228   C918    1.398   .     S
C229   C234    1.405   .     A
C229   O285    1.386   .     S
C230   O287    1.386   .     S
C230   C233    1.405   .     A
C230   C454    1.401   .     S
C231   O289    1.385   .     S
C231   C451    1.402   .     S
C231   C307    1.414   .     S
C232   O291    1.384   .     S
C232   C382    1.414   1_455 S
C233   C379    1.414   1_455 S
C234   C306    1.414   .     S
C235   O293    1.378   .     S
C235   C237    1.427   .     A
C235   N266    1.372   .     A
C236   O295    1.378   .     S
C236   C238    1.427   .     A
C236   N265    1.372   .     A
C237   H263    1.082   .     S
C237   N265    1.364   .     A
C238   N266    1.364   .     A
C238   H264    1.082   .     S
C239   O273    1.299   .     A
C239   C241    1.475   .     S
C239   O345    1.297   .     S
C240   O274    1.301   .     A
C240   C242    1.477   .     S
C240   O420    1.297   1_455 S
C241   C245    1.409   .     A
C241   C247    1.394   .     A
C242   C246    1.410   .     A
C242   C248    1.395   .     A
C243   C245    1.421   .     A
C243   C251    1.415   .     A
C243   N279    1.437   .     S
C244   C252    1.415   .     A
C244   C246    1.420   .     A
C244   N430    1.437   1_455 S
C245   O351    1.384   .     S
C246   O423    1.385   1_455 S
C247   H260    1.076   .     S
C247   C249    1.402   .     A
C248   H259    1.075   .     S
C248   C250    1.403   .     A
C249   C251    1.418   .     A
C249   C253    1.428   .     A
C250   C254    1.429   .     A
C250   C252    1.419   .     A
C251   C893    1.398   .     S
C252   C894    1.398   1_554 S
C253   C920    1.422   .     S
C254   C919    1.422   1_554 S
Cu255  O267    1.956   .     S
Cu255  O274    1.932   .     S
Cu255  O271    1.947   .     S
Cu255  N265    2.016   .     S
Cu255  O270    1.960   .     S
Cu255  Cu404   2.683   1_455 S
Cu256  O273    1.932   .     S
Cu256  O268    1.956   .     S
Cu256  O272    1.947   .     S
Cu256  N266    2.016   .     S
Cu256  O269    1.960   .     S
Cu256  Cu329   2.683   .     S
O267   C371    1.291   1_455 S
O268   C298    1.291   .     S
O271   C387    1.297   1_455 S
O272   C314    1.297   .     S
O275   H276    0.987   .     S
O275   C320    1.385   .     S
O277   H278    0.987   .     S
O277   C393    1.384   1_455 S
N279   H354    1.045   .     S
N279   H355    1.044   .     S
H280   N427    1.045   1_455 S
H281   N427    1.044   1_455 S
N282   H284    1.045   .     S
N282   H283    1.044   .     S
N282   C318    1.437   .     S
O285   H286    0.989   .     S
O287   H288    0.989   .     S
O289   H290    0.989   .     S
O291   H292    0.989   .     S
O293   H294    0.992   .     S
O295   H296    0.992   .     S
C297   C308    1.446   .     S
C297   O343    1.289   .     A
C297   O415    1.291   .     S
C298   C307    1.446   .     S
C298   O344    1.289   .     A
C299   H335    1.077   .     S
C299   C328    1.414   .     A
C299   C301    1.386   .     A
C300   H336    1.077   .     S
C300   C302    1.384   .     A
C300   C327    1.413   .     A
C301   H331    1.083   .     S
C301   C991    1.398   1_554 S
C302   H332    1.083   .     S
C302   C992    1.398   .     S
C303   C308    1.405   .     A
C303   O359    1.386   .     S
C304   O361    1.386   .     S
C304   C307    1.405   .     A
C304   C528    1.401   .     S
C305   O363    1.385   .     S
C305   C525    1.402   .     S
C305   C381    1.414   .     S
C306   O365    1.384   .     S
C308   C380    1.414   .     S
C309   O367    1.378   .     S
C309   C311    1.427   .     A
C309   N340    1.372   .     A
C310   O369    1.378   .     S
C310   C312    1.427   .     A
C310   N339    1.372   .     A
C311   H337    1.082   .     S
C311   N339    1.364   .     A
C312   N340    1.364   .     A
C312   H338    1.082   .     S
C313   O347    1.299   .     A
C313   C315    1.475   .     S
C313   O419    1.297   .     S
C314   O348    1.301   .     A
C314   C316    1.477   .     S
C315   C319    1.409   .     A
C315   C321    1.394   .     A
C316   C320    1.410   .     A
C316   C322    1.395   .     A
C317   C319    1.421   .     A
C317   C325    1.415   .     A
C317   N353    1.437   .     S
C318   C326    1.415   .     A
C318   C320    1.420   .     A
C319   O425    1.384   .     S
C321   H334    1.076   .     S
C321   C323    1.402   .     A
C322   H333    1.075   .     S
C322   C324    1.403   .     A
C323   C325    1.418   .     A
C323   C327    1.428   .     A
C324   C328    1.429   .     A
C324   C326    1.419   .     A
C325   C967    1.398   .     S
C326   C968    1.398   1_554 S
C327   C994    1.422   .     S
C328   C993    1.422   1_554 S
Cu329  O341    1.956   .     S
Cu329  O348    1.932   .     S
Cu329  O345    1.947   .     S
Cu329  N339    2.016   .     S
Cu329  O344    1.960   .     S
Cu330  O347    1.932   .     S
Cu330  O342    1.956   .     S
Cu330  O346    1.947   .     S
Cu330  N340    2.016   .     S
Cu330  O343    1.960   .     S
Cu330  Cu403   2.683   .     S
O342   C372    1.291   .     S
O346   C388    1.297   .     S
O349   H350    0.987   .     S
O349   C394    1.385   .     S
O351   H352    0.987   .     S
N353   H428    1.045   .     S
N353   H429    1.044   .     S
N356   H358    1.045   .     S
N356   H357    1.044   .     S
N356   C392    1.437   .     S
O359   H360    0.989   .     S
O361   H362    0.989   .     S
O363   H364    0.989   .     S
O365   H366    0.989   .     S
O367   H368    0.992   .     S
O369   H370    0.992   .     S
C371   C382    1.446   .     S
C371   O417    1.289   .     A
C371   O267    1.291   1_655 S
C372   C381    1.446   .     S
C372   O418    1.289   .     A
C373   H409    1.077   .     S
C373   C402    1.414   .     A
C373   C375    1.386   .     A
C374   H410    1.077   .     S
C374   C376    1.384   .     A
C374   C401    1.413   .     A
C375   H405    1.083   .     S
C375   C1065   1.398   1_554 S
C376   H406    1.083   .     S
C376   C1066   1.398   .     S
C377   C382    1.405   .     A
C377   O433    1.386   .     S
C378   O435    1.386   .     S
C378   C381    1.405   .     A
C378   C602    1.401   .     S
C379   O437    1.385   .     S
C379   C599    1.402   .     S
C379   C233    1.414   1_655 S
C380   O439    1.384   .     S
C382   C232    1.414   1_655 S
C383   O441    1.378   .     S
C383   C385    1.427   .     A
C383   N414    1.372   .     A
C384   O443    1.378   .     S
C384   C386    1.427   .     A
C384   N413    1.372   .     A
C385   H411    1.082   .     S
C385   N413    1.364   .     A
C386   N414    1.364   .     A
C386   H412    1.082   .     S
C387   O421    1.299   .     A
C387   C389    1.475   .     S
C387   O271    1.297   1_655 S
C388   O422    1.301   .     A
C388   C390    1.477   .     S
C389   C393    1.409   .     A
C389   C395    1.394   .     A
C390   C394    1.410   .     A
C390   C396    1.395   .     A
C391   C393    1.421   .     A
C391   C399    1.415   .     A
C391   N427    1.437   .     S
C392   C400    1.415   .     A
C392   C394    1.420   .     A
C393   O277    1.384   1_655 S
C395   H408    1.076   .     S
C395   C397    1.402   .     A
C396   H407    1.075   .     S
C396   C398    1.403   .     A
C397   C399    1.418   .     A
C397   C401    1.428   .     A
C398   C402    1.429   .     A
C398   C400    1.419   .     A
C399   C1041   1.398   .     S
C400   C1042   1.398   1_554 S
C401   C1068   1.422   .     S
C402   C1067   1.422   1_554 S
Cu403  O415    1.956   .     S
Cu403  O422    1.932   .     S
Cu403  O419    1.947   .     S
Cu403  N413    2.016   .     S
Cu403  O418    1.960   .     S
Cu404  O421    1.932   .     S
Cu404  O416    1.956   .     S
Cu404  O420    1.947   .     S
Cu404  N414    2.016   .     S
Cu404  O417    1.960   .     S
Cu404  Cu255   2.683   1_655 S
O416   C224    1.291   1_655 S
O420   C240    1.297   1_655 S
O423   H424    0.987   .     S
O423   C246    1.385   1_655 S
O425   H426    0.987   .     S
N427   H280    1.045   1_655 S
N427   H281    1.044   1_655 S
N430   H432    1.045   .     S
N430   H431    1.044   .     S
N430   C244    1.437   1_655 S
O433   H434    0.989   .     S
O435   H436    0.989   .     S
O437   H438    0.989   .     S
O439   H440    0.989   .     S
O441   H442    0.992   .     S
O443   H444    0.992   .     S
C445   C456    1.446   .     S
C445   O491    1.289   .     A
C445   O563    1.291   .     S
C446   C455    1.446   .     S
C446   O492    1.289   .     A
C446   O638    1.291   1_455 S
C447   H483    1.077   .     S
C447   C476    1.414   .     A
C447   C449    1.386   .     A
C448   H484    1.077   .     S
C448   C450    1.384   .     A
C448   C475    1.413   .     A
C449   H479    1.083   .     S
C449   C1139   1.398   1_554 S
C450   H480    1.083   .     S
C450   C1140   1.398   .     S
C451   C456    1.405   .     A
C451   O507    1.386   .     S
C452   O509    1.386   .     S
C452   C455    1.405   .     A
C452   C10     1.401   1_565 S
C453   O511    1.385   .     S
C453   C7      1.402   1_565 S
C453   C529    1.414   .     S
C454   O513    1.384   .     S
C454   C604    1.414   1_455 S
C455   C601    1.414   1_455 S
C456   C528    1.414   .     S
C457   O515    1.378   .     S
C457   C459    1.427   .     A
C457   N488    1.372   .     A
C458   O517    1.378   .     S
C458   C460    1.427   .     A
C458   N487    1.372   .     A
C459   H485    1.082   .     S
C459   N487    1.364   .     A
C460   N488    1.364   .     A
C460   H486    1.082   .     S
C461   O495    1.299   .     A
C461   C463    1.475   .     S
C461   O567    1.297   .     S
C462   O496    1.301   .     A
C462   C464    1.477   .     S
C462   O642    1.297   1_455 S
C463   C467    1.409   .     A
C463   C469    1.394   .     A
C464   C468    1.410   .     A
C464   C470    1.395   .     A
C465   C467    1.421   .     A
C465   C473    1.415   .     A
C465   N501    1.437   .     S
C466   C474    1.415   .     A
C466   C468    1.420   .     A
C466   N652    1.437   1_455 S
C467   O573    1.384   .     S
C468   O645    1.385   1_455 S
C469   H482    1.076   .     S
C469   C471    1.402   .     A
C470   H481    1.075   .     S
C470   C472    1.403   .     A
C471   C473    1.418   .     A
C471   C475    1.428   .     A
C472   C476    1.429   .     A
C472   C474    1.419   .     A
C473   C1115   1.398   .     S
C474   C1116   1.398   1_554 S
C475   C1142   1.422   .     S
C476   C1141   1.422   1_554 S
Cu477  O489    1.956   .     S
Cu477  O496    1.932   .     S
Cu477  O493    1.947   .     S
Cu477  N487    2.016   .     S
Cu477  O492    1.960   .     S
Cu477  Cu626   2.683   1_455 S
Cu478  O495    1.932   .     S
Cu478  O490    1.956   .     S
Cu478  O494    1.947   .     S
Cu478  N488    2.016   .     S
Cu478  O491    1.960   .     S
Cu478  Cu551   2.683   .     S
O489   C593    1.291   1_455 S
O490   C520    1.291   .     S
O493   C609    1.297   1_455 S
O494   C536    1.297   .     S
O497   H498    0.987   .     S
O497   C542    1.385   .     S
O499   H500    0.987   .     S
O499   C615    1.384   1_455 S
N501   H576    1.045   .     S
N501   H577    1.044   .     S
H502   N649    1.045   1_455 S
H503   N649    1.044   1_455 S
N504   H506    1.045   .     S
N504   H505    1.044   .     S
N504   C540    1.437   .     S
O507   H508    0.989   .     S
O509   H510    0.989   .     S
O511   H512    0.989   .     S
O513   H514    0.989   .     S
O515   H516    0.992   .     S
O517   H518    0.992   .     S
C519   C530    1.446   .     S
C519   O565    1.289   .     A
C519   O637    1.291   .     S
C520   C529    1.446   .     S
C520   O566    1.289   .     A
C521   H557    1.077   .     S
C521   C550    1.414   .     A
C521   C523    1.386   .     A
C522   H558    1.077   .     S
C522   C524    1.384   .     A
C522   C549    1.413   .     A
C523   H553    1.083   .     S
C523   C1213   1.398   1_554 S
C524   H554    1.083   .     S
C524   C1214   1.398   .     S
C525   C530    1.405   .     A
C525   O581    1.386   .     S
C526   O583    1.386   .     S
C526   C529    1.405   .     A
C526   C84     1.401   1_565 S
C527   O585    1.385   .     S
C527   C81     1.402   1_565 S
C527   C603    1.414   .     S
C528   O587    1.384   .     S
C530   C602    1.414   .     S
C531   O589    1.378   .     S
C531   C533    1.427   .     A
C531   N562    1.372   .     A
C532   O591    1.378   .     S
C532   C534    1.427   .     A
C532   N561    1.372   .     A
C533   H559    1.082   .     S
C533   N561    1.364   .     A
C534   N562    1.364   .     A
C534   H560    1.082   .     S
C535   O569    1.299   .     A
C535   C537    1.475   .     S
C535   O641    1.297   .     S
C536   O570    1.301   .     A
C536   C538    1.477   .     S
C537   C541    1.409   .     A
C537   C543    1.394   .     A
C538   C542    1.410   .     A
C538   C544    1.395   .     A
C539   C541    1.421   .     A
C539   C547    1.415   .     A
C539   N575    1.437   .     S
C540   C548    1.415   .     A
C540   C542    1.420   .     A
C541   O647    1.384   .     S
C543   H556    1.076   .     S
C543   C545    1.402   .     A
C544   H555    1.075   .     S
C544   C546    1.403   .     A
C545   C547    1.418   .     A
C545   C549    1.428   .     A
C546   C550    1.429   .     A
C546   C548    1.419   .     A
C547   C1189   1.398   .     S
C548   C1190   1.398   1_554 S
C549   C1216   1.422   .     S
C550   C1215   1.422   1_554 S
Cu551  O563    1.956   .     S
Cu551  O570    1.932   .     S
Cu551  O567    1.947   .     S
Cu551  N561    2.016   .     S
Cu551  O566    1.960   .     S
Cu552  O569    1.932   .     S
Cu552  O564    1.956   .     S
Cu552  O568    1.947   .     S
Cu552  N562    2.016   .     S
Cu552  O565    1.960   .     S
Cu552  Cu625   2.683   .     S
O564   C594    1.291   .     S
O568   C610    1.297   .     S
O571   H572    0.987   .     S
O571   C616    1.385   .     S
O573   H574    0.987   .     S
N575   H650    1.045   .     S
N575   H651    1.044   .     S
N578   H580    1.045   .     S
N578   H579    1.044   .     S
N578   C614    1.437   .     S
O581   H582    0.989   .     S
O583   H584    0.989   .     S
O585   H586    0.989   .     S
O587   H588    0.989   .     S
O589   H590    0.992   .     S
O591   H592    0.992   .     S
C593   C604    1.446   .     S
C593   O639    1.289   .     A
C593   O489    1.291   1_655 S
C594   C603    1.446   .     S
C594   O640    1.289   .     A
C595   H631    1.077   .     S
C595   C624    1.414   .     A
C595   C597    1.386   .     A
C596   H632    1.077   .     S
C596   C598    1.384   .     A
C596   C623    1.413   .     A
C597   H627    1.083   .     S
C597   C1287   1.398   1_554 S
C598   H628    1.083   .     S
C598   C1288   1.398   .     S
C599   C604    1.405   .     A
C599   O655    1.386   .     S
C600   O657    1.386   .     S
C600   C603    1.405   .     A
C600   C158    1.401   1_565 S
C601   O659    1.385   .     S
C601   C155    1.402   1_565 S
C601   C455    1.414   1_655 S
C602   O661    1.384   .     S
C604   C454    1.414   1_655 S
C605   O663    1.378   .     S
C605   C607    1.427   .     A
C605   N636    1.372   .     A
C606   O665    1.378   .     S
C606   C608    1.427   .     A
C606   N635    1.372   .     A
C607   H633    1.082   .     S
C607   N635    1.364   .     A
C608   N636    1.364   .     A
C608   H634    1.082   .     S
C609   O643    1.299   .     A
C609   C611    1.475   .     S
C609   O493    1.297   1_655 S
C610   O644    1.301   .     A
C610   C612    1.477   .     S
C611   C615    1.409   .     A
C611   C617    1.394   .     A
C612   C616    1.410   .     A
C612   C618    1.395   .     A
C613   C615    1.421   .     A
C613   C621    1.415   .     A
C613   N649    1.437   .     S
C614   C622    1.415   .     A
C614   C616    1.420   .     A
C615   O499    1.384   1_655 S
C617   H630    1.076   .     S
C617   C619    1.402   .     A
C618   H629    1.075   .     S
C618   C620    1.403   .     A
C619   C621    1.418   .     A
C619   C623    1.428   .     A
C620   C624    1.429   .     A
C620   C622    1.419   .     A
C621   C1263   1.398   .     S
C622   C1264   1.398   1_554 S
C623   C1290   1.422   .     S
C624   C1289   1.422   1_554 S
Cu625  O637    1.956   .     S
Cu625  O644    1.932   .     S
Cu625  O641    1.947   .     S
Cu625  N635    2.016   .     S
Cu625  O640    1.960   .     S
Cu626  O643    1.932   .     S
Cu626  O638    1.956   .     S
Cu626  O642    1.947   .     S
Cu626  N636    2.016   .     S
Cu626  O639    1.960   .     S
Cu626  Cu477   2.683   1_655 S
O638   C446    1.291   1_655 S
O642   C462    1.297   1_655 S
O645   H646    0.987   .     S
O645   C468    1.385   1_655 S
O647   H648    0.987   .     S
N649   H502    1.045   1_655 S
N649   H503    1.044   1_655 S
N652   H654    1.045   .     S
N652   H653    1.044   .     S
N652   C466    1.437   1_655 S
O655   H656    0.989   .     S
O657   H658    0.989   .     S
O659   H660    0.989   .     S
O661   H662    0.989   .     S
O663   H664    0.992   .     S
O665   H666    0.992   .     S
C667   C678    1.446   .     S
C667   O713    1.289   .     A
C667   O785    1.291   .     S
C668   C677    1.446   .     S
C668   O714    1.289   .     A
C668   O860    1.291   1_455 S
C669   H705    1.077   .     S
C669   C698    1.414   .     A
C669   C671    1.386   .     A
C670   H706    1.077   .     S
C670   C672    1.384   .     A
C670   C697    1.413   .     A
C671   H701    1.083   .     S
C672   H702    1.083   .     S
C672   C30     1.398   1_556 S
C673   C678    1.405   .     A
C673   O729    1.386   .     S
C673   C1119   1.402   1_545 S
C674   O731    1.386   .     S
C674   C677    1.405   .     A
C674   C898    1.401   .     S
C675   O733    1.385   .     S
C675   C895    1.402   .     S
C675   C751    1.414   .     S
C676   O735    1.384   .     S
C676   C1118   1.401   1_545 S
C676   C826    1.414   1_455 S
C677   C823    1.414   1_455 S
C678   C750    1.414   .     S
C679   O737    1.378   .     S
C679   C681    1.427   .     A
C679   N710    1.372   .     A
C680   O739    1.378   .     S
C680   C682    1.427   .     A
C680   N709    1.372   .     A
C681   H707    1.082   .     S
C681   N709    1.364   .     A
C682   N710    1.364   .     A
C682   H708    1.082   .     S
C683   O717    1.299   .     A
C683   C685    1.475   .     S
C683   O789    1.297   .     S
C684   O718    1.301   .     A
C684   C686    1.477   .     S
C684   O864    1.297   1_455 S
C685   C689    1.409   .     A
C685   C691    1.394   .     A
C686   C690    1.410   .     A
C686   C692    1.395   .     A
C687   C689    1.421   .     A
C687   C695    1.415   .     A
C687   N723    1.437   .     S
C688   C696    1.415   .     A
C688   C690    1.420   .     A
C688   N874    1.437   1_455 S
C689   O795    1.384   .     S
C690   O867    1.385   1_455 S
C691   H704    1.076   .     S
C691   C693    1.402   .     A
C692   H703    1.075   .     S
C692   C694    1.403   .     A
C693   C695    1.418   .     A
C693   C697    1.428   .     A
C694   C698    1.429   .     A
C694   C696    1.419   .     A
C695   C5      1.398   1_556 S
C697   C32     1.422   1_556 S
Cu699  O711    1.956   .     S
Cu699  O718    1.932   .     S
Cu699  O715    1.947   .     S
Cu699  N709    2.016   .     S
Cu699  O714    1.960   .     S
Cu699  Cu848   2.683   1_455 S
Cu700  O717    1.932   .     S
Cu700  O712    1.956   .     S
Cu700  O716    1.947   .     S
Cu700  N710    2.016   .     S
Cu700  O713    1.960   .     S
Cu700  Cu773   2.683   .     S
O711   C815    1.291   1_455 S
O712   C742    1.291   .     S
O715   C831    1.297   1_455 S
O716   C758    1.297   .     S
O719   H720    0.987   .     S
O719   C764    1.385   .     S
O721   H722    0.987   .     S
O721   C837    1.384   1_455 S
N723   H798    1.045   .     S
N723   H799    1.044   .     S
H724   N871    1.045   1_455 S
H725   N871    1.044   1_455 S
N726   H728    1.045   .     S
N726   H727    1.044   .     S
N726   C762    1.437   .     S
O729   H730    0.989   .     S
O731   H732    0.989   .     S
O733   H734    0.989   .     S
O735   H736    0.989   .     S
O737   H738    0.992   .     S
O739   H740    0.992   .     S
C741   C752    1.446   .     S
C741   O787    1.289   .     A
C741   O859    1.291   .     S
C742   C751    1.446   .     S
C742   O788    1.289   .     A
C743   H779    1.077   .     S
C743   C772    1.414   .     A
C743   C745    1.386   .     A
C744   H780    1.077   .     S
C744   C746    1.384   .     A
C744   C771    1.413   .     A
C745   H775    1.083   .     S
C746   H776    1.083   .     S
C746   C104    1.398   1_556 S
C747   C752    1.405   .     A
C747   O803    1.386   .     S
C747   C1193   1.402   1_545 S
C748   O805    1.386   .     S
C748   C751    1.405   .     A
C748   C972    1.401   .     S
C749   O807    1.385   .     S
C749   C969    1.402   .     S
C749   C825    1.414   .     S
C750   O809    1.384   .     S
C750   C1192   1.401   1_545 S
C752   C824    1.414   .     S
C753   O811    1.378   .     S
C753   C755    1.427   .     A
C753   N784    1.372   .     A
C754   O813    1.378   .     S
C754   C756    1.427   .     A
C754   N783    1.372   .     A
C755   H781    1.082   .     S
C755   N783    1.364   .     A
C756   N784    1.364   .     A
C756   H782    1.082   .     S
C757   O791    1.299   .     A
C757   C759    1.475   .     S
C757   O863    1.297   .     S
C758   O792    1.301   .     A
C758   C760    1.477   .     S
C759   C763    1.409   .     A
C759   C765    1.394   .     A
C760   C764    1.410   .     A
C760   C766    1.395   .     A
C761   C763    1.421   .     A
C761   C769    1.415   .     A
C761   N797    1.437   .     S
C762   C770    1.415   .     A
C762   C764    1.420   .     A
C763   O869    1.384   .     S
C765   H778    1.076   .     S
C765   C767    1.402   .     A
C766   H777    1.075   .     S
C766   C768    1.403   .     A
C767   C769    1.418   .     A
C767   C771    1.428   .     A
C768   C772    1.429   .     A
C768   C770    1.419   .     A
C769   C79     1.398   1_556 S
C771   C106    1.422   1_556 S
Cu773  O785    1.956   .     S
Cu773  O792    1.932   .     S
Cu773  O789    1.947   .     S
Cu773  N783    2.016   .     S
Cu773  O788    1.960   .     S
Cu774  O791    1.932   .     S
Cu774  O786    1.956   .     S
Cu774  O790    1.947   .     S
Cu774  N784    2.016   .     S
Cu774  O787    1.960   .     S
Cu774  Cu847   2.683   .     S
O786   C816    1.291   .     S
O790   C832    1.297   .     S
O793   H794    0.987   .     S
O793   C838    1.385   .     S
O795   H796    0.987   .     S
N797   H872    1.045   .     S
N797   H873    1.044   .     S
N800   H802    1.045   .     S
N800   H801    1.044   .     S
N800   C836    1.437   .     S
O803   H804    0.989   .     S
O805   H806    0.989   .     S
O807   H808    0.989   .     S
O809   H810    0.989   .     S
O811   H812    0.992   .     S
O813   H814    0.992   .     S
C815   C826    1.446   .     S
C815   O861    1.289   .     A
C815   O711    1.291   1_655 S
C816   C825    1.446   .     S
C816   O862    1.289   .     A
C817   H853    1.077   .     S
C817   C846    1.414   .     A
C817   C819    1.386   .     A
C818   H854    1.077   .     S
C818   C820    1.384   .     A
C818   C845    1.413   .     A
C819   H849    1.083   .     S
C820   H850    1.083   .     S
C820   C178    1.398   1_556 S
C821   C826    1.405   .     A
C821   O877    1.386   .     S
C821   C1267   1.402   1_545 S
C822   O879    1.386   .     S
C822   C825    1.405   .     A
C822   C1046   1.401   .     S
C823   O881    1.385   .     S
C823   C1043   1.402   .     S
C823   C677    1.414   1_655 S
C824   O883    1.384   .     S
C824   C1266   1.401   1_545 S
C826   C676    1.414   1_655 S
C827   O885    1.378   .     S
C827   C829    1.427   .     A
C827   N858    1.372   .     A
C828   O887    1.378   .     S
C828   C830    1.427   .     A
C828   N857    1.372   .     A
C829   H855    1.082   .     S
C829   N857    1.364   .     A
C830   N858    1.364   .     A
C830   H856    1.082   .     S
C831   O865    1.299   .     A
C831   C833    1.475   .     S
C831   O715    1.297   1_655 S
C832   O866    1.301   .     A
C832   C834    1.477   .     S
C833   C837    1.409   .     A
C833   C839    1.394   .     A
C834   C838    1.410   .     A
C834   C840    1.395   .     A
C835   C837    1.421   .     A
C835   C843    1.415   .     A
C835   N871    1.437   .     S
C836   C844    1.415   .     A
C836   C838    1.420   .     A
C837   O721    1.384   1_655 S
C839   H852    1.076   .     S
C839   C841    1.402   .     A
C840   H851    1.075   .     S
C840   C842    1.403   .     A
C841   C843    1.418   .     A
C841   C845    1.428   .     A
C842   C846    1.429   .     A
C842   C844    1.419   .     A
C843   C153    1.398   1_556 S
C845   C180    1.422   1_556 S
Cu847  O859    1.956   .     S
Cu847  O866    1.932   .     S
Cu847  O863    1.947   .     S
Cu847  N857    2.016   .     S
Cu847  O862    1.960   .     S
Cu848  O865    1.932   .     S
Cu848  O860    1.956   .     S
Cu848  O864    1.947   .     S
Cu848  N858    2.016   .     S
Cu848  O861    1.960   .     S
Cu848  Cu699   2.683   1_655 S
O860   C668    1.291   1_655 S
O864   C684    1.297   1_655 S
O867   H868    0.987   .     S
O867   C690    1.385   1_655 S
O869   H870    0.987   .     S
N871   H724    1.045   1_655 S
N871   H725    1.044   1_655 S
N874   H876    1.045   .     S
N874   H875    1.044   .     S
N874   C688    1.437   1_655 S
O877   H878    0.989   .     S
O879   H880    0.989   .     S
O881   H882    0.989   .     S
O883   H884    0.989   .     S
O885   H886    0.992   .     S
O887   H888    0.992   .     S
C889   C900    1.446   .     S
C889   O935    1.289   .     A
C889   O1007   1.291   .     S
C890   C899    1.446   .     S
C890   O936    1.289   .     A
C890   O1082   1.291   1_455 S
C891   H927    1.077   .     S
C891   C920    1.414   .     A
C891   C893    1.386   .     A
C892   H928    1.077   .     S
C892   C894    1.384   .     A
C892   C919    1.413   .     A
C893   H923    1.083   .     S
C894   H924    1.083   .     S
C894   C252    1.398   1_556 S
C895   C900    1.405   .     A
C895   O951    1.386   .     S
C896   O953    1.386   .     S
C896   C899    1.405   .     A
C896   C1120   1.401   .     S
C897   O955    1.385   .     S
C897   C1117   1.402   .     S
C897   C973    1.414   .     S
C898   O957    1.384   .     S
C898   C1048   1.414   1_455 S
C899   C1045   1.414   1_455 S
C900   C972    1.414   .     S
C901   O959    1.378   .     S
C901   C903    1.427   .     A
C901   N932    1.372   .     A
C902   O961    1.378   .     S
C902   C904    1.427   .     A
C902   N931    1.372   .     A
C903   H929    1.082   .     S
C903   N931    1.364   .     A
C904   N932    1.364   .     A
C904   H930    1.082   .     S
C905   O939    1.299   .     A
C905   C907    1.475   .     S
C905   O1011   1.297   .     S
C906   O940    1.301   .     A
C906   C908    1.477   .     S
C906   O1086   1.297   1_455 S
C907   C911    1.409   .     A
C907   C913    1.394   .     A
C908   C912    1.410   .     A
C908   C914    1.395   .     A
C909   C911    1.421   .     A
C909   C917    1.415   .     A
C909   N945    1.437   .     S
C910   C918    1.415   .     A
C910   C912    1.420   .     A
C910   N1096   1.437   1_455 S
C911   O1017   1.384   .     S
C912   O1089   1.385   1_455 S
C913   H926    1.076   .     S
C913   C915    1.402   .     A
C914   H925    1.075   .     S
C914   C916    1.403   .     A
C915   C917    1.418   .     A
C915   C919    1.428   .     A
C916   C920    1.429   .     A
C916   C918    1.419   .     A
C917   C227    1.398   1_556 S
C919   C254    1.422   1_556 S
Cu921  O933    1.956   .     S
Cu921  O940    1.932   .     S
Cu921  O937    1.947   .     S
Cu921  N931    2.016   .     S
Cu921  O936    1.960   .     S
Cu921  Cu1070  2.683   1_455 S
Cu922  O939    1.932   .     S
Cu922  O934    1.956   .     S
Cu922  O938    1.947   .     S
Cu922  N932    2.016   .     S
Cu922  O935    1.960   .     S
Cu922  Cu995   2.683   .     S
O933   C1037   1.291   1_455 S
O934   C964    1.291   .     S
O937   C1053   1.297   1_455 S
O938   C980    1.297   .     S
O941   H942    0.987   .     S
O941   C986    1.385   .     S
O943   H944    0.987   .     S
O943   C1059   1.384   1_455 S
N945   H1020   1.045   .     S
N945   H1021   1.044   .     S
H946   N1093   1.045   1_455 S
H947   N1093   1.044   1_455 S
N948   H950    1.045   .     S
N948   H949    1.044   .     S
N948   C984    1.437   .     S
O951   H952    0.989   .     S
O953   H954    0.989   .     S
O955   H956    0.989   .     S
O957   H958    0.989   .     S
O959   H960    0.992   .     S
O961   H962    0.992   .     S
C963   C974    1.446   .     S
C963   O1009   1.289   .     A
C963   O1081   1.291   .     S
C964   C973    1.446   .     S
C964   O1010   1.289   .     A
C965   H1001   1.077   .     S
C965   C994    1.414   .     A
C965   C967    1.386   .     A
C966   H1002   1.077   .     S
C966   C968    1.384   .     A
C966   C993    1.413   .     A
C967   H997    1.083   .     S
C968   H998    1.083   .     S
C968   C326    1.398   1_556 S
C969   C974    1.405   .     A
C969   O1025   1.386   .     S
C970   O1027   1.386   .     S
C970   C973    1.405   .     A
C970   C1194   1.401   .     S
C971   O1029   1.385   .     S
C971   C1191   1.402   .     S
C971   C1047   1.414   .     S
C972   O1031   1.384   .     S
C974   C1046   1.414   .     S
C975   O1033   1.378   .     S
C975   C977    1.427   .     A
C975   N1006   1.372   .     A
C976   O1035   1.378   .     S
C976   C978    1.427   .     A
C976   N1005   1.372   .     A
C977   H1003   1.082   .     S
C977   N1005   1.364   .     A
C978   N1006   1.364   .     A
C978   H1004   1.082   .     S
C979   O1013   1.299   .     A
C979   C981    1.475   .     S
C979   O1085   1.297   .     S
C980   O1014   1.301   .     A
C980   C982    1.477   .     S
C981   C985    1.409   .     A
C981   C987    1.394   .     A
C982   C986    1.410   .     A
C982   C988    1.395   .     A
C983   C985    1.421   .     A
C983   C991    1.415   .     A
C983   N1019   1.437   .     S
C984   C992    1.415   .     A
C984   C986    1.420   .     A
C985   O1091   1.384   .     S
C987   H1000   1.076   .     S
C987   C989    1.402   .     A
C988   H999    1.075   .     S
C988   C990    1.403   .     A
C989   C991    1.418   .     A
C989   C993    1.428   .     A
C990   C994    1.429   .     A
C990   C992    1.419   .     A
C991   C301    1.398   1_556 S
C993   C328    1.422   1_556 S
Cu995  O1007   1.956   .     S
Cu995  O1014   1.932   .     S
Cu995  O1011   1.947   .     S
Cu995  N1005   2.016   .     S
Cu995  O1010   1.960   .     S
Cu996  O1013   1.932   .     S
Cu996  O1008   1.956   .     S
Cu996  O1012   1.947   .     S
Cu996  N1006   2.016   .     S
Cu996  O1009   1.960   .     S
Cu996  Cu1069  2.683   .     S
O1008  C1038   1.291   .     S
O1012  C1054   1.297   .     S
O1015  H1016   0.987   .     S
O1015  C1060   1.385   .     S
O1017  H1018   0.987   .     S
N1019  H1094   1.045   .     S
N1019  H1095   1.044   .     S
N1022  H1024   1.045   .     S
N1022  H1023   1.044   .     S
N1022  C1058   1.437   .     S
O1025  H1026   0.989   .     S
O1027  H1028   0.989   .     S
O1029  H1030   0.989   .     S
O1031  H1032   0.989   .     S
O1033  H1034   0.992   .     S
O1035  H1036   0.992   .     S
C1037  C1048   1.446   .     S
C1037  O1083   1.289   .     A
C1037  O933    1.291   1_655 S
C1038  C1047   1.446   .     S
C1038  O1084   1.289   .     A
C1039  H1075   1.077   .     S
C1039  C1068   1.414   .     A
C1039  C1041   1.386   .     A
C1040  H1076   1.077   .     S
C1040  C1042   1.384   .     A
C1040  C1067   1.413   .     A
C1041  H1071   1.083   .     S
C1042  H1072   1.083   .     S
C1042  C400    1.398   1_556 S
C1043  C1048   1.405   .     A
C1043  O1099   1.386   .     S
C1044  O1101   1.386   .     S
C1044  C1047   1.405   .     A
C1044  C1268   1.401   .     S
C1045  O1103   1.385   .     S
C1045  C1265   1.402   .     S
C1045  C899    1.414   1_655 S
C1046  O1105   1.384   .     S
C1048  C898    1.414   1_655 S
C1049  O1107   1.378   .     S
C1049  C1051   1.427   .     A
C1049  N1080   1.372   .     A
C1050  O1109   1.378   .     S
C1050  C1052   1.427   .     A
C1050  N1079   1.372   .     A
C1051  H1077   1.082   .     S
C1051  N1079   1.364   .     A
C1052  N1080   1.364   .     A
C1052  H1078   1.082   .     S
C1053  O1087   1.299   .     A
C1053  C1055   1.475   .     S
C1053  O937    1.297   1_655 S
C1054  O1088   1.301   .     A
C1054  C1056   1.477   .     S
C1055  C1059   1.409   .     A
C1055  C1061   1.394   .     A
C1056  C1060   1.410   .     A
C1056  C1062   1.395   .     A
C1057  C1059   1.421   .     A
C1057  C1065   1.415   .     A
C1057  N1093   1.437   .     S
C1058  C1066   1.415   .     A
C1058  C1060   1.420   .     A
C1059  O943    1.384   1_655 S
C1061  H1074   1.076   .     S
C1061  C1063   1.402   .     A
C1062  H1073   1.075   .     S
C1062  C1064   1.403   .     A
C1063  C1065   1.418   .     A
C1063  C1067   1.428   .     A
C1064  C1068   1.429   .     A
C1064  C1066   1.419   .     A
C1065  C375    1.398   1_556 S
C1067  C402    1.422   1_556 S
Cu1069 O1081   1.956   .     S
Cu1069 O1088   1.932   .     S
Cu1069 O1085   1.947   .     S
Cu1069 N1079   2.016   .     S
Cu1069 O1084   1.960   .     S
Cu1070 O1087   1.932   .     S
Cu1070 O1082   1.956   .     S
Cu1070 O1086   1.947   .     S
Cu1070 N1080   2.016   .     S
Cu1070 O1083   1.960   .     S
Cu1070 Cu921   2.683   1_655 S
O1082  C890    1.291   1_655 S
O1086  C906    1.297   1_655 S
O1089  H1090   0.987   .     S
O1089  C912    1.385   1_655 S
O1091  H1092   0.987   .     S
N1093  H946    1.045   1_655 S
N1093  H947    1.044   1_655 S
N1096  H1098   1.045   .     S
N1096  H1097   1.044   .     S
N1096  C910    1.437   1_655 S
O1099  H1100   0.989   .     S
O1101  H1102   0.989   .     S
O1103  H1104   0.989   .     S
O1105  H1106   0.989   .     S
O1107  H1108   0.992   .     S
O1109  H1110   0.992   .     S
C1111  C1122   1.446   .     S
C1111  O1157   1.289   .     A
C1111  O1229   1.291   .     S
C1112  C1121   1.446   .     S
C1112  O1158   1.289   .     A
C1112  O1304   1.291   1_455 S
C1113  H1149   1.077   .     S
C1113  C1142   1.414   .     A
C1113  C1115   1.386   .     A
C1114  H1150   1.077   .     S
C1114  C1116   1.384   .     A
C1114  C1141   1.413   .     A
C1115  H1145   1.083   .     S
C1116  H1146   1.083   .     S
C1116  C474    1.398   1_556 S
C1117  C1122   1.405   .     A
C1117  O1173   1.386   .     S
C1118  O1175   1.386   .     S
C1118  C1121   1.405   .     A
C1118  C676    1.401   1_565 S
C1119  O1177   1.385   .     S
C1119  C673    1.402   1_565 S
C1119  C1195   1.414   .     S
C1120  O1179   1.384   .     S
C1120  C1270   1.414   1_455 S
C1121  C1267   1.414   1_455 S
C1122  C1194   1.414   .     S
C1123  O1181   1.378   .     S
C1123  C1125   1.427   .     A
C1123  N1154   1.372   .     A
C1124  O1183   1.378   .     S
C1124  C1126   1.427   .     A
C1124  N1153   1.372   .     A
C1125  H1151   1.082   .     S
C1125  N1153   1.364   .     A
C1126  N1154   1.364   .     A
C1126  H1152   1.082   .     S
C1127  O1161   1.299   .     A
C1127  C1129   1.475   .     S
C1127  O1233   1.297   .     S
C1128  O1162   1.301   .     A
C1128  C1130   1.477   .     S
C1128  O1308   1.297   1_455 S
C1129  C1133   1.409   .     A
C1129  C1135   1.394   .     A
C1130  C1134   1.410   .     A
C1130  C1136   1.395   .     A
C1131  C1133   1.421   .     A
C1131  C1139   1.415   .     A
C1131  N1167   1.437   .     S
C1132  C1140   1.415   .     A
C1132  C1134   1.420   .     A
C1132  N1318   1.437   1_455 S
C1133  O1239   1.384   .     S
C1134  O1311   1.385   1_455 S
C1135  H1148   1.076   .     S
C1135  C1137   1.402   .     A
C1136  H1147   1.075   .     S
C1136  C1138   1.403   .     A
C1137  C1139   1.418   .     A
C1137  C1141   1.428   .     A
C1138  C1142   1.429   .     A
C1138  C1140   1.419   .     A
C1139  C449    1.398   1_556 S
C1141  C476    1.422   1_556 S
Cu1143 O1155   1.956   .     S
Cu1143 O1162   1.932   .     S
Cu1143 O1159   1.947   .     S
Cu1143 N1153   2.016   .     S
Cu1143 O1158   1.960   .     S
Cu1143 Cu1292  2.683   1_455 S
Cu1144 O1161   1.932   .     S
Cu1144 O1156   1.956   .     S
Cu1144 O1160   1.947   .     S
Cu1144 N1154   2.016   .     S
Cu1144 O1157   1.960   .     S
Cu1144 Cu1217  2.683   .     S
O1155  C1259   1.291   1_455 S
O1156  C1186   1.291   .     S
O1159  C1275   1.297   1_455 S
O1160  C1202   1.297   .     S
O1163  H1164   0.987   .     S
O1163  C1208   1.385   .     S
O1165  H1166   0.987   .     S
O1165  C1281   1.384   1_455 S
N1167  H1242   1.045   .     S
N1167  H1243   1.044   .     S
H1168  N1315   1.045   1_455 S
H1169  N1315   1.044   1_455 S
N1170  H1172   1.045   .     S
N1170  H1171   1.044   .     S
N1170  C1206   1.437   .     S
O1173  H1174   0.989   .     S
O1175  H1176   0.989   .     S
O1177  H1178   0.989   .     S
O1179  H1180   0.989   .     S
O1181  H1182   0.992   .     S
O1183  H1184   0.992   .     S
C1185  C1196   1.446   .     S
C1185  O1231   1.289   .     A
C1185  O1303   1.291   .     S
C1186  C1195   1.446   .     S
C1186  O1232   1.289   .     A
C1187  H1223   1.077   .     S
C1187  C1216   1.414   .     A
C1187  C1189   1.386   .     A
C1188  H1224   1.077   .     S
C1188  C1190   1.384   .     A
C1188  C1215   1.413   .     A
C1189  H1219   1.083   .     S
C1190  H1220   1.083   .     S
C1190  C548    1.398   1_556 S
C1191  C1196   1.405   .     A
C1191  O1247   1.386   .     S
C1192  O1249   1.386   .     S
C1192  C1195   1.405   .     A
C1192  C750    1.401   1_565 S
C1193  O1251   1.385   .     S
C1193  C747    1.402   1_565 S
C1193  C1269   1.414   .     S
C1194  O1253   1.384   .     S
C1196  C1268   1.414   .     S
C1197  O1255   1.378   .     S
C1197  C1199   1.427   .     A
C1197  N1228   1.372   .     A
C1198  O1257   1.378   .     S
C1198  C1200   1.427   .     A
C1198  N1227   1.372   .     A
C1199  H1225   1.082   .     S
C1199  N1227   1.364   .     A
C1200  N1228   1.364   .     A
C1200  H1226   1.082   .     S
C1201  O1235   1.299   .     A
C1201  C1203   1.475   .     S
C1201  O1307   1.297   .     S
C1202  O1236   1.301   .     A
C1202  C1204   1.477   .     S
C1203  C1207   1.409   .     A
C1203  C1209   1.394   .     A
C1204  C1208   1.410   .     A
C1204  C1210   1.395   .     A
C1205  C1207   1.421   .     A
C1205  C1213   1.415   .     A
C1205  N1241   1.437   .     S
C1206  C1214   1.415   .     A
C1206  C1208   1.420   .     A
C1207  O1313   1.384   .     S
C1209  H1222   1.076   .     S
C1209  C1211   1.402   .     A
C1210  H1221   1.075   .     S
C1210  C1212   1.403   .     A
C1211  C1213   1.418   .     A
C1211  C1215   1.428   .     A
C1212  C1216   1.429   .     A
C1212  C1214   1.419   .     A
C1213  C523    1.398   1_556 S
C1215  C550    1.422   1_556 S
Cu1217 O1229   1.956   .     S
Cu1217 O1236   1.932   .     S
Cu1217 O1233   1.947   .     S
Cu1217 N1227   2.016   .     S
Cu1217 O1232   1.960   .     S
Cu1218 O1235   1.932   .     S
Cu1218 O1230   1.956   .     S
Cu1218 O1234   1.947   .     S
Cu1218 N1228   2.016   .     S
Cu1218 O1231   1.960   .     S
Cu1218 Cu1291  2.683   .     S
O1230  C1260   1.291   .     S
O1234  C1276   1.297   .     S
O1237  H1238   0.987   .     S
O1237  C1282   1.385   .     S
O1239  H1240   0.987   .     S
N1241  H1316   1.045   .     S
N1241  H1317   1.044   .     S
N1244  H1246   1.045   .     S
N1244  H1245   1.044   .     S
N1244  C1280   1.437   .     S
O1247  H1248   0.989   .     S
O1249  H1250   0.989   .     S
O1251  H1252   0.989   .     S
O1253  H1254   0.989   .     S
O1255  H1256   0.992   .     S
O1257  H1258   0.992   .     S
C1259  C1270   1.446   .     S
C1259  O1305   1.289   .     A
C1259  O1155   1.291   1_655 S
C1260  C1269   1.446   .     S
C1260  O1306   1.289   .     A
C1261  H1297   1.077   .     S
C1261  C1290   1.414   .     A
C1261  C1263   1.386   .     A
C1262  H1298   1.077   .     S
C1262  C1264   1.384   .     A
C1262  C1289   1.413   .     A
C1263  H1293   1.083   .     S
C1264  H1294   1.083   .     S
C1264  C622    1.398   1_556 S
C1265  C1270   1.405   .     A
C1265  O1321   1.386   .     S
C1266  O1323   1.386   .     S
C1266  C1269   1.405   .     A
C1266  C824    1.401   1_565 S
C1267  O1325   1.385   .     S
C1267  C821    1.402   1_565 S
C1267  C1121   1.414   1_655 S
C1268  O1327   1.384   .     S
C1270  C1120   1.414   1_655 S
C1271  O1329   1.378   .     S
C1271  C1273   1.427   .     A
C1271  N1302   1.372   .     A
C1272  O1331   1.378   .     S
C1272  C1274   1.427   .     A
C1272  N1301   1.372   .     A
C1273  H1299   1.082   .     S
C1273  N1301   1.364   .     A
C1274  N1302   1.364   .     A
C1274  H1300   1.082   .     S
C1275  O1309   1.299   .     A
C1275  C1277   1.475   .     S
C1275  O1159   1.297   1_655 S
C1276  O1310   1.301   .     A
C1276  C1278   1.477   .     S
C1277  C1281   1.409   .     A
C1277  C1283   1.394   .     A
C1278  C1282   1.410   .     A
C1278  C1284   1.395   .     A
C1279  C1281   1.421   .     A
C1279  C1287   1.415   .     A
C1279  N1315   1.437   .     S
C1280  C1288   1.415   .     A
C1280  C1282   1.420   .     A
C1281  O1165   1.384   1_655 S
C1283  H1296   1.076   .     S
C1283  C1285   1.402   .     A
C1284  H1295   1.075   .     S
C1284  C1286   1.403   .     A
C1285  C1287   1.418   .     A
C1285  C1289   1.428   .     A
C1286  C1290   1.429   .     A
C1286  C1288   1.419   .     A
C1287  C597    1.398   1_556 S
C1289  C624    1.422   1_556 S
Cu1291 O1303   1.956   .     S
Cu1291 O1310   1.932   .     S
Cu1291 O1307   1.947   .     S
Cu1291 N1301   2.016   .     S
Cu1291 O1306   1.960   .     S
Cu1292 O1309   1.932   .     S
Cu1292 O1304   1.956   .     S
Cu1292 O1308   1.947   .     S
Cu1292 N1302   2.016   .     S
Cu1292 O1305   1.960   .     S
Cu1292 Cu1143  2.683   1_655 S
O1304  C1112   1.291   1_655 S
O1308  C1128   1.297   1_655 S
O1311  H1312   0.987   .     S
O1311  C1134   1.385   1_655 S
O1313  H1314   0.987   .     S
N1315  H1168   1.045   1_655 S
N1315  H1169   1.044   1_655 S
N1318  H1320   1.045   .     S
N1318  H1319   1.044   .     S
N1318  C1132   1.437   1_655 S
O1321  H1322   0.989   .     S
O1323  H1324   0.989   .     S
O1325  H1326   0.989   .     S
O1327  H1328   0.989   .     S
O1329  H1330   0.992   .     S
O1331  H1332   0.992   .     S
