data_str_m3_o10_o17_pcu_sym.56
_audit_creation_date              2020-01-03
_audit_creation_method            'Materials Studio'
_symmetry_space_group_name_H-M    'P1'
_symmetry_Int_Tables_number       1
_symmetry_cell_setting            triclinic
loop_
_symmetry_equiv_pos_as_xyz
  x,y,z
_cell_length_a                    23.4925
_cell_length_b                    25.7294
_cell_length_c                    29.7760
_cell_angle_alpha                 90.5377
_cell_angle_beta                  87.1147
_cell_angle_gamma                 92.5762
loop_
_atom_site_label
_atom_site_type_symbol
_atom_site_fract_x
_atom_site_fract_y
_atom_site_fract_z
_atom_site_U_iso_or_equiv
_atom_site_adp_type
_atom_site_occupancy
C1     C     0.18155   0.26471   0.24813   0.00000  Uiso   1.00
C2     C     0.21105   0.18919   0.40496   0.00000  Uiso   1.00
C3     C     0.16342   0.17332   0.11615   0.00000  Uiso   1.00
C4     C     0.17041   0.15825   0.38389   0.00000  Uiso   1.00
C5     C     0.20277   0.20606   0.09150   0.00000  Uiso   1.00
C6     C     0.13406   0.12227   0.40802   0.00000  Uiso   1.00
C7     C     0.20862   0.19813   0.04481   0.00000  Uiso   1.00
C8     C     0.13115   0.12619   0.45527   0.00000  Uiso   1.00
C9     C     0.16866   0.16452   0.02354   0.00000  Uiso   1.00
C10    C     0.17078   0.16012   0.47668   0.00000  Uiso   1.00
C11    C     0.12662   0.13531   0.04911   0.00000  Uiso   1.00
C12    C     0.15168   0.06862   0.24998   0.00000  Uiso   1.00
C13    C     0.21283   0.18950   0.45122   0.00000  Uiso   1.00
C14    C     0.25382   0.22215   0.01902   0.00000  Uiso   1.00
C15    C     0.09049   0.09653   0.48158   0.00000  Uiso   1.00
C16    C     0.23328   0.25209   0.11432   0.00000  Uiso   1.00
C17    C     0.21792   0.30433   0.09396   0.00000  Uiso   1.00
C18    C     0.22171   0.01620   0.12760   0.00000  Uiso   1.00
C19    C     0.10471   0.07654   0.38408   0.00000  Uiso   1.00
C20    C     0.12816   0.02435   0.39865   0.00000  Uiso   1.00
C21    C     0.14732   0.32392   0.35882   0.00000  Uiso   1.00
C22    C     0.30554   0.29664   0.45356   0.00000  Uiso   1.00
C23    C     0.25502   0.21980   0.47222   0.00000  Uiso   1.00
C24    C     0.29227   0.32502   0.41062   0.00000  Uiso   1.00
C25    C     0.32469   0.30515   0.36840   0.00000  Uiso   1.00
C26    C     0.07814   0.02454   0.06766   0.00000  Uiso   1.00
C27    C     0.04056   0.33073   0.10427   0.00000  Uiso   1.00
C28    C     0.06635   0.28209   0.12218   0.00000  Uiso   1.00
C29    C     0.08920   0.09971   0.02815   0.00000  Uiso   1.00
C30    C     0.18947   0.31902   0.24611   0.00000  Uiso   1.00
C31    C     0.14364   0.01427   0.24820   0.00000  Uiso   1.00
C32    C     0.16767   0.16424   0.33630   0.00000  Uiso   1.00
C33    C     0.16568   0.16896   0.16376   0.00000  Uiso   1.00
C34    C     0.12435   0.14041   0.09542   0.00000  Uiso   1.00
H35    H     0.09345   0.11736   0.11597   0.00000  Uiso   1.00
H36    H     0.26244   0.01671   0.14487   0.00000  Uiso   1.00
H37    H     0.21892   0.05368   0.10980   0.00000  Uiso   1.00
H38    H     0.24611   0.31418   0.06406   0.00000  Uiso   1.00
H39    H     0.17434   0.30079   0.08170   0.00000  Uiso   1.00
H40    H     0.22160   0.25359   0.15080   0.00000  Uiso   1.00
H41    H     0.27981   0.24706   0.11148   0.00000  Uiso   1.00
H42    H     0.11229   0.31745   0.33556   0.00000  Uiso   1.00
H43    H     0.18481   0.00981   0.34059   0.00000  Uiso   1.00
H44    H     0.15952   0.28551   0.37092   0.00000  Uiso   1.00
H45    H     0.16491   0.03092   0.42038   0.00000  Uiso   1.00
H46    H     0.24040   0.21409   0.38490   0.00000  Uiso   1.00
H47    H     0.09495   0.00222   0.41911   0.00000  Uiso   1.00
H48    H     0.05800   0.07695   0.39140   0.00000  Uiso   1.00
H49    H     0.11005   0.07979   0.34706   0.00000  Uiso   1.00
H50    H     0.01657   0.30703   0.46241   0.00000  Uiso   1.00
H51    H     0.27738   0.31189   0.48149   0.00000  Uiso   1.00
H52    H     0.24604   0.31999   0.40582   0.00000  Uiso   1.00
H53    H     0.30236   0.03392   0.41529   0.00000  Uiso   1.00
H54    H     0.03010   0.28505   0.37692   0.00000  Uiso   1.00
H55    H     0.00384   0.00481   0.34567   0.00000  Uiso   1.00
H56    H     0.29721   0.27732   0.34963   0.00000  Uiso   1.00
H57    H     0.28887   0.24262   0.03472   0.00000  Uiso   1.00
H58    H     0.11950   0.03584   0.08230   0.00000  Uiso   1.00
H59    H     0.08555   0.33050   0.03897   0.00000  Uiso   1.00
H60    H     0.03234   0.02494   0.13260   0.00000  Uiso   1.00
H61    H     0.33330   0.31927   0.08943   0.00000  Uiso   1.00
H62    H     0.07733   0.25490   0.09420   0.00000  Uiso   1.00
H63    H     0.03513   0.26191   0.14602   0.00000  Uiso   1.00
H64    H     0.10476   0.29268   0.14093   0.00000  Uiso   1.00
H65    H     0.05922   0.07056   0.46668   0.00000  Uiso   1.00
H66    H     0.23303   0.00207   0.24407   0.00000  Uiso   1.00
H67    H     0.10009   0.33120   0.24997   0.00000  Uiso   1.00
H68    H     0.00437   0.12783   0.21602   0.00000  Uiso   1.00
H69    H     0.32896   0.20552   0.28397   0.00000  Uiso   1.00
H70    H     0.18600   0.01280   0.15329   0.00000  Uiso   1.00
N71    N     0.31678   0.15265   0.23783   0.00000  Uiso   1.00
N72    N     0.01656   0.18068   0.26217   0.00000  Uiso   1.00
O73    O     0.12975   0.24619   0.25299   0.00000  Uiso   1.00
O74    O     0.05016   0.06839   0.05293   0.00000  Uiso   1.00
O75    O     0.20358   0.08714   0.24702   0.00000  Uiso   1.00
O76    O     0.22613   0.23721   0.24519   0.00000  Uiso   1.00
O77    O     0.10720   0.09613   0.25482   0.00000  Uiso   1.00
O78    O     0.11847   0.17117   0.31998   0.00000  Uiso   1.00
O79    O     0.21486   0.16216   0.18003   0.00000  Uiso   1.00
O80    O     0.21485   0.16219   0.31218   0.00000  Uiso   1.00
O81    O     0.11848   0.17115   0.18783   0.00000  Uiso   1.00
O82    O     0.30061   0.24207   0.44674   0.00000  Uiso   1.00
Zn83   Zn    0.10231   0.17266   0.25521   0.00000  Uiso   1.00
Zn84   Zn    0.23102   0.16067   0.24479   0.00000  Uiso   1.00
C85    C     0.51488   0.26471   0.24813   0.00000  Uiso   1.00
C86    C     0.54438   0.18919   0.40496   0.00000  Uiso   1.00
C87    C     0.49676   0.17332   0.11615   0.00000  Uiso   1.00
C88    C     0.50374   0.15825   0.38389   0.00000  Uiso   1.00
C89    C     0.53611   0.20606   0.09150   0.00000  Uiso   1.00
C90    C     0.46739   0.12227   0.40802   0.00000  Uiso   1.00
C91    C     0.54196   0.19813   0.04481   0.00000  Uiso   1.00
C92    C     0.46449   0.12619   0.45527   0.00000  Uiso   1.00
C93    C     0.50200   0.16452   0.02354   0.00000  Uiso   1.00
C94    C     0.50411   0.16012   0.47668   0.00000  Uiso   1.00
C95    C     0.45996   0.13531   0.04911   0.00000  Uiso   1.00
C96    C     0.48502   0.06862   0.24998   0.00000  Uiso   1.00
C97    C     0.54616   0.18950   0.45122   0.00000  Uiso   1.00
C98    C     0.58716   0.22215   0.01902   0.00000  Uiso   1.00
C99    C     0.42382   0.09653   0.48158   0.00000  Uiso   1.00
C100   C     0.56661   0.25209   0.11432   0.00000  Uiso   1.00
C101   C     0.55125   0.30433   0.09396   0.00000  Uiso   1.00
C102   C     0.55504   0.01620   0.12760   0.00000  Uiso   1.00
C103   C     0.43805   0.07654   0.38408   0.00000  Uiso   1.00
C104   C     0.46149   0.02435   0.39865   0.00000  Uiso   1.00
C105   C     0.48065   0.32392   0.35882   0.00000  Uiso   1.00
C106   C     0.63887   0.29664   0.45356   0.00000  Uiso   1.00
C107   C     0.58836   0.21980   0.47222   0.00000  Uiso   1.00
C108   C     0.62560   0.32502   0.41062   0.00000  Uiso   1.00
C109   C     0.65803   0.30515   0.36840   0.00000  Uiso   1.00
C110   C     0.41148   0.02454   0.06766   0.00000  Uiso   1.00
C111   C     0.37389   0.33073   0.10427   0.00000  Uiso   1.00
C112   C     0.39968   0.28209   0.12218   0.00000  Uiso   1.00
C113   C     0.42253   0.09971   0.02815   0.00000  Uiso   1.00
C114   C     0.52281   0.31902   0.24611   0.00000  Uiso   1.00
C115   C     0.47698   0.01427   0.24820   0.00000  Uiso   1.00
C116   C     0.50100   0.16424   0.33630   0.00000  Uiso   1.00
C117   C     0.49902   0.16896   0.16376   0.00000  Uiso   1.00
C118   C     0.45769   0.14041   0.09542   0.00000  Uiso   1.00
H119   H     0.42678   0.11736   0.11597   0.00000  Uiso   1.00
H120   H     0.59577   0.01671   0.14487   0.00000  Uiso   1.00
H121   H     0.55225   0.05368   0.10980   0.00000  Uiso   1.00
H122   H     0.57944   0.31418   0.06406   0.00000  Uiso   1.00
H123   H     0.50768   0.30079   0.08170   0.00000  Uiso   1.00
H124   H     0.55493   0.25359   0.15080   0.00000  Uiso   1.00
H125   H     0.61315   0.24706   0.11148   0.00000  Uiso   1.00
H126   H     0.44563   0.31745   0.33556   0.00000  Uiso   1.00
H127   H     0.51814   0.00981   0.34059   0.00000  Uiso   1.00
H128   H     0.49285   0.28551   0.37092   0.00000  Uiso   1.00
H129   H     0.49824   0.03092   0.42038   0.00000  Uiso   1.00
H130   H     0.57374   0.21409   0.38490   0.00000  Uiso   1.00
H131   H     0.42828   0.00222   0.41911   0.00000  Uiso   1.00
H132   H     0.39133   0.07695   0.39140   0.00000  Uiso   1.00
H133   H     0.44338   0.07979   0.34706   0.00000  Uiso   1.00
H134   H     0.34991   0.30703   0.46241   0.00000  Uiso   1.00
H135   H     0.61071   0.31189   0.48149   0.00000  Uiso   1.00
H136   H     0.57937   0.31999   0.40582   0.00000  Uiso   1.00
H137   H     0.63570   0.03392   0.41529   0.00000  Uiso   1.00
H138   H     0.36343   0.28505   0.37692   0.00000  Uiso   1.00
H139   H     0.33718   0.00481   0.34567   0.00000  Uiso   1.00
H140   H     0.63054   0.27732   0.34963   0.00000  Uiso   1.00
H141   H     0.62220   0.24262   0.03472   0.00000  Uiso   1.00
H142   H     0.45283   0.03584   0.08230   0.00000  Uiso   1.00
H143   H     0.41889   0.33050   0.03897   0.00000  Uiso   1.00
H144   H     0.36567   0.02494   0.13260   0.00000  Uiso   1.00
H145   H     0.66663   0.31927   0.08943   0.00000  Uiso   1.00
H146   H     0.41066   0.25490   0.09420   0.00000  Uiso   1.00
H147   H     0.36847   0.26191   0.14602   0.00000  Uiso   1.00
H148   H     0.43809   0.29268   0.14093   0.00000  Uiso   1.00
H149   H     0.39255   0.07056   0.46668   0.00000  Uiso   1.00
H150   H     0.56636   0.00207   0.24407   0.00000  Uiso   1.00
H151   H     0.43343   0.33120   0.24997   0.00000  Uiso   1.00
H152   H     0.33771   0.12783   0.21602   0.00000  Uiso   1.00
H153   H     0.66230   0.20552   0.28397   0.00000  Uiso   1.00
H154   H     0.51933   0.01280   0.15329   0.00000  Uiso   1.00
N155   N     0.65011   0.15265   0.23783   0.00000  Uiso   1.00
N156   N     0.34989   0.18068   0.26217   0.00000  Uiso   1.00
O157   O     0.46308   0.24619   0.25299   0.00000  Uiso   1.00
O158   O     0.38349   0.06839   0.05293   0.00000  Uiso   1.00
O159   O     0.53692   0.08714   0.24702   0.00000  Uiso   1.00
O160   O     0.55946   0.23721   0.24519   0.00000  Uiso   1.00
O161   O     0.44054   0.09613   0.25482   0.00000  Uiso   1.00
O162   O     0.45181   0.17117   0.31998   0.00000  Uiso   1.00
O163   O     0.54819   0.16216   0.18003   0.00000  Uiso   1.00
O164   O     0.54819   0.16219   0.31218   0.00000  Uiso   1.00
O165   O     0.45181   0.17115   0.18783   0.00000  Uiso   1.00
O166   O     0.63394   0.24207   0.44674   0.00000  Uiso   1.00
Zn167  Zn    0.43565   0.17266   0.25521   0.00000  Uiso   1.00
Zn168  Zn    0.56435   0.16067   0.24479   0.00000  Uiso   1.00
C169   C     0.84821   0.26471   0.24813   0.00000  Uiso   1.00
C170   C     0.87771   0.18919   0.40496   0.00000  Uiso   1.00
C171   C     0.83009   0.17332   0.11615   0.00000  Uiso   1.00
C172   C     0.83707   0.15825   0.38389   0.00000  Uiso   1.00
C173   C     0.86944   0.20606   0.09150   0.00000  Uiso   1.00
C174   C     0.80073   0.12227   0.40802   0.00000  Uiso   1.00
C175   C     0.87529   0.19813   0.04481   0.00000  Uiso   1.00
C176   C     0.79782   0.12619   0.45527   0.00000  Uiso   1.00
C177   C     0.83533   0.16452   0.02354   0.00000  Uiso   1.00
C178   C     0.83745   0.16012   0.47668   0.00000  Uiso   1.00
C179   C     0.79329   0.13531   0.04911   0.00000  Uiso   1.00
C180   C     0.81835   0.06862   0.24998   0.00000  Uiso   1.00
C181   C     0.87949   0.18950   0.45122   0.00000  Uiso   1.00
C182   C     0.92049   0.22215   0.01902   0.00000  Uiso   1.00
C183   C     0.75716   0.09653   0.48158   0.00000  Uiso   1.00
C184   C     0.89994   0.25209   0.11432   0.00000  Uiso   1.00
C185   C     0.88458   0.30433   0.09396   0.00000  Uiso   1.00
C186   C     0.88837   0.01620   0.12760   0.00000  Uiso   1.00
C187   C     0.77138   0.07654   0.38408   0.00000  Uiso   1.00
C188   C     0.79483   0.02435   0.39865   0.00000  Uiso   1.00
C189   C     0.81399   0.32392   0.35882   0.00000  Uiso   1.00
C190   C     0.97221   0.29664   0.45356   0.00000  Uiso   1.00
C191   C     0.92169   0.21980   0.47222   0.00000  Uiso   1.00
C192   C     0.95893   0.32502   0.41062   0.00000  Uiso   1.00
C193   C     0.99136   0.30515   0.36840   0.00000  Uiso   1.00
C194   C     0.74481   0.02454   0.06766   0.00000  Uiso   1.00
C195   C     0.70723   0.33073   0.10427   0.00000  Uiso   1.00
C196   C     0.73302   0.28209   0.12218   0.00000  Uiso   1.00
C197   C     0.75586   0.09971   0.02815   0.00000  Uiso   1.00
C198   C     0.85614   0.31902   0.24611   0.00000  Uiso   1.00
C199   C     0.81031   0.01427   0.24820   0.00000  Uiso   1.00
C200   C     0.83434   0.16424   0.33630   0.00000  Uiso   1.00
C201   C     0.83235   0.16896   0.16376   0.00000  Uiso   1.00
C202   C     0.79102   0.14041   0.09542   0.00000  Uiso   1.00
H203   H     0.76012   0.11736   0.11597   0.00000  Uiso   1.00
H204   H     0.92911   0.01671   0.14487   0.00000  Uiso   1.00
H205   H     0.88559   0.05368   0.10980   0.00000  Uiso   1.00
H206   H     0.91277   0.31418   0.06406   0.00000  Uiso   1.00
H207   H     0.84101   0.30079   0.08170   0.00000  Uiso   1.00
H208   H     0.88826   0.25359   0.15080   0.00000  Uiso   1.00
H209   H     0.94648   0.24706   0.11148   0.00000  Uiso   1.00
H210   H     0.77896   0.31745   0.33556   0.00000  Uiso   1.00
H211   H     0.85148   0.00981   0.34059   0.00000  Uiso   1.00
H212   H     0.82619   0.28551   0.37092   0.00000  Uiso   1.00
H213   H     0.83157   0.03092   0.42038   0.00000  Uiso   1.00
H214   H     0.90707   0.21409   0.38490   0.00000  Uiso   1.00
H215   H     0.76162   0.00222   0.41911   0.00000  Uiso   1.00
H216   H     0.72467   0.07695   0.39140   0.00000  Uiso   1.00
H217   H     0.77671   0.07979   0.34706   0.00000  Uiso   1.00
H218   H     0.68324   0.30703   0.46241   0.00000  Uiso   1.00
H219   H     0.94405   0.31189   0.48149   0.00000  Uiso   1.00
H220   H     0.91271   0.31999   0.40582   0.00000  Uiso   1.00
H221   H     0.96903   0.03392   0.41529   0.00000  Uiso   1.00
H222   H     0.69676   0.28505   0.37692   0.00000  Uiso   1.00
H223   H     0.67051   0.00481   0.34567   0.00000  Uiso   1.00
H224   H     0.96387   0.27732   0.34963   0.00000  Uiso   1.00
H225   H     0.95554   0.24262   0.03472   0.00000  Uiso   1.00
H226   H     0.78617   0.03584   0.08230   0.00000  Uiso   1.00
H227   H     0.75222   0.33050   0.03897   0.00000  Uiso   1.00
H228   H     0.69900   0.02494   0.13260   0.00000  Uiso   1.00
H229   H     0.99997   0.31927   0.08943   0.00000  Uiso   1.00
H230   H     0.74399   0.25490   0.09420   0.00000  Uiso   1.00
H231   H     0.70180   0.26191   0.14602   0.00000  Uiso   1.00
H232   H     0.77143   0.29268   0.14093   0.00000  Uiso   1.00
H233   H     0.72588   0.07056   0.46668   0.00000  Uiso   1.00
H234   H     0.89969   0.00207   0.24407   0.00000  Uiso   1.00
H235   H     0.76676   0.33120   0.24997   0.00000  Uiso   1.00
H236   H     0.67104   0.12783   0.21602   0.00000  Uiso   1.00
H237   H     0.99563   0.20552   0.28397   0.00000  Uiso   1.00
H238   H     0.85266   0.01280   0.15329   0.00000  Uiso   1.00
N239   N     0.98344   0.15265   0.23783   0.00000  Uiso   1.00
N240   N     0.68322   0.18068   0.26217   0.00000  Uiso   1.00
O241   O     0.79642   0.24619   0.25299   0.00000  Uiso   1.00
O242   O     0.71682   0.06839   0.05293   0.00000  Uiso   1.00
O243   O     0.87025   0.08714   0.24702   0.00000  Uiso   1.00
O244   O     0.89280   0.23721   0.24519   0.00000  Uiso   1.00
O245   O     0.77387   0.09613   0.25482   0.00000  Uiso   1.00
O246   O     0.78514   0.17117   0.31998   0.00000  Uiso   1.00
O247   O     0.88153   0.16216   0.18003   0.00000  Uiso   1.00
O248   O     0.88152   0.16219   0.31218   0.00000  Uiso   1.00
O249   O     0.78515   0.17115   0.18783   0.00000  Uiso   1.00
O250   O     0.96727   0.24207   0.44674   0.00000  Uiso   1.00
Zn251  Zn    0.76898   0.17266   0.25521   0.00000  Uiso   1.00
Zn252  Zn    0.89769   0.16067   0.24479   0.00000  Uiso   1.00
C253   C     0.18155   0.59804   0.24813   0.00000  Uiso   1.00
C254   C     0.21105   0.52252   0.40496   0.00000  Uiso   1.00
C255   C     0.16342   0.50665   0.11615   0.00000  Uiso   1.00
C256   C     0.17041   0.49159   0.38389   0.00000  Uiso   1.00
C257   C     0.20277   0.53939   0.09150   0.00000  Uiso   1.00
C258   C     0.13406   0.45560   0.40802   0.00000  Uiso   1.00
C259   C     0.20862   0.53146   0.04481   0.00000  Uiso   1.00
C260   C     0.13115   0.45952   0.45527   0.00000  Uiso   1.00
C261   C     0.16866   0.49785   0.02354   0.00000  Uiso   1.00
C262   C     0.17078   0.49345   0.47668   0.00000  Uiso   1.00
C263   C     0.12662   0.46864   0.04911   0.00000  Uiso   1.00
C264   C     0.15168   0.40195   0.24998   0.00000  Uiso   1.00
C265   C     0.21283   0.52283   0.45122   0.00000  Uiso   1.00
C266   C     0.25382   0.55549   0.01902   0.00000  Uiso   1.00
C267   C     0.09049   0.42987   0.48158   0.00000  Uiso   1.00
C268   C     0.23328   0.58542   0.11432   0.00000  Uiso   1.00
C269   C     0.21792   0.63767   0.09396   0.00000  Uiso   1.00
C270   C     0.22171   0.34954   0.12760   0.00000  Uiso   1.00
C271   C     0.10471   0.40987   0.38408   0.00000  Uiso   1.00
C272   C     0.12816   0.35768   0.39865   0.00000  Uiso   1.00
C273   C     0.14732   0.65726   0.35882   0.00000  Uiso   1.00
C274   C     0.30554   0.62998   0.45356   0.00000  Uiso   1.00
C275   C     0.25502   0.55313   0.47222   0.00000  Uiso   1.00
C276   C     0.29227   0.65835   0.41062   0.00000  Uiso   1.00
C277   C     0.32469   0.63849   0.36840   0.00000  Uiso   1.00
C278   C     0.07814   0.35787   0.06766   0.00000  Uiso   1.00
C279   C     0.04056   0.66406   0.10427   0.00000  Uiso   1.00
C280   C     0.06635   0.61543   0.12218   0.00000  Uiso   1.00
C281   C     0.08920   0.43304   0.02815   0.00000  Uiso   1.00
C282   C     0.18947   0.65236   0.24611   0.00000  Uiso   1.00
C283   C     0.14364   0.34760   0.24820   0.00000  Uiso   1.00
C284   C     0.16767   0.49757   0.33630   0.00000  Uiso   1.00
C285   C     0.16568   0.50230   0.16376   0.00000  Uiso   1.00
C286   C     0.12435   0.47374   0.09542   0.00000  Uiso   1.00
H287   H     0.09345   0.45069   0.11597   0.00000  Uiso   1.00
H288   H     0.26244   0.35004   0.14487   0.00000  Uiso   1.00
H289   H     0.21892   0.38701   0.10980   0.00000  Uiso   1.00
H290   H     0.24611   0.64751   0.06406   0.00000  Uiso   1.00
H291   H     0.17434   0.63413   0.08170   0.00000  Uiso   1.00
H292   H     0.22160   0.58692   0.15080   0.00000  Uiso   1.00
H293   H     0.27981   0.58039   0.11148   0.00000  Uiso   1.00
H294   H     0.11229   0.65078   0.33556   0.00000  Uiso   1.00
H295   H     0.18481   0.34314   0.34059   0.00000  Uiso   1.00
H296   H     0.15952   0.61884   0.37092   0.00000  Uiso   1.00
H297   H     0.16491   0.36426   0.42038   0.00000  Uiso   1.00
H298   H     0.24040   0.54742   0.38490   0.00000  Uiso   1.00
H299   H     0.09495   0.33555   0.41911   0.00000  Uiso   1.00
H300   H     0.05800   0.41028   0.39140   0.00000  Uiso   1.00
H301   H     0.11005   0.41312   0.34706   0.00000  Uiso   1.00
H302   H     0.01657   0.64036   0.46241   0.00000  Uiso   1.00
H303   H     0.27738   0.64522   0.48149   0.00000  Uiso   1.00
H304   H     0.24604   0.65332   0.40582   0.00000  Uiso   1.00
H305   H     0.30236   0.36726   0.41529   0.00000  Uiso   1.00
H306   H     0.03010   0.61839   0.37692   0.00000  Uiso   1.00
H307   H     0.00384   0.33815   0.34567   0.00000  Uiso   1.00
H308   H     0.29721   0.61065   0.34963   0.00000  Uiso   1.00
H309   H     0.28887   0.57595   0.03472   0.00000  Uiso   1.00
H310   H     0.11950   0.36917   0.08230   0.00000  Uiso   1.00
H311   H     0.08555   0.66384   0.03897   0.00000  Uiso   1.00
H312   H     0.03234   0.35827   0.13260   0.00000  Uiso   1.00
H313   H     0.33330   0.65261   0.08943   0.00000  Uiso   1.00
H314   H     0.07733   0.58823   0.09420   0.00000  Uiso   1.00
H315   H     0.03513   0.59525   0.14602   0.00000  Uiso   1.00
H316   H     0.10476   0.62602   0.14093   0.00000  Uiso   1.00
H317   H     0.05922   0.40389   0.46668   0.00000  Uiso   1.00
H318   H     0.23303   0.33540   0.24407   0.00000  Uiso   1.00
H319   H     0.10009   0.66453   0.24997   0.00000  Uiso   1.00
H320   H     0.00437   0.46117   0.21602   0.00000  Uiso   1.00
H321   H     0.32896   0.53885   0.28397   0.00000  Uiso   1.00
H322   H     0.18600   0.34613   0.15329   0.00000  Uiso   1.00
N323   N     0.31678   0.48598   0.23783   0.00000  Uiso   1.00
N324   N     0.01656   0.51402   0.26217   0.00000  Uiso   1.00
O325   O     0.12975   0.57952   0.25299   0.00000  Uiso   1.00
O326   O     0.05016   0.40172   0.05293   0.00000  Uiso   1.00
O327   O     0.20358   0.42048   0.24702   0.00000  Uiso   1.00
O328   O     0.22613   0.57054   0.24519   0.00000  Uiso   1.00
O329   O     0.10720   0.42946   0.25482   0.00000  Uiso   1.00
O330   O     0.11847   0.50450   0.31998   0.00000  Uiso   1.00
O331   O     0.21486   0.49550   0.18003   0.00000  Uiso   1.00
O332   O     0.21485   0.49552   0.31218   0.00000  Uiso   1.00
O333   O     0.11848   0.50448   0.18783   0.00000  Uiso   1.00
O334   O     0.30061   0.57541   0.44674   0.00000  Uiso   1.00
Zn335  Zn    0.10231   0.50600   0.25521   0.00000  Uiso   1.00
Zn336  Zn    0.23102   0.49400   0.24479   0.00000  Uiso   1.00
C337   C     0.51488   0.59804   0.24813   0.00000  Uiso   1.00
C338   C     0.54438   0.52252   0.40496   0.00000  Uiso   1.00
C339   C     0.49676   0.50665   0.11615   0.00000  Uiso   1.00
C340   C     0.50374   0.49159   0.38389   0.00000  Uiso   1.00
C341   C     0.53611   0.53939   0.09150   0.00000  Uiso   1.00
C342   C     0.46739   0.45560   0.40802   0.00000  Uiso   1.00
C343   C     0.54196   0.53146   0.04481   0.00000  Uiso   1.00
C344   C     0.46449   0.45952   0.45527   0.00000  Uiso   1.00
C345   C     0.50200   0.49785   0.02354   0.00000  Uiso   1.00
C346   C     0.50411   0.49345   0.47668   0.00000  Uiso   1.00
C347   C     0.45996   0.46864   0.04911   0.00000  Uiso   1.00
C348   C     0.48502   0.40195   0.24998   0.00000  Uiso   1.00
C349   C     0.54616   0.52283   0.45122   0.00000  Uiso   1.00
C350   C     0.58716   0.55549   0.01902   0.00000  Uiso   1.00
C351   C     0.42382   0.42987   0.48158   0.00000  Uiso   1.00
C352   C     0.56661   0.58542   0.11432   0.00000  Uiso   1.00
C353   C     0.55125   0.63767   0.09396   0.00000  Uiso   1.00
C354   C     0.55504   0.34954   0.12760   0.00000  Uiso   1.00
C355   C     0.43805   0.40987   0.38408   0.00000  Uiso   1.00
C356   C     0.46149   0.35768   0.39865   0.00000  Uiso   1.00
C357   C     0.48065   0.65726   0.35882   0.00000  Uiso   1.00
C358   C     0.63887   0.62998   0.45356   0.00000  Uiso   1.00
C359   C     0.58836   0.55313   0.47222   0.00000  Uiso   1.00
C360   C     0.62560   0.65835   0.41062   0.00000  Uiso   1.00
C361   C     0.65803   0.63849   0.36840   0.00000  Uiso   1.00
C362   C     0.41148   0.35787   0.06766   0.00000  Uiso   1.00
C363   C     0.37389   0.66406   0.10427   0.00000  Uiso   1.00
C364   C     0.39968   0.61543   0.12218   0.00000  Uiso   1.00
C365   C     0.42253   0.43304   0.02815   0.00000  Uiso   1.00
C366   C     0.52281   0.65236   0.24611   0.00000  Uiso   1.00
C367   C     0.47698   0.34760   0.24820   0.00000  Uiso   1.00
C368   C     0.50100   0.49757   0.33630   0.00000  Uiso   1.00
C369   C     0.49902   0.50230   0.16376   0.00000  Uiso   1.00
C370   C     0.45769   0.47374   0.09542   0.00000  Uiso   1.00
H371   H     0.42678   0.45069   0.11597   0.00000  Uiso   1.00
H372   H     0.59577   0.35004   0.14487   0.00000  Uiso   1.00
H373   H     0.55225   0.38701   0.10980   0.00000  Uiso   1.00
H374   H     0.57944   0.64751   0.06406   0.00000  Uiso   1.00
H375   H     0.50768   0.63413   0.08170   0.00000  Uiso   1.00
H376   H     0.55493   0.58692   0.15080   0.00000  Uiso   1.00
H377   H     0.61315   0.58039   0.11148   0.00000  Uiso   1.00
H378   H     0.44563   0.65078   0.33556   0.00000  Uiso   1.00
H379   H     0.51814   0.34314   0.34059   0.00000  Uiso   1.00
H380   H     0.49285   0.61884   0.37092   0.00000  Uiso   1.00
H381   H     0.49824   0.36426   0.42038   0.00000  Uiso   1.00
H382   H     0.57374   0.54742   0.38490   0.00000  Uiso   1.00
H383   H     0.42828   0.33555   0.41911   0.00000  Uiso   1.00
H384   H     0.39133   0.41028   0.39140   0.00000  Uiso   1.00
H385   H     0.44338   0.41312   0.34706   0.00000  Uiso   1.00
H386   H     0.34991   0.64036   0.46241   0.00000  Uiso   1.00
H387   H     0.61071   0.64522   0.48149   0.00000  Uiso   1.00
H388   H     0.57937   0.65332   0.40582   0.00000  Uiso   1.00
H389   H     0.63570   0.36726   0.41529   0.00000  Uiso   1.00
H390   H     0.36343   0.61839   0.37692   0.00000  Uiso   1.00
H391   H     0.33718   0.33815   0.34567   0.00000  Uiso   1.00
H392   H     0.63054   0.61065   0.34963   0.00000  Uiso   1.00
H393   H     0.62220   0.57595   0.03472   0.00000  Uiso   1.00
H394   H     0.45283   0.36917   0.08230   0.00000  Uiso   1.00
H395   H     0.41889   0.66384   0.03897   0.00000  Uiso   1.00
H396   H     0.36567   0.35827   0.13260   0.00000  Uiso   1.00
H397   H     0.66663   0.65261   0.08943   0.00000  Uiso   1.00
H398   H     0.41066   0.58823   0.09420   0.00000  Uiso   1.00
H399   H     0.36847   0.59525   0.14602   0.00000  Uiso   1.00
H400   H     0.43809   0.62602   0.14093   0.00000  Uiso   1.00
H401   H     0.39255   0.40389   0.46668   0.00000  Uiso   1.00
H402   H     0.56636   0.33540   0.24407   0.00000  Uiso   1.00
H403   H     0.43343   0.66453   0.24997   0.00000  Uiso   1.00
H404   H     0.33771   0.46117   0.21602   0.00000  Uiso   1.00
H405   H     0.66230   0.53885   0.28397   0.00000  Uiso   1.00
H406   H     0.51933   0.34613   0.15329   0.00000  Uiso   1.00
N407   N     0.65011   0.48598   0.23783   0.00000  Uiso   1.00
N408   N     0.34989   0.51402   0.26217   0.00000  Uiso   1.00
O409   O     0.46308   0.57952   0.25299   0.00000  Uiso   1.00
O410   O     0.38349   0.40172   0.05293   0.00000  Uiso   1.00
O411   O     0.53692   0.42048   0.24702   0.00000  Uiso   1.00
O412   O     0.55946   0.57054   0.24519   0.00000  Uiso   1.00
O413   O     0.44054   0.42946   0.25482   0.00000  Uiso   1.00
O414   O     0.45181   0.50450   0.31998   0.00000  Uiso   1.00
O415   O     0.54819   0.49550   0.18003   0.00000  Uiso   1.00
O416   O     0.54819   0.49552   0.31218   0.00000  Uiso   1.00
O417   O     0.45181   0.50448   0.18783   0.00000  Uiso   1.00
O418   O     0.63394   0.57541   0.44674   0.00000  Uiso   1.00
Zn419  Zn    0.43565   0.50600   0.25521   0.00000  Uiso   1.00
Zn420  Zn    0.56435   0.49400   0.24479   0.00000  Uiso   1.00
C421   C     0.84821   0.59804   0.24813   0.00000  Uiso   1.00
C422   C     0.87771   0.52252   0.40496   0.00000  Uiso   1.00
C423   C     0.83009   0.50665   0.11615   0.00000  Uiso   1.00
C424   C     0.83707   0.49159   0.38389   0.00000  Uiso   1.00
C425   C     0.86944   0.53939   0.09150   0.00000  Uiso   1.00
C426   C     0.80073   0.45560   0.40802   0.00000  Uiso   1.00
C427   C     0.87529   0.53146   0.04481   0.00000  Uiso   1.00
C428   C     0.79782   0.45952   0.45527   0.00000  Uiso   1.00
C429   C     0.83533   0.49785   0.02354   0.00000  Uiso   1.00
C430   C     0.83745   0.49345   0.47668   0.00000  Uiso   1.00
C431   C     0.79329   0.46864   0.04911   0.00000  Uiso   1.00
C432   C     0.81835   0.40195   0.24998   0.00000  Uiso   1.00
C433   C     0.87949   0.52283   0.45122   0.00000  Uiso   1.00
C434   C     0.92049   0.55549   0.01902   0.00000  Uiso   1.00
C435   C     0.75716   0.42987   0.48158   0.00000  Uiso   1.00
C436   C     0.89994   0.58542   0.11432   0.00000  Uiso   1.00
C437   C     0.88458   0.63767   0.09396   0.00000  Uiso   1.00
C438   C     0.88837   0.34954   0.12760   0.00000  Uiso   1.00
C439   C     0.77138   0.40987   0.38408   0.00000  Uiso   1.00
C440   C     0.79483   0.35768   0.39865   0.00000  Uiso   1.00
C441   C     0.81399   0.65726   0.35882   0.00000  Uiso   1.00
C442   C     0.97221   0.62998   0.45356   0.00000  Uiso   1.00
C443   C     0.92169   0.55313   0.47222   0.00000  Uiso   1.00
C444   C     0.95893   0.65835   0.41062   0.00000  Uiso   1.00
C445   C     0.99136   0.63849   0.36840   0.00000  Uiso   1.00
C446   C     0.74481   0.35787   0.06766   0.00000  Uiso   1.00
C447   C     0.70723   0.66406   0.10427   0.00000  Uiso   1.00
C448   C     0.73302   0.61543   0.12218   0.00000  Uiso   1.00
C449   C     0.75586   0.43304   0.02815   0.00000  Uiso   1.00
C450   C     0.85614   0.65236   0.24611   0.00000  Uiso   1.00
C451   C     0.81031   0.34760   0.24820   0.00000  Uiso   1.00
C452   C     0.83434   0.49757   0.33630   0.00000  Uiso   1.00
C453   C     0.83235   0.50230   0.16376   0.00000  Uiso   1.00
C454   C     0.79102   0.47374   0.09542   0.00000  Uiso   1.00
H455   H     0.76012   0.45069   0.11597   0.00000  Uiso   1.00
H456   H     0.92911   0.35004   0.14487   0.00000  Uiso   1.00
H457   H     0.88559   0.38701   0.10980   0.00000  Uiso   1.00
H458   H     0.91277   0.64751   0.06406   0.00000  Uiso   1.00
H459   H     0.84101   0.63413   0.08170   0.00000  Uiso   1.00
H460   H     0.88826   0.58692   0.15080   0.00000  Uiso   1.00
H461   H     0.94648   0.58039   0.11148   0.00000  Uiso   1.00
H462   H     0.77896   0.65078   0.33556   0.00000  Uiso   1.00
H463   H     0.85148   0.34314   0.34059   0.00000  Uiso   1.00
H464   H     0.82619   0.61884   0.37092   0.00000  Uiso   1.00
H465   H     0.83157   0.36426   0.42038   0.00000  Uiso   1.00
H466   H     0.90707   0.54742   0.38490   0.00000  Uiso   1.00
H467   H     0.76162   0.33555   0.41911   0.00000  Uiso   1.00
H468   H     0.72467   0.41028   0.39140   0.00000  Uiso   1.00
H469   H     0.77671   0.41312   0.34706   0.00000  Uiso   1.00
H470   H     0.68324   0.64036   0.46241   0.00000  Uiso   1.00
H471   H     0.94405   0.64522   0.48149   0.00000  Uiso   1.00
H472   H     0.91271   0.65332   0.40582   0.00000  Uiso   1.00
H473   H     0.96903   0.36726   0.41529   0.00000  Uiso   1.00
H474   H     0.69676   0.61839   0.37692   0.00000  Uiso   1.00
H475   H     0.67051   0.33815   0.34567   0.00000  Uiso   1.00
H476   H     0.96387   0.61065   0.34963   0.00000  Uiso   1.00
H477   H     0.95554   0.57595   0.03472   0.00000  Uiso   1.00
H478   H     0.78617   0.36917   0.08230   0.00000  Uiso   1.00
H479   H     0.75222   0.66384   0.03897   0.00000  Uiso   1.00
H480   H     0.69900   0.35827   0.13260   0.00000  Uiso   1.00
H481   H     0.99997   0.65261   0.08943   0.00000  Uiso   1.00
H482   H     0.74399   0.58823   0.09420   0.00000  Uiso   1.00
H483   H     0.70180   0.59525   0.14602   0.00000  Uiso   1.00
H484   H     0.77143   0.62602   0.14093   0.00000  Uiso   1.00
H485   H     0.72588   0.40389   0.46668   0.00000  Uiso   1.00
H486   H     0.89969   0.33540   0.24407   0.00000  Uiso   1.00
H487   H     0.76676   0.66453   0.24997   0.00000  Uiso   1.00
H488   H     0.67104   0.46117   0.21602   0.00000  Uiso   1.00
H489   H     0.99563   0.53885   0.28397   0.00000  Uiso   1.00
H490   H     0.85266   0.34613   0.15329   0.00000  Uiso   1.00
N491   N     0.98344   0.48598   0.23783   0.00000  Uiso   1.00
N492   N     0.68322   0.51402   0.26217   0.00000  Uiso   1.00
O493   O     0.79642   0.57952   0.25299   0.00000  Uiso   1.00
O494   O     0.71682   0.40172   0.05293   0.00000  Uiso   1.00
O495   O     0.87025   0.42048   0.24702   0.00000  Uiso   1.00
O496   O     0.89280   0.57054   0.24519   0.00000  Uiso   1.00
O497   O     0.77387   0.42946   0.25482   0.00000  Uiso   1.00
O498   O     0.78514   0.50450   0.31998   0.00000  Uiso   1.00
O499   O     0.88153   0.49550   0.18003   0.00000  Uiso   1.00
O500   O     0.88152   0.49552   0.31218   0.00000  Uiso   1.00
O501   O     0.78515   0.50448   0.18783   0.00000  Uiso   1.00
O502   O     0.96727   0.57541   0.44674   0.00000  Uiso   1.00
Zn503  Zn    0.76898   0.50600   0.25521   0.00000  Uiso   1.00
Zn504  Zn    0.89769   0.49400   0.24479   0.00000  Uiso   1.00
C505   C     0.18155   0.93138   0.24813   0.00000  Uiso   1.00
C506   C     0.21105   0.85585   0.40496   0.00000  Uiso   1.00
C507   C     0.16342   0.83998   0.11615   0.00000  Uiso   1.00
C508   C     0.17041   0.82492   0.38389   0.00000  Uiso   1.00
C509   C     0.20277   0.87272   0.09150   0.00000  Uiso   1.00
C510   C     0.13406   0.78893   0.40802   0.00000  Uiso   1.00
C511   C     0.20862   0.86480   0.04481   0.00000  Uiso   1.00
C512   C     0.13115   0.79286   0.45527   0.00000  Uiso   1.00
C513   C     0.16866   0.83118   0.02354   0.00000  Uiso   1.00
C514   C     0.17078   0.82678   0.47668   0.00000  Uiso   1.00
C515   C     0.12662   0.80198   0.04911   0.00000  Uiso   1.00
C516   C     0.15168   0.73528   0.24998   0.00000  Uiso   1.00
C517   C     0.21283   0.85616   0.45122   0.00000  Uiso   1.00
C518   C     0.25382   0.88882   0.01902   0.00000  Uiso   1.00
C519   C     0.09049   0.76320   0.48158   0.00000  Uiso   1.00
C520   C     0.23328   0.91875   0.11432   0.00000  Uiso   1.00
C521   C     0.21792   0.97100   0.09396   0.00000  Uiso   1.00
C522   C     0.22171   0.68287   0.12760   0.00000  Uiso   1.00
C523   C     0.10471   0.74320   0.38408   0.00000  Uiso   1.00
C524   C     0.12816   0.69101   0.39865   0.00000  Uiso   1.00
C525   C     0.14732   0.99059   0.35882   0.00000  Uiso   1.00
C526   C     0.30554   0.96331   0.45356   0.00000  Uiso   1.00
C527   C     0.25502   0.88647   0.47222   0.00000  Uiso   1.00
C528   C     0.29227   0.99168   0.41062   0.00000  Uiso   1.00
C529   C     0.32469   0.97182   0.36840   0.00000  Uiso   1.00
C530   C     0.07814   0.69121   0.06766   0.00000  Uiso   1.00
C531   C     0.04056   0.99739   0.10427   0.00000  Uiso   1.00
C532   C     0.06635   0.94876   0.12218   0.00000  Uiso   1.00
C533   C     0.08920   0.76638   0.02815   0.00000  Uiso   1.00
C534   C     0.18947   0.98569   0.24611   0.00000  Uiso   1.00
C535   C     0.14364   0.68094   0.24820   0.00000  Uiso   1.00
C536   C     0.16767   0.83091   0.33630   0.00000  Uiso   1.00
C537   C     0.16568   0.83563   0.16376   0.00000  Uiso   1.00
C538   C     0.12435   0.80707   0.09542   0.00000  Uiso   1.00
H539   H     0.09345   0.78402   0.11597   0.00000  Uiso   1.00
H540   H     0.26244   0.68338   0.14487   0.00000  Uiso   1.00
H541   H     0.21892   0.72034   0.10980   0.00000  Uiso   1.00
H542   H     0.24611   0.98085   0.06406   0.00000  Uiso   1.00
H543   H     0.17434   0.96746   0.08170   0.00000  Uiso   1.00
H544   H     0.22160   0.92025   0.15080   0.00000  Uiso   1.00
H545   H     0.27981   0.91373   0.11148   0.00000  Uiso   1.00
H546   H     0.11229   0.98411   0.33556   0.00000  Uiso   1.00
H547   H     0.18481   0.67648   0.34059   0.00000  Uiso   1.00
H548   H     0.15952   0.95217   0.37092   0.00000  Uiso   1.00
H549   H     0.16491   0.69759   0.42038   0.00000  Uiso   1.00
H550   H     0.24040   0.88075   0.38490   0.00000  Uiso   1.00
H551   H     0.09495   0.66888   0.41911   0.00000  Uiso   1.00
H552   H     0.05800   0.74362   0.39140   0.00000  Uiso   1.00
H553   H     0.11005   0.74645   0.34706   0.00000  Uiso   1.00
H554   H     0.01657   0.97369   0.46241   0.00000  Uiso   1.00
H555   H     0.27738   0.97856   0.48149   0.00000  Uiso   1.00
H556   H     0.24604   0.98665   0.40582   0.00000  Uiso   1.00
H557   H     0.30236   0.70059   0.41529   0.00000  Uiso   1.00
H558   H     0.03010   0.95172   0.37692   0.00000  Uiso   1.00
H559   H     0.00384   0.67148   0.34567   0.00000  Uiso   1.00
H560   H     0.29721   0.94398   0.34963   0.00000  Uiso   1.00
H561   H     0.28887   0.90929   0.03472   0.00000  Uiso   1.00
H562   H     0.11950   0.70250   0.08230   0.00000  Uiso   1.00
H563   H     0.08555   0.99717   0.03897   0.00000  Uiso   1.00
H564   H     0.03234   0.69160   0.13260   0.00000  Uiso   1.00
H565   H     0.33330   0.98594   0.08943   0.00000  Uiso   1.00
H566   H     0.07733   0.92157   0.09420   0.00000  Uiso   1.00
H567   H     0.03513   0.92858   0.14602   0.00000  Uiso   1.00
H568   H     0.10476   0.95935   0.14093   0.00000  Uiso   1.00
H569   H     0.05922   0.73722   0.46668   0.00000  Uiso   1.00
H570   H     0.23303   0.66873   0.24407   0.00000  Uiso   1.00
H571   H     0.10009   0.99787   0.24997   0.00000  Uiso   1.00
H572   H     0.00437   0.79450   0.21602   0.00000  Uiso   1.00
H573   H     0.32896   0.87219   0.28397   0.00000  Uiso   1.00
H574   H     0.18600   0.67947   0.15329   0.00000  Uiso   1.00
N575   N     0.31678   0.81932   0.23783   0.00000  Uiso   1.00
N576   N     0.01656   0.84735   0.26217   0.00000  Uiso   1.00
O577   O     0.12975   0.91286   0.25299   0.00000  Uiso   1.00
O578   O     0.05016   0.73505   0.05293   0.00000  Uiso   1.00
O579   O     0.20358   0.75381   0.24702   0.00000  Uiso   1.00
O580   O     0.22613   0.90387   0.24519   0.00000  Uiso   1.00
O581   O     0.10720   0.76279   0.25482   0.00000  Uiso   1.00
O582   O     0.11847   0.83784   0.31998   0.00000  Uiso   1.00
O583   O     0.21486   0.82883   0.18003   0.00000  Uiso   1.00
O584   O     0.21485   0.82885   0.31218   0.00000  Uiso   1.00
O585   O     0.11848   0.83781   0.18783   0.00000  Uiso   1.00
O586   O     0.30061   0.90874   0.44674   0.00000  Uiso   1.00
Zn587  Zn    0.10231   0.83933   0.25521   0.00000  Uiso   1.00
Zn588  Zn    0.23102   0.82734   0.24479   0.00000  Uiso   1.00
C589   C     0.51488   0.93138   0.24813   0.00000  Uiso   1.00
C590   C     0.54438   0.85585   0.40496   0.00000  Uiso   1.00
C591   C     0.49676   0.83998   0.11615   0.00000  Uiso   1.00
C592   C     0.50374   0.82492   0.38389   0.00000  Uiso   1.00
C593   C     0.53611   0.87272   0.09150   0.00000  Uiso   1.00
C594   C     0.46739   0.78893   0.40802   0.00000  Uiso   1.00
C595   C     0.54196   0.86480   0.04481   0.00000  Uiso   1.00
C596   C     0.46449   0.79286   0.45527   0.00000  Uiso   1.00
C597   C     0.50200   0.83118   0.02354   0.00000  Uiso   1.00
C598   C     0.50411   0.82678   0.47668   0.00000  Uiso   1.00
C599   C     0.45996   0.80198   0.04911   0.00000  Uiso   1.00
C600   C     0.48502   0.73528   0.24998   0.00000  Uiso   1.00
C601   C     0.54616   0.85616   0.45122   0.00000  Uiso   1.00
C602   C     0.58716   0.88882   0.01902   0.00000  Uiso   1.00
C603   C     0.42382   0.76320   0.48158   0.00000  Uiso   1.00
C604   C     0.56661   0.91875   0.11432   0.00000  Uiso   1.00
C605   C     0.55125   0.97100   0.09396   0.00000  Uiso   1.00
C606   C     0.55504   0.68287   0.12760   0.00000  Uiso   1.00
C607   C     0.43805   0.74320   0.38408   0.00000  Uiso   1.00
C608   C     0.46149   0.69101   0.39865   0.00000  Uiso   1.00
C609   C     0.48065   0.99059   0.35882   0.00000  Uiso   1.00
C610   C     0.63887   0.96331   0.45356   0.00000  Uiso   1.00
C611   C     0.58836   0.88647   0.47222   0.00000  Uiso   1.00
C612   C     0.62560   0.99168   0.41062   0.00000  Uiso   1.00
C613   C     0.65803   0.97182   0.36840   0.00000  Uiso   1.00
C614   C     0.41148   0.69121   0.06766   0.00000  Uiso   1.00
C615   C     0.37389   0.99739   0.10427   0.00000  Uiso   1.00
C616   C     0.39968   0.94876   0.12218   0.00000  Uiso   1.00
C617   C     0.42253   0.76638   0.02815   0.00000  Uiso   1.00
C618   C     0.52281   0.98569   0.24611   0.00000  Uiso   1.00
C619   C     0.47698   0.68094   0.24820   0.00000  Uiso   1.00
C620   C     0.50100   0.83091   0.33630   0.00000  Uiso   1.00
C621   C     0.49902   0.83563   0.16376   0.00000  Uiso   1.00
C622   C     0.45769   0.80707   0.09542   0.00000  Uiso   1.00
H623   H     0.42678   0.78402   0.11597   0.00000  Uiso   1.00
H624   H     0.59577   0.68338   0.14487   0.00000  Uiso   1.00
H625   H     0.55225   0.72034   0.10980   0.00000  Uiso   1.00
H626   H     0.57944   0.98085   0.06406   0.00000  Uiso   1.00
H627   H     0.50768   0.96746   0.08170   0.00000  Uiso   1.00
H628   H     0.55493   0.92025   0.15080   0.00000  Uiso   1.00
H629   H     0.61315   0.91373   0.11148   0.00000  Uiso   1.00
H630   H     0.44563   0.98411   0.33556   0.00000  Uiso   1.00
H631   H     0.51814   0.67648   0.34059   0.00000  Uiso   1.00
H632   H     0.49285   0.95217   0.37092   0.00000  Uiso   1.00
H633   H     0.49824   0.69759   0.42038   0.00000  Uiso   1.00
H634   H     0.57374   0.88075   0.38490   0.00000  Uiso   1.00
H635   H     0.42828   0.66888   0.41911   0.00000  Uiso   1.00
H636   H     0.39133   0.74362   0.39140   0.00000  Uiso   1.00
H637   H     0.44338   0.74645   0.34706   0.00000  Uiso   1.00
H638   H     0.34991   0.97369   0.46241   0.00000  Uiso   1.00
H639   H     0.61071   0.97856   0.48149   0.00000  Uiso   1.00
H640   H     0.57937   0.98665   0.40582   0.00000  Uiso   1.00
H641   H     0.63570   0.70059   0.41529   0.00000  Uiso   1.00
H642   H     0.36343   0.95172   0.37692   0.00000  Uiso   1.00
H643   H     0.33718   0.67148   0.34567   0.00000  Uiso   1.00
H644   H     0.63054   0.94398   0.34963   0.00000  Uiso   1.00
H645   H     0.62220   0.90929   0.03472   0.00000  Uiso   1.00
H646   H     0.45283   0.70250   0.08230   0.00000  Uiso   1.00
H647   H     0.41889   0.99717   0.03897   0.00000  Uiso   1.00
H648   H     0.36567   0.69160   0.13260   0.00000  Uiso   1.00
H649   H     0.66663   0.98594   0.08943   0.00000  Uiso   1.00
H650   H     0.41066   0.92157   0.09420   0.00000  Uiso   1.00
H651   H     0.36847   0.92858   0.14602   0.00000  Uiso   1.00
H652   H     0.43809   0.95935   0.14093   0.00000  Uiso   1.00
H653   H     0.39255   0.73722   0.46668   0.00000  Uiso   1.00
H654   H     0.56636   0.66873   0.24407   0.00000  Uiso   1.00
H655   H     0.43343   0.99787   0.24997   0.00000  Uiso   1.00
H656   H     0.33771   0.79450   0.21602   0.00000  Uiso   1.00
H657   H     0.66230   0.87219   0.28397   0.00000  Uiso   1.00
H658   H     0.51933   0.67947   0.15329   0.00000  Uiso   1.00
N659   N     0.65011   0.81932   0.23783   0.00000  Uiso   1.00
N660   N     0.34989   0.84735   0.26217   0.00000  Uiso   1.00
O661   O     0.46308   0.91286   0.25299   0.00000  Uiso   1.00
O662   O     0.38349   0.73505   0.05293   0.00000  Uiso   1.00
O663   O     0.53692   0.75381   0.24702   0.00000  Uiso   1.00
O664   O     0.55946   0.90387   0.24519   0.00000  Uiso   1.00
O665   O     0.44054   0.76279   0.25482   0.00000  Uiso   1.00
O666   O     0.45181   0.83784   0.31998   0.00000  Uiso   1.00
O667   O     0.54819   0.82883   0.18003   0.00000  Uiso   1.00
O668   O     0.54819   0.82885   0.31218   0.00000  Uiso   1.00
O669   O     0.45181   0.83781   0.18783   0.00000  Uiso   1.00
O670   O     0.63394   0.90874   0.44674   0.00000  Uiso   1.00
Zn671  Zn    0.43565   0.83933   0.25521   0.00000  Uiso   1.00
Zn672  Zn    0.56435   0.82734   0.24479   0.00000  Uiso   1.00
C673   C     0.84821   0.93138   0.24813   0.00000  Uiso   1.00
C674   C     0.87771   0.85585   0.40496   0.00000  Uiso   1.00
C675   C     0.83009   0.83998   0.11615   0.00000  Uiso   1.00
C676   C     0.83707   0.82492   0.38389   0.00000  Uiso   1.00
C677   C     0.86944   0.87272   0.09150   0.00000  Uiso   1.00
C678   C     0.80073   0.78893   0.40802   0.00000  Uiso   1.00
C679   C     0.87529   0.86480   0.04481   0.00000  Uiso   1.00
C680   C     0.79782   0.79286   0.45527   0.00000  Uiso   1.00
C681   C     0.83533   0.83118   0.02354   0.00000  Uiso   1.00
C682   C     0.83745   0.82678   0.47668   0.00000  Uiso   1.00
C683   C     0.79329   0.80198   0.04911   0.00000  Uiso   1.00
C684   C     0.81835   0.73528   0.24998   0.00000  Uiso   1.00
C685   C     0.87949   0.85616   0.45122   0.00000  Uiso   1.00
C686   C     0.92049   0.88882   0.01902   0.00000  Uiso   1.00
C687   C     0.75716   0.76320   0.48158   0.00000  Uiso   1.00
C688   C     0.89994   0.91875   0.11432   0.00000  Uiso   1.00
C689   C     0.88458   0.97100   0.09396   0.00000  Uiso   1.00
C690   C     0.88837   0.68287   0.12760   0.00000  Uiso   1.00
C691   C     0.77138   0.74320   0.38408   0.00000  Uiso   1.00
C692   C     0.79483   0.69101   0.39865   0.00000  Uiso   1.00
C693   C     0.81399   0.99059   0.35882   0.00000  Uiso   1.00
C694   C     0.97221   0.96331   0.45356   0.00000  Uiso   1.00
C695   C     0.92169   0.88647   0.47222   0.00000  Uiso   1.00
C696   C     0.95893   0.99168   0.41062   0.00000  Uiso   1.00
C697   C     0.99136   0.97182   0.36840   0.00000  Uiso   1.00
C698   C     0.74481   0.69121   0.06766   0.00000  Uiso   1.00
C699   C     0.70723   0.99739   0.10427   0.00000  Uiso   1.00
C700   C     0.73302   0.94876   0.12218   0.00000  Uiso   1.00
C701   C     0.75586   0.76638   0.02815   0.00000  Uiso   1.00
C702   C     0.85614   0.98569   0.24611   0.00000  Uiso   1.00
C703   C     0.81031   0.68094   0.24820   0.00000  Uiso   1.00
C704   C     0.83434   0.83091   0.33630   0.00000  Uiso   1.00
C705   C     0.83235   0.83563   0.16376   0.00000  Uiso   1.00
C706   C     0.79102   0.80707   0.09542   0.00000  Uiso   1.00
H707   H     0.76012   0.78402   0.11597   0.00000  Uiso   1.00
H708   H     0.92911   0.68338   0.14487   0.00000  Uiso   1.00
H709   H     0.88559   0.72034   0.10980   0.00000  Uiso   1.00
H710   H     0.91277   0.98085   0.06406   0.00000  Uiso   1.00
H711   H     0.84101   0.96746   0.08170   0.00000  Uiso   1.00
H712   H     0.88826   0.92025   0.15080   0.00000  Uiso   1.00
H713   H     0.94648   0.91373   0.11148   0.00000  Uiso   1.00
H714   H     0.77896   0.98411   0.33556   0.00000  Uiso   1.00
H715   H     0.85148   0.67648   0.34059   0.00000  Uiso   1.00
H716   H     0.82619   0.95217   0.37092   0.00000  Uiso   1.00
H717   H     0.83157   0.69759   0.42038   0.00000  Uiso   1.00
H718   H     0.90707   0.88075   0.38490   0.00000  Uiso   1.00
H719   H     0.76162   0.66888   0.41911   0.00000  Uiso   1.00
H720   H     0.72467   0.74362   0.39140   0.00000  Uiso   1.00
H721   H     0.77671   0.74645   0.34706   0.00000  Uiso   1.00
H722   H     0.68324   0.97369   0.46241   0.00000  Uiso   1.00
H723   H     0.94405   0.97856   0.48149   0.00000  Uiso   1.00
H724   H     0.91271   0.98665   0.40582   0.00000  Uiso   1.00
H725   H     0.96903   0.70059   0.41529   0.00000  Uiso   1.00
H726   H     0.69676   0.95172   0.37692   0.00000  Uiso   1.00
H727   H     0.67051   0.67148   0.34567   0.00000  Uiso   1.00
H728   H     0.96387   0.94398   0.34963   0.00000  Uiso   1.00
H729   H     0.95554   0.90929   0.03472   0.00000  Uiso   1.00
H730   H     0.78617   0.70250   0.08230   0.00000  Uiso   1.00
H731   H     0.75222   0.99717   0.03897   0.00000  Uiso   1.00
H732   H     0.69900   0.69160   0.13260   0.00000  Uiso   1.00
H733   H     0.99997   0.98594   0.08943   0.00000  Uiso   1.00
H734   H     0.74399   0.92157   0.09420   0.00000  Uiso   1.00
H735   H     0.70180   0.92858   0.14602   0.00000  Uiso   1.00
H736   H     0.77143   0.95935   0.14093   0.00000  Uiso   1.00
H737   H     0.72588   0.73722   0.46668   0.00000  Uiso   1.00
H738   H     0.89969   0.66873   0.24407   0.00000  Uiso   1.00
H739   H     0.76676   0.99787   0.24997   0.00000  Uiso   1.00
H740   H     0.67104   0.79450   0.21602   0.00000  Uiso   1.00
H741   H     0.99563   0.87219   0.28397   0.00000  Uiso   1.00
H742   H     0.85266   0.67947   0.15329   0.00000  Uiso   1.00
N743   N     0.98344   0.81932   0.23783   0.00000  Uiso   1.00
N744   N     0.68322   0.84735   0.26217   0.00000  Uiso   1.00
O745   O     0.79642   0.91286   0.25299   0.00000  Uiso   1.00
O746   O     0.71682   0.73505   0.05293   0.00000  Uiso   1.00
O747   O     0.87025   0.75381   0.24702   0.00000  Uiso   1.00
O748   O     0.89280   0.90387   0.24519   0.00000  Uiso   1.00
O749   O     0.77387   0.76279   0.25482   0.00000  Uiso   1.00
O750   O     0.78514   0.83784   0.31998   0.00000  Uiso   1.00
O751   O     0.88153   0.82883   0.18003   0.00000  Uiso   1.00
O752   O     0.88152   0.82885   0.31218   0.00000  Uiso   1.00
O753   O     0.78515   0.83781   0.18783   0.00000  Uiso   1.00
O754   O     0.96727   0.90874   0.44674   0.00000  Uiso   1.00
Zn755  Zn    0.76898   0.83933   0.25521   0.00000  Uiso   1.00
Zn756  Zn    0.89769   0.82734   0.24479   0.00000  Uiso   1.00
C757   C     0.18155   0.26471   0.74813   0.00000  Uiso   1.00
C758   C     0.21105   0.18919   0.90496   0.00000  Uiso   1.00
C759   C     0.16342   0.17332   0.61615   0.00000  Uiso   1.00
C760   C     0.17041   0.15825   0.88389   0.00000  Uiso   1.00
C761   C     0.20277   0.20606   0.59150   0.00000  Uiso   1.00
C762   C     0.13406   0.12227   0.90802   0.00000  Uiso   1.00
C763   C     0.20862   0.19813   0.54481   0.00000  Uiso   1.00
C764   C     0.13115   0.12619   0.95527   0.00000  Uiso   1.00
C765   C     0.16866   0.16452   0.52354   0.00000  Uiso   1.00
C766   C     0.17078   0.16012   0.97668   0.00000  Uiso   1.00
C767   C     0.12662   0.13531   0.54911   0.00000  Uiso   1.00
C768   C     0.15168   0.06862   0.74998   0.00000  Uiso   1.00
C769   C     0.21283   0.18950   0.95122   0.00000  Uiso   1.00
C770   C     0.25382   0.22215   0.51902   0.00000  Uiso   1.00
C771   C     0.09049   0.09653   0.98158   0.00000  Uiso   1.00
C772   C     0.23328   0.25209   0.61432   0.00000  Uiso   1.00
C773   C     0.21792   0.30433   0.59396   0.00000  Uiso   1.00
C774   C     0.22171   0.01620   0.62760   0.00000  Uiso   1.00
C775   C     0.10471   0.07654   0.88408   0.00000  Uiso   1.00
C776   C     0.12816   0.02435   0.89865   0.00000  Uiso   1.00
C777   C     0.14732   0.32392   0.85882   0.00000  Uiso   1.00
C778   C     0.30554   0.29664   0.95356   0.00000  Uiso   1.00
C779   C     0.25502   0.21980   0.97222   0.00000  Uiso   1.00
C780   C     0.29227   0.32502   0.91062   0.00000  Uiso   1.00
C781   C     0.32469   0.30515   0.86840   0.00000  Uiso   1.00
C782   C     0.07814   0.02454   0.56766   0.00000  Uiso   1.00
C783   C     0.04056   0.33073   0.60427   0.00000  Uiso   1.00
C784   C     0.06635   0.28209   0.62218   0.00000  Uiso   1.00
C785   C     0.08920   0.09971   0.52815   0.00000  Uiso   1.00
C786   C     0.18947   0.31902   0.74611   0.00000  Uiso   1.00
C787   C     0.14364   0.01427   0.74820   0.00000  Uiso   1.00
C788   C     0.16767   0.16424   0.83630   0.00000  Uiso   1.00
C789   C     0.16568   0.16896   0.66376   0.00000  Uiso   1.00
C790   C     0.12435   0.14041   0.59542   0.00000  Uiso   1.00
H791   H     0.09345   0.11736   0.61597   0.00000  Uiso   1.00
H792   H     0.26244   0.01671   0.64487   0.00000  Uiso   1.00
H793   H     0.21892   0.05368   0.60980   0.00000  Uiso   1.00
H794   H     0.24611   0.31418   0.56406   0.00000  Uiso   1.00
H795   H     0.17434   0.30079   0.58170   0.00000  Uiso   1.00
H796   H     0.22160   0.25359   0.65080   0.00000  Uiso   1.00
H797   H     0.27981   0.24706   0.61148   0.00000  Uiso   1.00
H798   H     0.11229   0.31745   0.83556   0.00000  Uiso   1.00
H799   H     0.18481   0.00981   0.84059   0.00000  Uiso   1.00
H800   H     0.15952   0.28551   0.87092   0.00000  Uiso   1.00
H801   H     0.16491   0.03092   0.92038   0.00000  Uiso   1.00
H802   H     0.24040   0.21409   0.88490   0.00000  Uiso   1.00
H803   H     0.09495   0.00222   0.91911   0.00000  Uiso   1.00
H804   H     0.05800   0.07695   0.89140   0.00000  Uiso   1.00
H805   H     0.11005   0.07979   0.84706   0.00000  Uiso   1.00
H806   H     0.01657   0.30703   0.96241   0.00000  Uiso   1.00
H807   H     0.27738   0.31189   0.98149   0.00000  Uiso   1.00
H808   H     0.24604   0.31999   0.90582   0.00000  Uiso   1.00
H809   H     0.30236   0.03392   0.91529   0.00000  Uiso   1.00
H810   H     0.03010   0.28505   0.87692   0.00000  Uiso   1.00
H811   H     0.00384   0.00481   0.84567   0.00000  Uiso   1.00
H812   H     0.29721   0.27732   0.84963   0.00000  Uiso   1.00
H813   H     0.28887   0.24262   0.53472   0.00000  Uiso   1.00
H814   H     0.11950   0.03584   0.58230   0.00000  Uiso   1.00
H815   H     0.08555   0.33050   0.53897   0.00000  Uiso   1.00
H816   H     0.03234   0.02494   0.63260   0.00000  Uiso   1.00
H817   H     0.33330   0.31927   0.58943   0.00000  Uiso   1.00
H818   H     0.07733   0.25490   0.59420   0.00000  Uiso   1.00
H819   H     0.03513   0.26191   0.64602   0.00000  Uiso   1.00
H820   H     0.10476   0.29268   0.64093   0.00000  Uiso   1.00
H821   H     0.05922   0.07056   0.96668   0.00000  Uiso   1.00
H822   H     0.23303   0.00207   0.74407   0.00000  Uiso   1.00
H823   H     0.10009   0.33120   0.74997   0.00000  Uiso   1.00
H824   H     0.00437   0.12783   0.71602   0.00000  Uiso   1.00
H825   H     0.32896   0.20552   0.78397   0.00000  Uiso   1.00
H826   H     0.18600   0.01280   0.65329   0.00000  Uiso   1.00
N827   N     0.31678   0.15265   0.73783   0.00000  Uiso   1.00
N828   N     0.01656   0.18068   0.76217   0.00000  Uiso   1.00
O829   O     0.12975   0.24619   0.75299   0.00000  Uiso   1.00
O830   O     0.05016   0.06839   0.55293   0.00000  Uiso   1.00
O831   O     0.20358   0.08714   0.74702   0.00000  Uiso   1.00
O832   O     0.22613   0.23721   0.74519   0.00000  Uiso   1.00
O833   O     0.10720   0.09613   0.75482   0.00000  Uiso   1.00
O834   O     0.11847   0.17117   0.81998   0.00000  Uiso   1.00
O835   O     0.21486   0.16216   0.68003   0.00000  Uiso   1.00
O836   O     0.21485   0.16219   0.81218   0.00000  Uiso   1.00
O837   O     0.11848   0.17115   0.68783   0.00000  Uiso   1.00
O838   O     0.30061   0.24207   0.94674   0.00000  Uiso   1.00
Zn839  Zn    0.10231   0.17266   0.75521   0.00000  Uiso   1.00
Zn840  Zn    0.23102   0.16067   0.74479   0.00000  Uiso   1.00
C841   C     0.51488   0.26471   0.74813   0.00000  Uiso   1.00
C842   C     0.54438   0.18919   0.90496   0.00000  Uiso   1.00
C843   C     0.49676   0.17332   0.61615   0.00000  Uiso   1.00
C844   C     0.50374   0.15825   0.88389   0.00000  Uiso   1.00
C845   C     0.53611   0.20606   0.59150   0.00000  Uiso   1.00
C846   C     0.46739   0.12227   0.90802   0.00000  Uiso   1.00
C847   C     0.54196   0.19813   0.54481   0.00000  Uiso   1.00
C848   C     0.46449   0.12619   0.95527   0.00000  Uiso   1.00
C849   C     0.50200   0.16452   0.52354   0.00000  Uiso   1.00
C850   C     0.50411   0.16012   0.97668   0.00000  Uiso   1.00
C851   C     0.45996   0.13531   0.54911   0.00000  Uiso   1.00
C852   C     0.48502   0.06862   0.74998   0.00000  Uiso   1.00
C853   C     0.54616   0.18950   0.95122   0.00000  Uiso   1.00
C854   C     0.58716   0.22215   0.51902   0.00000  Uiso   1.00
C855   C     0.42382   0.09653   0.98158   0.00000  Uiso   1.00
C856   C     0.56661   0.25209   0.61432   0.00000  Uiso   1.00
C857   C     0.55125   0.30433   0.59396   0.00000  Uiso   1.00
C858   C     0.55504   0.01620   0.62760   0.00000  Uiso   1.00
C859   C     0.43805   0.07654   0.88408   0.00000  Uiso   1.00
C860   C     0.46149   0.02435   0.89865   0.00000  Uiso   1.00
C861   C     0.48065   0.32392   0.85882   0.00000  Uiso   1.00
C862   C     0.63887   0.29664   0.95356   0.00000  Uiso   1.00
C863   C     0.58836   0.21980   0.97222   0.00000  Uiso   1.00
C864   C     0.62560   0.32502   0.91062   0.00000  Uiso   1.00
C865   C     0.65803   0.30515   0.86840   0.00000  Uiso   1.00
C866   C     0.41148   0.02454   0.56766   0.00000  Uiso   1.00
C867   C     0.37389   0.33073   0.60427   0.00000  Uiso   1.00
C868   C     0.39968   0.28209   0.62218   0.00000  Uiso   1.00
C869   C     0.42253   0.09971   0.52815   0.00000  Uiso   1.00
C870   C     0.52281   0.31902   0.74611   0.00000  Uiso   1.00
C871   C     0.47698   0.01427   0.74820   0.00000  Uiso   1.00
C872   C     0.50100   0.16424   0.83630   0.00000  Uiso   1.00
C873   C     0.49902   0.16896   0.66376   0.00000  Uiso   1.00
C874   C     0.45769   0.14041   0.59542   0.00000  Uiso   1.00
H875   H     0.42678   0.11736   0.61597   0.00000  Uiso   1.00
H876   H     0.59577   0.01671   0.64487   0.00000  Uiso   1.00
H877   H     0.55225   0.05368   0.60980   0.00000  Uiso   1.00
H878   H     0.57944   0.31418   0.56406   0.00000  Uiso   1.00
H879   H     0.50768   0.30079   0.58170   0.00000  Uiso   1.00
H880   H     0.55493   0.25359   0.65080   0.00000  Uiso   1.00
H881   H     0.61315   0.24706   0.61148   0.00000  Uiso   1.00
H882   H     0.44563   0.31745   0.83556   0.00000  Uiso   1.00
H883   H     0.51814   0.00981   0.84059   0.00000  Uiso   1.00
H884   H     0.49285   0.28551   0.87092   0.00000  Uiso   1.00
H885   H     0.49824   0.03092   0.92038   0.00000  Uiso   1.00
H886   H     0.57374   0.21409   0.88490   0.00000  Uiso   1.00
H887   H     0.42828   0.00222   0.91911   0.00000  Uiso   1.00
H888   H     0.39133   0.07695   0.89140   0.00000  Uiso   1.00
H889   H     0.44338   0.07979   0.84706   0.00000  Uiso   1.00
H890   H     0.34991   0.30703   0.96241   0.00000  Uiso   1.00
H891   H     0.61071   0.31189   0.98149   0.00000  Uiso   1.00
H892   H     0.57937   0.31999   0.90582   0.00000  Uiso   1.00
H893   H     0.63570   0.03392   0.91529   0.00000  Uiso   1.00
H894   H     0.36343   0.28505   0.87692   0.00000  Uiso   1.00
H895   H     0.33718   0.00481   0.84567   0.00000  Uiso   1.00
H896   H     0.63054   0.27732   0.84963   0.00000  Uiso   1.00
H897   H     0.62220   0.24262   0.53472   0.00000  Uiso   1.00
H898   H     0.45283   0.03584   0.58230   0.00000  Uiso   1.00
H899   H     0.41889   0.33050   0.53897   0.00000  Uiso   1.00
H900   H     0.36567   0.02494   0.63260   0.00000  Uiso   1.00
H901   H     0.66663   0.31927   0.58943   0.00000  Uiso   1.00
H902   H     0.41066   0.25490   0.59420   0.00000  Uiso   1.00
H903   H     0.36847   0.26191   0.64602   0.00000  Uiso   1.00
H904   H     0.43809   0.29268   0.64093   0.00000  Uiso   1.00
H905   H     0.39255   0.07056   0.96668   0.00000  Uiso   1.00
H906   H     0.56636   0.00207   0.74407   0.00000  Uiso   1.00
H907   H     0.43343   0.33120   0.74997   0.00000  Uiso   1.00
H908   H     0.33771   0.12783   0.71602   0.00000  Uiso   1.00
H909   H     0.66230   0.20552   0.78397   0.00000  Uiso   1.00
H910   H     0.51933   0.01280   0.65329   0.00000  Uiso   1.00
N911   N     0.65011   0.15265   0.73783   0.00000  Uiso   1.00
N912   N     0.34989   0.18068   0.76217   0.00000  Uiso   1.00
O913   O     0.46308   0.24619   0.75299   0.00000  Uiso   1.00
O914   O     0.38349   0.06839   0.55293   0.00000  Uiso   1.00
O915   O     0.53692   0.08714   0.74702   0.00000  Uiso   1.00
O916   O     0.55946   0.23721   0.74519   0.00000  Uiso   1.00
O917   O     0.44054   0.09613   0.75482   0.00000  Uiso   1.00
O918   O     0.45181   0.17117   0.81998   0.00000  Uiso   1.00
O919   O     0.54819   0.16216   0.68003   0.00000  Uiso   1.00
O920   O     0.54819   0.16219   0.81218   0.00000  Uiso   1.00
O921   O     0.45181   0.17115   0.68783   0.00000  Uiso   1.00
O922   O     0.63394   0.24207   0.94674   0.00000  Uiso   1.00
Zn923  Zn    0.43565   0.17266   0.75521   0.00000  Uiso   1.00
Zn924  Zn    0.56435   0.16067   0.74479   0.00000  Uiso   1.00
C925   C     0.84821   0.26471   0.74813   0.00000  Uiso   1.00
C926   C     0.87771   0.18919   0.90496   0.00000  Uiso   1.00
C927   C     0.83009   0.17332   0.61615   0.00000  Uiso   1.00
C928   C     0.83707   0.15825   0.88389   0.00000  Uiso   1.00
C929   C     0.86944   0.20606   0.59150   0.00000  Uiso   1.00
C930   C     0.80073   0.12227   0.90802   0.00000  Uiso   1.00
C931   C     0.87529   0.19813   0.54481   0.00000  Uiso   1.00
C932   C     0.79782   0.12619   0.95527   0.00000  Uiso   1.00
C933   C     0.83533   0.16452   0.52354   0.00000  Uiso   1.00
C934   C     0.83745   0.16012   0.97668   0.00000  Uiso   1.00
C935   C     0.79329   0.13531   0.54911   0.00000  Uiso   1.00
C936   C     0.81835   0.06862   0.74998   0.00000  Uiso   1.00
C937   C     0.87949   0.18950   0.95122   0.00000  Uiso   1.00
C938   C     0.92049   0.22215   0.51902   0.00000  Uiso   1.00
C939   C     0.75716   0.09653   0.98158   0.00000  Uiso   1.00
C940   C     0.89994   0.25209   0.61432   0.00000  Uiso   1.00
C941   C     0.88458   0.30433   0.59396   0.00000  Uiso   1.00
C942   C     0.88837   0.01620   0.62760   0.00000  Uiso   1.00
C943   C     0.77138   0.07654   0.88408   0.00000  Uiso   1.00
C944   C     0.79483   0.02435   0.89865   0.00000  Uiso   1.00
C945   C     0.81399   0.32392   0.85882   0.00000  Uiso   1.00
C946   C     0.97221   0.29664   0.95356   0.00000  Uiso   1.00
C947   C     0.92169   0.21980   0.97222   0.00000  Uiso   1.00
C948   C     0.95893   0.32502   0.91062   0.00000  Uiso   1.00
C949   C     0.99136   0.30515   0.86840   0.00000  Uiso   1.00
C950   C     0.74481   0.02454   0.56766   0.00000  Uiso   1.00
C951   C     0.70723   0.33073   0.60427   0.00000  Uiso   1.00
C952   C     0.73302   0.28209   0.62218   0.00000  Uiso   1.00
C953   C     0.75586   0.09971   0.52815   0.00000  Uiso   1.00
C954   C     0.85614   0.31902   0.74611   0.00000  Uiso   1.00
C955   C     0.81031   0.01427   0.74820   0.00000  Uiso   1.00
C956   C     0.83434   0.16424   0.83630   0.00000  Uiso   1.00
C957   C     0.83235   0.16896   0.66376   0.00000  Uiso   1.00
C958   C     0.79102   0.14041   0.59542   0.00000  Uiso   1.00
H959   H     0.76012   0.11736   0.61597   0.00000  Uiso   1.00
H960   H     0.92911   0.01671   0.64487   0.00000  Uiso   1.00
H961   H     0.88559   0.05368   0.60980   0.00000  Uiso   1.00
H962   H     0.91277   0.31418   0.56406   0.00000  Uiso   1.00
H963   H     0.84101   0.30079   0.58170   0.00000  Uiso   1.00
H964   H     0.88826   0.25359   0.65080   0.00000  Uiso   1.00
H965   H     0.94648   0.24706   0.61148   0.00000  Uiso   1.00
H966   H     0.77896   0.31745   0.83556   0.00000  Uiso   1.00
H967   H     0.85148   0.00981   0.84059   0.00000  Uiso   1.00
H968   H     0.82619   0.28551   0.87092   0.00000  Uiso   1.00
H969   H     0.83157   0.03092   0.92038   0.00000  Uiso   1.00
H970   H     0.90707   0.21409   0.88490   0.00000  Uiso   1.00
H971   H     0.76162   0.00222   0.91911   0.00000  Uiso   1.00
H972   H     0.72467   0.07695   0.89140   0.00000  Uiso   1.00
H973   H     0.77671   0.07979   0.84706   0.00000  Uiso   1.00
H974   H     0.68324   0.30703   0.96241   0.00000  Uiso   1.00
H975   H     0.94405   0.31189   0.98149   0.00000  Uiso   1.00
H976   H     0.91271   0.31999   0.90582   0.00000  Uiso   1.00
H977   H     0.96903   0.03392   0.91529   0.00000  Uiso   1.00
H978   H     0.69676   0.28505   0.87692   0.00000  Uiso   1.00
H979   H     0.67051   0.00481   0.84567   0.00000  Uiso   1.00
H980   H     0.96387   0.27732   0.84963   0.00000  Uiso   1.00
H981   H     0.95554   0.24262   0.53472   0.00000  Uiso   1.00
H982   H     0.78617   0.03584   0.58230   0.00000  Uiso   1.00
H983   H     0.75222   0.33050   0.53897   0.00000  Uiso   1.00
H984   H     0.69900   0.02494   0.63260   0.00000  Uiso   1.00
H985   H     0.99997   0.31927   0.58943   0.00000  Uiso   1.00
H986   H     0.74399   0.25490   0.59420   0.00000  Uiso   1.00
H987   H     0.70180   0.26191   0.64602   0.00000  Uiso   1.00
H988   H     0.77143   0.29268   0.64093   0.00000  Uiso   1.00
H989   H     0.72588   0.07056   0.96668   0.00000  Uiso   1.00
H990   H     0.89969   0.00207   0.74407   0.00000  Uiso   1.00
H991   H     0.76676   0.33120   0.74997   0.00000  Uiso   1.00
H992   H     0.67104   0.12783   0.71602   0.00000  Uiso   1.00
H993   H     0.99563   0.20552   0.78397   0.00000  Uiso   1.00
H994   H     0.85266   0.01280   0.65329   0.00000  Uiso   1.00
N995   N     0.98344   0.15265   0.73783   0.00000  Uiso   1.00
N996   N     0.68322   0.18068   0.76217   0.00000  Uiso   1.00
O997   O     0.79642   0.24619   0.75299   0.00000  Uiso   1.00
O998   O     0.71682   0.06839   0.55293   0.00000  Uiso   1.00
O999   O     0.87025   0.08714   0.74702   0.00000  Uiso   1.00
O1000  O     0.89280   0.23721   0.74519   0.00000  Uiso   1.00
O1001  O     0.77387   0.09613   0.75482   0.00000  Uiso   1.00
O1002  O     0.78514   0.17117   0.81998   0.00000  Uiso   1.00
O1003  O     0.88153   0.16216   0.68003   0.00000  Uiso   1.00
O1004  O     0.88152   0.16219   0.81218   0.00000  Uiso   1.00
O1005  O     0.78515   0.17115   0.68783   0.00000  Uiso   1.00
O1006  O     0.96727   0.24207   0.94674   0.00000  Uiso   1.00
Zn1007 Zn    0.76898   0.17266   0.75521   0.00000  Uiso   1.00
Zn1008 Zn    0.89769   0.16067   0.74479   0.00000  Uiso   1.00
C1009  C     0.18155   0.59804   0.74813   0.00000  Uiso   1.00
C1010  C     0.21105   0.52252   0.90496   0.00000  Uiso   1.00
C1011  C     0.16342   0.50665   0.61615   0.00000  Uiso   1.00
C1012  C     0.17041   0.49159   0.88389   0.00000  Uiso   1.00
C1013  C     0.20277   0.53939   0.59150   0.00000  Uiso   1.00
C1014  C     0.13406   0.45560   0.90802   0.00000  Uiso   1.00
C1015  C     0.20862   0.53146   0.54481   0.00000  Uiso   1.00
C1016  C     0.13115   0.45952   0.95527   0.00000  Uiso   1.00
C1017  C     0.16866   0.49785   0.52354   0.00000  Uiso   1.00
C1018  C     0.17078   0.49345   0.97668   0.00000  Uiso   1.00
C1019  C     0.12662   0.46864   0.54911   0.00000  Uiso   1.00
C1020  C     0.15168   0.40195   0.74998   0.00000  Uiso   1.00
C1021  C     0.21283   0.52283   0.95122   0.00000  Uiso   1.00
C1022  C     0.25382   0.55549   0.51902   0.00000  Uiso   1.00
C1023  C     0.09049   0.42987   0.98158   0.00000  Uiso   1.00
C1024  C     0.23328   0.58542   0.61432   0.00000  Uiso   1.00
C1025  C     0.21792   0.63767   0.59396   0.00000  Uiso   1.00
C1026  C     0.22171   0.34954   0.62760   0.00000  Uiso   1.00
C1027  C     0.10471   0.40987   0.88408   0.00000  Uiso   1.00
C1028  C     0.12816   0.35768   0.89865   0.00000  Uiso   1.00
C1029  C     0.14732   0.65726   0.85882   0.00000  Uiso   1.00
C1030  C     0.30554   0.62998   0.95356   0.00000  Uiso   1.00
C1031  C     0.25502   0.55313   0.97222   0.00000  Uiso   1.00
C1032  C     0.29227   0.65835   0.91062   0.00000  Uiso   1.00
C1033  C     0.32469   0.63849   0.86840   0.00000  Uiso   1.00
C1034  C     0.07814   0.35787   0.56766   0.00000  Uiso   1.00
C1035  C     0.04056   0.66406   0.60427   0.00000  Uiso   1.00
C1036  C     0.06635   0.61543   0.62218   0.00000  Uiso   1.00
C1037  C     0.08920   0.43304   0.52815   0.00000  Uiso   1.00
C1038  C     0.18947   0.65236   0.74611   0.00000  Uiso   1.00
C1039  C     0.14364   0.34760   0.74820   0.00000  Uiso   1.00
C1040  C     0.16767   0.49757   0.83630   0.00000  Uiso   1.00
C1041  C     0.16568   0.50230   0.66376   0.00000  Uiso   1.00
C1042  C     0.12435   0.47374   0.59542   0.00000  Uiso   1.00
H1043  H     0.09345   0.45069   0.61597   0.00000  Uiso   1.00
H1044  H     0.26244   0.35004   0.64487   0.00000  Uiso   1.00
H1045  H     0.21892   0.38701   0.60980   0.00000  Uiso   1.00
H1046  H     0.24611   0.64751   0.56406   0.00000  Uiso   1.00
H1047  H     0.17434   0.63413   0.58170   0.00000  Uiso   1.00
H1048  H     0.22160   0.58692   0.65080   0.00000  Uiso   1.00
H1049  H     0.27981   0.58039   0.61148   0.00000  Uiso   1.00
H1050  H     0.11229   0.65078   0.83556   0.00000  Uiso   1.00
H1051  H     0.18481   0.34314   0.84059   0.00000  Uiso   1.00
H1052  H     0.15952   0.61884   0.87092   0.00000  Uiso   1.00
H1053  H     0.16491   0.36426   0.92038   0.00000  Uiso   1.00
H1054  H     0.24040   0.54742   0.88490   0.00000  Uiso   1.00
H1055  H     0.09495   0.33555   0.91911   0.00000  Uiso   1.00
H1056  H     0.05800   0.41028   0.89140   0.00000  Uiso   1.00
H1057  H     0.11005   0.41312   0.84706   0.00000  Uiso   1.00
H1058  H     0.01657   0.64036   0.96241   0.00000  Uiso   1.00
H1059  H     0.27738   0.64522   0.98149   0.00000  Uiso   1.00
H1060  H     0.24604   0.65332   0.90582   0.00000  Uiso   1.00
H1061  H     0.30236   0.36726   0.91529   0.00000  Uiso   1.00
H1062  H     0.03010   0.61839   0.87692   0.00000  Uiso   1.00
H1063  H     0.00384   0.33815   0.84567   0.00000  Uiso   1.00
H1064  H     0.29721   0.61065   0.84963   0.00000  Uiso   1.00
H1065  H     0.28887   0.57595   0.53472   0.00000  Uiso   1.00
H1066  H     0.11950   0.36917   0.58230   0.00000  Uiso   1.00
H1067  H     0.08555   0.66384   0.53897   0.00000  Uiso   1.00
H1068  H     0.03234   0.35827   0.63260   0.00000  Uiso   1.00
H1069  H     0.33330   0.65261   0.58943   0.00000  Uiso   1.00
H1070  H     0.07733   0.58823   0.59420   0.00000  Uiso   1.00
H1071  H     0.03513   0.59525   0.64602   0.00000  Uiso   1.00
H1072  H     0.10476   0.62602   0.64093   0.00000  Uiso   1.00
H1073  H     0.05922   0.40389   0.96668   0.00000  Uiso   1.00
H1074  H     0.23303   0.33540   0.74407   0.00000  Uiso   1.00
H1075  H     0.10009   0.66453   0.74997   0.00000  Uiso   1.00
H1076  H     0.00437   0.46117   0.71602   0.00000  Uiso   1.00
H1077  H     0.32896   0.53885   0.78397   0.00000  Uiso   1.00
H1078  H     0.18600   0.34613   0.65329   0.00000  Uiso   1.00
N1079  N     0.31678   0.48598   0.73783   0.00000  Uiso   1.00
N1080  N     0.01656   0.51402   0.76217   0.00000  Uiso   1.00
O1081  O     0.12975   0.57952   0.75299   0.00000  Uiso   1.00
O1082  O     0.05016   0.40172   0.55293   0.00000  Uiso   1.00
O1083  O     0.20358   0.42048   0.74702   0.00000  Uiso   1.00
O1084  O     0.22613   0.57054   0.74519   0.00000  Uiso   1.00
O1085  O     0.10720   0.42946   0.75482   0.00000  Uiso   1.00
O1086  O     0.11847   0.50450   0.81998   0.00000  Uiso   1.00
O1087  O     0.21486   0.49550   0.68003   0.00000  Uiso   1.00
O1088  O     0.21485   0.49552   0.81218   0.00000  Uiso   1.00
O1089  O     0.11848   0.50448   0.68783   0.00000  Uiso   1.00
O1090  O     0.30061   0.57541   0.94674   0.00000  Uiso   1.00
Zn1091 Zn    0.10231   0.50600   0.75521   0.00000  Uiso   1.00
Zn1092 Zn    0.23102   0.49400   0.74479   0.00000  Uiso   1.00
C1093  C     0.51488   0.59804   0.74813   0.00000  Uiso   1.00
C1094  C     0.54438   0.52252   0.90496   0.00000  Uiso   1.00
C1095  C     0.49676   0.50665   0.61615   0.00000  Uiso   1.00
C1096  C     0.50374   0.49159   0.88389   0.00000  Uiso   1.00
C1097  C     0.53611   0.53939   0.59150   0.00000  Uiso   1.00
C1098  C     0.46739   0.45560   0.90802   0.00000  Uiso   1.00
C1099  C     0.54196   0.53146   0.54481   0.00000  Uiso   1.00
C1100  C     0.46449   0.45952   0.95527   0.00000  Uiso   1.00
C1101  C     0.50200   0.49785   0.52354   0.00000  Uiso   1.00
C1102  C     0.50411   0.49345   0.97668   0.00000  Uiso   1.00
C1103  C     0.45996   0.46864   0.54911   0.00000  Uiso   1.00
C1104  C     0.48502   0.40195   0.74998   0.00000  Uiso   1.00
C1105  C     0.54616   0.52283   0.95122   0.00000  Uiso   1.00
C1106  C     0.58716   0.55549   0.51902   0.00000  Uiso   1.00
C1107  C     0.42382   0.42987   0.98158   0.00000  Uiso   1.00
C1108  C     0.56661   0.58542   0.61432   0.00000  Uiso   1.00
C1109  C     0.55125   0.63767   0.59396   0.00000  Uiso   1.00
C1110  C     0.55504   0.34954   0.62760   0.00000  Uiso   1.00
C1111  C     0.43805   0.40987   0.88408   0.00000  Uiso   1.00
C1112  C     0.46149   0.35768   0.89865   0.00000  Uiso   1.00
C1113  C     0.48065   0.65726   0.85882   0.00000  Uiso   1.00
C1114  C     0.63887   0.62998   0.95356   0.00000  Uiso   1.00
C1115  C     0.58836   0.55313   0.97222   0.00000  Uiso   1.00
C1116  C     0.62560   0.65835   0.91062   0.00000  Uiso   1.00
C1117  C     0.65803   0.63849   0.86840   0.00000  Uiso   1.00
C1118  C     0.41148   0.35787   0.56766   0.00000  Uiso   1.00
C1119  C     0.37389   0.66406   0.60427   0.00000  Uiso   1.00
C1120  C     0.39968   0.61543   0.62218   0.00000  Uiso   1.00
C1121  C     0.42253   0.43304   0.52815   0.00000  Uiso   1.00
C1122  C     0.52281   0.65236   0.74611   0.00000  Uiso   1.00
C1123  C     0.47698   0.34760   0.74820   0.00000  Uiso   1.00
C1124  C     0.50100   0.49757   0.83630   0.00000  Uiso   1.00
C1125  C     0.49902   0.50230   0.66376   0.00000  Uiso   1.00
C1126  C     0.45769   0.47374   0.59542   0.00000  Uiso   1.00
H1127  H     0.42678   0.45069   0.61597   0.00000  Uiso   1.00
H1128  H     0.59577   0.35004   0.64487   0.00000  Uiso   1.00
H1129  H     0.55225   0.38701   0.60980   0.00000  Uiso   1.00
H1130  H     0.57944   0.64751   0.56406   0.00000  Uiso   1.00
H1131  H     0.50768   0.63413   0.58170   0.00000  Uiso   1.00
H1132  H     0.55493   0.58692   0.65080   0.00000  Uiso   1.00
H1133  H     0.61315   0.58039   0.61148   0.00000  Uiso   1.00
H1134  H     0.44563   0.65078   0.83556   0.00000  Uiso   1.00
H1135  H     0.51814   0.34314   0.84059   0.00000  Uiso   1.00
H1136  H     0.49285   0.61884   0.87092   0.00000  Uiso   1.00
H1137  H     0.49824   0.36426   0.92038   0.00000  Uiso   1.00
H1138  H     0.57374   0.54742   0.88490   0.00000  Uiso   1.00
H1139  H     0.42828   0.33555   0.91911   0.00000  Uiso   1.00
H1140  H     0.39133   0.41028   0.89140   0.00000  Uiso   1.00
H1141  H     0.44338   0.41312   0.84706   0.00000  Uiso   1.00
H1142  H     0.34991   0.64036   0.96241   0.00000  Uiso   1.00
H1143  H     0.61071   0.64522   0.98149   0.00000  Uiso   1.00
H1144  H     0.57937   0.65332   0.90582   0.00000  Uiso   1.00
H1145  H     0.63570   0.36726   0.91529   0.00000  Uiso   1.00
H1146  H     0.36343   0.61839   0.87692   0.00000  Uiso   1.00
H1147  H     0.33718   0.33815   0.84567   0.00000  Uiso   1.00
H1148  H     0.63054   0.61065   0.84963   0.00000  Uiso   1.00
H1149  H     0.62220   0.57595   0.53472   0.00000  Uiso   1.00
H1150  H     0.45283   0.36917   0.58230   0.00000  Uiso   1.00
H1151  H     0.41889   0.66384   0.53897   0.00000  Uiso   1.00
H1152  H     0.36567   0.35827   0.63260   0.00000  Uiso   1.00
H1153  H     0.66663   0.65261   0.58943   0.00000  Uiso   1.00
H1154  H     0.41066   0.58823   0.59420   0.00000  Uiso   1.00
H1155  H     0.36847   0.59525   0.64602   0.00000  Uiso   1.00
H1156  H     0.43809   0.62602   0.64093   0.00000  Uiso   1.00
H1157  H     0.39255   0.40389   0.96668   0.00000  Uiso   1.00
H1158  H     0.56636   0.33540   0.74407   0.00000  Uiso   1.00
H1159  H     0.43343   0.66453   0.74997   0.00000  Uiso   1.00
H1160  H     0.33771   0.46117   0.71602   0.00000  Uiso   1.00
H1161  H     0.66230   0.53885   0.78397   0.00000  Uiso   1.00
H1162  H     0.51933   0.34613   0.65329   0.00000  Uiso   1.00
N1163  N     0.65011   0.48598   0.73783   0.00000  Uiso   1.00
N1164  N     0.34989   0.51402   0.76217   0.00000  Uiso   1.00
O1165  O     0.46308   0.57952   0.75299   0.00000  Uiso   1.00
O1166  O     0.38349   0.40172   0.55293   0.00000  Uiso   1.00
O1167  O     0.53692   0.42048   0.74702   0.00000  Uiso   1.00
O1168  O     0.55946   0.57054   0.74519   0.00000  Uiso   1.00
O1169  O     0.44054   0.42946   0.75482   0.00000  Uiso   1.00
O1170  O     0.45181   0.50450   0.81998   0.00000  Uiso   1.00
O1171  O     0.54819   0.49550   0.68003   0.00000  Uiso   1.00
O1172  O     0.54819   0.49552   0.81218   0.00000  Uiso   1.00
O1173  O     0.45181   0.50448   0.68783   0.00000  Uiso   1.00
O1174  O     0.63394   0.57541   0.94674   0.00000  Uiso   1.00
Zn1175 Zn    0.43565   0.50600   0.75521   0.00000  Uiso   1.00
Zn1176 Zn    0.56435   0.49400   0.74479   0.00000  Uiso   1.00
C1177  C     0.84821   0.59804   0.74813   0.00000  Uiso   1.00
C1178  C     0.87771   0.52252   0.90496   0.00000  Uiso   1.00
C1179  C     0.83009   0.50665   0.61615   0.00000  Uiso   1.00
C1180  C     0.83707   0.49159   0.88389   0.00000  Uiso   1.00
C1181  C     0.86944   0.53939   0.59150   0.00000  Uiso   1.00
C1182  C     0.80073   0.45560   0.90802   0.00000  Uiso   1.00
C1183  C     0.87529   0.53146   0.54481   0.00000  Uiso   1.00
C1184  C     0.79782   0.45952   0.95527   0.00000  Uiso   1.00
C1185  C     0.83533   0.49785   0.52354   0.00000  Uiso   1.00
C1186  C     0.83745   0.49345   0.97668   0.00000  Uiso   1.00
C1187  C     0.79329   0.46864   0.54911   0.00000  Uiso   1.00
C1188  C     0.81835   0.40195   0.74998   0.00000  Uiso   1.00
C1189  C     0.87949   0.52283   0.95122   0.00000  Uiso   1.00
C1190  C     0.92049   0.55549   0.51902   0.00000  Uiso   1.00
C1191  C     0.75716   0.42987   0.98158   0.00000  Uiso   1.00
C1192  C     0.89994   0.58542   0.61432   0.00000  Uiso   1.00
C1193  C     0.88458   0.63767   0.59396   0.00000  Uiso   1.00
C1194  C     0.88837   0.34954   0.62760   0.00000  Uiso   1.00
C1195  C     0.77138   0.40987   0.88408   0.00000  Uiso   1.00
C1196  C     0.79483   0.35768   0.89865   0.00000  Uiso   1.00
C1197  C     0.81399   0.65726   0.85882   0.00000  Uiso   1.00
C1198  C     0.97221   0.62998   0.95356   0.00000  Uiso   1.00
C1199  C     0.92169   0.55313   0.97222   0.00000  Uiso   1.00
C1200  C     0.95893   0.65835   0.91062   0.00000  Uiso   1.00
C1201  C     0.99136   0.63849   0.86840   0.00000  Uiso   1.00
C1202  C     0.74481   0.35787   0.56766   0.00000  Uiso   1.00
C1203  C     0.70723   0.66406   0.60427   0.00000  Uiso   1.00
C1204  C     0.73302   0.61543   0.62218   0.00000  Uiso   1.00
C1205  C     0.75586   0.43304   0.52815   0.00000  Uiso   1.00
C1206  C     0.85614   0.65236   0.74611   0.00000  Uiso   1.00
C1207  C     0.81031   0.34760   0.74820   0.00000  Uiso   1.00
C1208  C     0.83434   0.49757   0.83630   0.00000  Uiso   1.00
C1209  C     0.83235   0.50230   0.66376   0.00000  Uiso   1.00
C1210  C     0.79102   0.47374   0.59542   0.00000  Uiso   1.00
H1211  H     0.76012   0.45069   0.61597   0.00000  Uiso   1.00
H1212  H     0.92911   0.35004   0.64487   0.00000  Uiso   1.00
H1213  H     0.88559   0.38701   0.60980   0.00000  Uiso   1.00
H1214  H     0.91277   0.64751   0.56406   0.00000  Uiso   1.00
H1215  H     0.84101   0.63413   0.58170   0.00000  Uiso   1.00
H1216  H     0.88826   0.58692   0.65080   0.00000  Uiso   1.00
H1217  H     0.94648   0.58039   0.61148   0.00000  Uiso   1.00
H1218  H     0.77896   0.65078   0.83556   0.00000  Uiso   1.00
H1219  H     0.85148   0.34314   0.84059   0.00000  Uiso   1.00
H1220  H     0.82619   0.61884   0.87092   0.00000  Uiso   1.00
H1221  H     0.83157   0.36426   0.92038   0.00000  Uiso   1.00
H1222  H     0.90707   0.54742   0.88490   0.00000  Uiso   1.00
H1223  H     0.76162   0.33555   0.91911   0.00000  Uiso   1.00
H1224  H     0.72467   0.41028   0.89140   0.00000  Uiso   1.00
H1225  H     0.77671   0.41312   0.84706   0.00000  Uiso   1.00
H1226  H     0.68324   0.64036   0.96241   0.00000  Uiso   1.00
H1227  H     0.94405   0.64522   0.98149   0.00000  Uiso   1.00
H1228  H     0.91271   0.65332   0.90582   0.00000  Uiso   1.00
H1229  H     0.96903   0.36726   0.91529   0.00000  Uiso   1.00
H1230  H     0.69676   0.61839   0.87692   0.00000  Uiso   1.00
H1231  H     0.67051   0.33815   0.84567   0.00000  Uiso   1.00
H1232  H     0.96387   0.61065   0.84963   0.00000  Uiso   1.00
H1233  H     0.95554   0.57595   0.53472   0.00000  Uiso   1.00
H1234  H     0.78617   0.36917   0.58230   0.00000  Uiso   1.00
H1235  H     0.75222   0.66384   0.53897   0.00000  Uiso   1.00
H1236  H     0.69900   0.35827   0.63260   0.00000  Uiso   1.00
H1237  H     0.99997   0.65261   0.58943   0.00000  Uiso   1.00
H1238  H     0.74399   0.58823   0.59420   0.00000  Uiso   1.00
H1239  H     0.70180   0.59525   0.64602   0.00000  Uiso   1.00
H1240  H     0.77143   0.62602   0.64093   0.00000  Uiso   1.00
H1241  H     0.72588   0.40389   0.96668   0.00000  Uiso   1.00
H1242  H     0.89969   0.33540   0.74407   0.00000  Uiso   1.00
H1243  H     0.76676   0.66453   0.74997   0.00000  Uiso   1.00
H1244  H     0.67104   0.46117   0.71602   0.00000  Uiso   1.00
H1245  H     0.99563   0.53885   0.78397   0.00000  Uiso   1.00
H1246  H     0.85266   0.34613   0.65329   0.00000  Uiso   1.00
N1247  N     0.98344   0.48598   0.73783   0.00000  Uiso   1.00
N1248  N     0.68322   0.51402   0.76217   0.00000  Uiso   1.00
O1249  O     0.79642   0.57952   0.75299   0.00000  Uiso   1.00
O1250  O     0.71682   0.40172   0.55293   0.00000  Uiso   1.00
O1251  O     0.87025   0.42048   0.74702   0.00000  Uiso   1.00
O1252  O     0.89280   0.57054   0.74519   0.00000  Uiso   1.00
O1253  O     0.77387   0.42946   0.75482   0.00000  Uiso   1.00
O1254  O     0.78514   0.50450   0.81998   0.00000  Uiso   1.00
O1255  O     0.88153   0.49550   0.68003   0.00000  Uiso   1.00
O1256  O     0.88152   0.49552   0.81218   0.00000  Uiso   1.00
O1257  O     0.78515   0.50448   0.68783   0.00000  Uiso   1.00
O1258  O     0.96727   0.57541   0.94674   0.00000  Uiso   1.00
Zn1259 Zn    0.76898   0.50600   0.75521   0.00000  Uiso   1.00
Zn1260 Zn    0.89769   0.49400   0.74479   0.00000  Uiso   1.00
C1261  C     0.18155   0.93138   0.74813   0.00000  Uiso   1.00
C1262  C     0.21105   0.85585   0.90496   0.00000  Uiso   1.00
C1263  C     0.16342   0.83998   0.61615   0.00000  Uiso   1.00
C1264  C     0.17041   0.82492   0.88389   0.00000  Uiso   1.00
C1265  C     0.20277   0.87272   0.59150   0.00000  Uiso   1.00
C1266  C     0.13406   0.78893   0.90802   0.00000  Uiso   1.00
C1267  C     0.20862   0.86480   0.54481   0.00000  Uiso   1.00
C1268  C     0.13115   0.79286   0.95527   0.00000  Uiso   1.00
C1269  C     0.16866   0.83118   0.52354   0.00000  Uiso   1.00
C1270  C     0.17078   0.82678   0.97668   0.00000  Uiso   1.00
C1271  C     0.12662   0.80198   0.54911   0.00000  Uiso   1.00
C1272  C     0.15168   0.73528   0.74998   0.00000  Uiso   1.00
C1273  C     0.21283   0.85616   0.95122   0.00000  Uiso   1.00
C1274  C     0.25382   0.88882   0.51902   0.00000  Uiso   1.00
C1275  C     0.09049   0.76320   0.98158   0.00000  Uiso   1.00
C1276  C     0.23328   0.91875   0.61432   0.00000  Uiso   1.00
C1277  C     0.21792   0.97100   0.59396   0.00000  Uiso   1.00
C1278  C     0.22171   0.68287   0.62760   0.00000  Uiso   1.00
C1279  C     0.10471   0.74320   0.88408   0.00000  Uiso   1.00
C1280  C     0.12816   0.69101   0.89865   0.00000  Uiso   1.00
C1281  C     0.14732   0.99059   0.85882   0.00000  Uiso   1.00
C1282  C     0.30554   0.96331   0.95356   0.00000  Uiso   1.00
C1283  C     0.25502   0.88647   0.97222   0.00000  Uiso   1.00
C1284  C     0.29227   0.99168   0.91062   0.00000  Uiso   1.00
C1285  C     0.32469   0.97182   0.86840   0.00000  Uiso   1.00
C1286  C     0.07814   0.69121   0.56766   0.00000  Uiso   1.00
C1287  C     0.04056   0.99739   0.60427   0.00000  Uiso   1.00
C1288  C     0.06635   0.94876   0.62218   0.00000  Uiso   1.00
C1289  C     0.08920   0.76638   0.52815   0.00000  Uiso   1.00
C1290  C     0.18947   0.98569   0.74611   0.00000  Uiso   1.00
C1291  C     0.14364   0.68094   0.74820   0.00000  Uiso   1.00
C1292  C     0.16767   0.83091   0.83630   0.00000  Uiso   1.00
C1293  C     0.16568   0.83563   0.66376   0.00000  Uiso   1.00
C1294  C     0.12435   0.80707   0.59542   0.00000  Uiso   1.00
H1295  H     0.09345   0.78402   0.61597   0.00000  Uiso   1.00
H1296  H     0.26244   0.68338   0.64487   0.00000  Uiso   1.00
H1297  H     0.21892   0.72034   0.60980   0.00000  Uiso   1.00
H1298  H     0.24611   0.98085   0.56406   0.00000  Uiso   1.00
H1299  H     0.17434   0.96746   0.58170   0.00000  Uiso   1.00
H1300  H     0.22160   0.92025   0.65080   0.00000  Uiso   1.00
H1301  H     0.27981   0.91373   0.61148   0.00000  Uiso   1.00
H1302  H     0.11229   0.98411   0.83556   0.00000  Uiso   1.00
H1303  H     0.18481   0.67648   0.84059   0.00000  Uiso   1.00
H1304  H     0.15952   0.95217   0.87092   0.00000  Uiso   1.00
H1305  H     0.16491   0.69759   0.92038   0.00000  Uiso   1.00
H1306  H     0.24040   0.88075   0.88490   0.00000  Uiso   1.00
H1307  H     0.09495   0.66888   0.91911   0.00000  Uiso   1.00
H1308  H     0.05800   0.74362   0.89140   0.00000  Uiso   1.00
H1309  H     0.11005   0.74645   0.84706   0.00000  Uiso   1.00
H1310  H     0.01657   0.97369   0.96241   0.00000  Uiso   1.00
H1311  H     0.27738   0.97856   0.98149   0.00000  Uiso   1.00
H1312  H     0.24604   0.98665   0.90582   0.00000  Uiso   1.00
H1313  H     0.30236   0.70059   0.91529   0.00000  Uiso   1.00
H1314  H     0.03010   0.95172   0.87692   0.00000  Uiso   1.00
H1315  H     0.00384   0.67148   0.84567   0.00000  Uiso   1.00
H1316  H     0.29721   0.94398   0.84963   0.00000  Uiso   1.00
H1317  H     0.28887   0.90929   0.53472   0.00000  Uiso   1.00
H1318  H     0.11950   0.70250   0.58230   0.00000  Uiso   1.00
H1319  H     0.08555   0.99717   0.53897   0.00000  Uiso   1.00
H1320  H     0.03234   0.69160   0.63260   0.00000  Uiso   1.00
H1321  H     0.33330   0.98594   0.58943   0.00000  Uiso   1.00
H1322  H     0.07733   0.92157   0.59420   0.00000  Uiso   1.00
H1323  H     0.03513   0.92858   0.64602   0.00000  Uiso   1.00
H1324  H     0.10476   0.95935   0.64093   0.00000  Uiso   1.00
H1325  H     0.05922   0.73722   0.96668   0.00000  Uiso   1.00
H1326  H     0.23303   0.66873   0.74407   0.00000  Uiso   1.00
H1327  H     0.10009   0.99787   0.74997   0.00000  Uiso   1.00
H1328  H     0.00437   0.79450   0.71602   0.00000  Uiso   1.00
H1329  H     0.32896   0.87219   0.78397   0.00000  Uiso   1.00
H1330  H     0.18600   0.67947   0.65329   0.00000  Uiso   1.00
N1331  N     0.31678   0.81932   0.73783   0.00000  Uiso   1.00
N1332  N     0.01656   0.84735   0.76217   0.00000  Uiso   1.00
O1333  O     0.12975   0.91286   0.75299   0.00000  Uiso   1.00
O1334  O     0.05016   0.73505   0.55293   0.00000  Uiso   1.00
O1335  O     0.20358   0.75381   0.74702   0.00000  Uiso   1.00
O1336  O     0.22613   0.90387   0.74519   0.00000  Uiso   1.00
O1337  O     0.10720   0.76279   0.75482   0.00000  Uiso   1.00
O1338  O     0.11847   0.83784   0.81998   0.00000  Uiso   1.00
O1339  O     0.21486   0.82883   0.68003   0.00000  Uiso   1.00
O1340  O     0.21485   0.82885   0.81218   0.00000  Uiso   1.00
O1341  O     0.11848   0.83781   0.68783   0.00000  Uiso   1.00
O1342  O     0.30061   0.90874   0.94674   0.00000  Uiso   1.00
Zn1343 Zn    0.10231   0.83933   0.75521   0.00000  Uiso   1.00
Zn1344 Zn    0.23102   0.82734   0.74479   0.00000  Uiso   1.00
C1345  C     0.51488   0.93138   0.74813   0.00000  Uiso   1.00
C1346  C     0.54438   0.85585   0.90496   0.00000  Uiso   1.00
C1347  C     0.49676   0.83998   0.61615   0.00000  Uiso   1.00
C1348  C     0.50374   0.82492   0.88389   0.00000  Uiso   1.00
C1349  C     0.53611   0.87272   0.59150   0.00000  Uiso   1.00
C1350  C     0.46739   0.78893   0.90802   0.00000  Uiso   1.00
C1351  C     0.54196   0.86480   0.54481   0.00000  Uiso   1.00
C1352  C     0.46449   0.79286   0.95527   0.00000  Uiso   1.00
C1353  C     0.50200   0.83118   0.52354   0.00000  Uiso   1.00
C1354  C     0.50411   0.82678   0.97668   0.00000  Uiso   1.00
C1355  C     0.45996   0.80198   0.54911   0.00000  Uiso   1.00
C1356  C     0.48502   0.73528   0.74998   0.00000  Uiso   1.00
C1357  C     0.54616   0.85616   0.95122   0.00000  Uiso   1.00
C1358  C     0.58716   0.88882   0.51902   0.00000  Uiso   1.00
C1359  C     0.42382   0.76320   0.98158   0.00000  Uiso   1.00
C1360  C     0.56661   0.91875   0.61432   0.00000  Uiso   1.00
C1361  C     0.55125   0.97100   0.59396   0.00000  Uiso   1.00
C1362  C     0.55504   0.68287   0.62760   0.00000  Uiso   1.00
C1363  C     0.43805   0.74320   0.88408   0.00000  Uiso   1.00
C1364  C     0.46149   0.69101   0.89865   0.00000  Uiso   1.00
C1365  C     0.48065   0.99059   0.85882   0.00000  Uiso   1.00
C1366  C     0.63887   0.96331   0.95356   0.00000  Uiso   1.00
C1367  C     0.58836   0.88647   0.97222   0.00000  Uiso   1.00
C1368  C     0.62560   0.99168   0.91062   0.00000  Uiso   1.00
C1369  C     0.65803   0.97182   0.86840   0.00000  Uiso   1.00
C1370  C     0.41148   0.69121   0.56766   0.00000  Uiso   1.00
C1371  C     0.37389   0.99739   0.60427   0.00000  Uiso   1.00
C1372  C     0.39968   0.94876   0.62218   0.00000  Uiso   1.00
C1373  C     0.42253   0.76638   0.52815   0.00000  Uiso   1.00
C1374  C     0.52281   0.98569   0.74611   0.00000  Uiso   1.00
C1375  C     0.47698   0.68094   0.74820   0.00000  Uiso   1.00
C1376  C     0.50100   0.83091   0.83630   0.00000  Uiso   1.00
C1377  C     0.49902   0.83563   0.66376   0.00000  Uiso   1.00
C1378  C     0.45769   0.80707   0.59542   0.00000  Uiso   1.00
H1379  H     0.42678   0.78402   0.61597   0.00000  Uiso   1.00
H1380  H     0.59577   0.68338   0.64487   0.00000  Uiso   1.00
H1381  H     0.55225   0.72034   0.60980   0.00000  Uiso   1.00
H1382  H     0.57944   0.98085   0.56406   0.00000  Uiso   1.00
H1383  H     0.50768   0.96746   0.58170   0.00000  Uiso   1.00
H1384  H     0.55493   0.92025   0.65080   0.00000  Uiso   1.00
H1385  H     0.61315   0.91373   0.61148   0.00000  Uiso   1.00
H1386  H     0.44563   0.98411   0.83556   0.00000  Uiso   1.00
H1387  H     0.51814   0.67648   0.84059   0.00000  Uiso   1.00
H1388  H     0.49285   0.95217   0.87092   0.00000  Uiso   1.00
H1389  H     0.49824   0.69759   0.92038   0.00000  Uiso   1.00
H1390  H     0.57374   0.88075   0.88490   0.00000  Uiso   1.00
H1391  H     0.42828   0.66888   0.91911   0.00000  Uiso   1.00
H1392  H     0.39133   0.74362   0.89140   0.00000  Uiso   1.00
H1393  H     0.44338   0.74645   0.84706   0.00000  Uiso   1.00
H1394  H     0.34991   0.97369   0.96241   0.00000  Uiso   1.00
H1395  H     0.61071   0.97856   0.98149   0.00000  Uiso   1.00
H1396  H     0.57937   0.98665   0.90582   0.00000  Uiso   1.00
H1397  H     0.63570   0.70059   0.91529   0.00000  Uiso   1.00
H1398  H     0.36343   0.95172   0.87692   0.00000  Uiso   1.00
H1399  H     0.33718   0.67148   0.84567   0.00000  Uiso   1.00
H1400  H     0.63054   0.94398   0.84963   0.00000  Uiso   1.00
H1401  H     0.62220   0.90929   0.53472   0.00000  Uiso   1.00
H1402  H     0.45283   0.70250   0.58230   0.00000  Uiso   1.00
H1403  H     0.41889   0.99717   0.53897   0.00000  Uiso   1.00
H1404  H     0.36567   0.69160   0.63260   0.00000  Uiso   1.00
H1405  H     0.66663   0.98594   0.58943   0.00000  Uiso   1.00
H1406  H     0.41066   0.92157   0.59420   0.00000  Uiso   1.00
H1407  H     0.36847   0.92858   0.64602   0.00000  Uiso   1.00
H1408  H     0.43809   0.95935   0.64093   0.00000  Uiso   1.00
H1409  H     0.39255   0.73722   0.96668   0.00000  Uiso   1.00
H1410  H     0.56636   0.66873   0.74407   0.00000  Uiso   1.00
H1411  H     0.43343   0.99787   0.74997   0.00000  Uiso   1.00
H1412  H     0.33771   0.79450   0.71602   0.00000  Uiso   1.00
H1413  H     0.66230   0.87219   0.78397   0.00000  Uiso   1.00
H1414  H     0.51933   0.67947   0.65329   0.00000  Uiso   1.00
N1415  N     0.65011   0.81932   0.73783   0.00000  Uiso   1.00
N1416  N     0.34989   0.84735   0.76217   0.00000  Uiso   1.00
O1417  O     0.46308   0.91286   0.75299   0.00000  Uiso   1.00
O1418  O     0.38349   0.73505   0.55293   0.00000  Uiso   1.00
O1419  O     0.53692   0.75381   0.74702   0.00000  Uiso   1.00
O1420  O     0.55946   0.90387   0.74519   0.00000  Uiso   1.00
O1421  O     0.44054   0.76279   0.75482   0.00000  Uiso   1.00
O1422  O     0.45181   0.83784   0.81998   0.00000  Uiso   1.00
O1423  O     0.54819   0.82883   0.68003   0.00000  Uiso   1.00
O1424  O     0.54819   0.82885   0.81218   0.00000  Uiso   1.00
O1425  O     0.45181   0.83781   0.68783   0.00000  Uiso   1.00
O1426  O     0.63394   0.90874   0.94674   0.00000  Uiso   1.00
Zn1427 Zn    0.43565   0.83933   0.75521   0.00000  Uiso   1.00
Zn1428 Zn    0.56435   0.82734   0.74479   0.00000  Uiso   1.00
C1429  C     0.84821   0.93138   0.74813   0.00000  Uiso   1.00
C1430  C     0.87771   0.85585   0.90496   0.00000  Uiso   1.00
C1431  C     0.83009   0.83998   0.61615   0.00000  Uiso   1.00
C1432  C     0.83707   0.82492   0.88389   0.00000  Uiso   1.00
C1433  C     0.86944   0.87272   0.59150   0.00000  Uiso   1.00
C1434  C     0.80073   0.78893   0.90802   0.00000  Uiso   1.00
C1435  C     0.87529   0.86480   0.54481   0.00000  Uiso   1.00
C1436  C     0.79782   0.79286   0.95527   0.00000  Uiso   1.00
C1437  C     0.83533   0.83118   0.52354   0.00000  Uiso   1.00
C1438  C     0.83745   0.82678   0.97668   0.00000  Uiso   1.00
C1439  C     0.79329   0.80198   0.54911   0.00000  Uiso   1.00
C1440  C     0.81835   0.73528   0.74998   0.00000  Uiso   1.00
C1441  C     0.87949   0.85616   0.95122   0.00000  Uiso   1.00
C1442  C     0.92049   0.88882   0.51902   0.00000  Uiso   1.00
C1443  C     0.75716   0.76320   0.98158   0.00000  Uiso   1.00
C1444  C     0.89994   0.91875   0.61432   0.00000  Uiso   1.00
C1445  C     0.88458   0.97100   0.59396   0.00000  Uiso   1.00
C1446  C     0.88837   0.68287   0.62760   0.00000  Uiso   1.00
C1447  C     0.77138   0.74320   0.88408   0.00000  Uiso   1.00
C1448  C     0.79483   0.69101   0.89865   0.00000  Uiso   1.00
C1449  C     0.81399   0.99059   0.85882   0.00000  Uiso   1.00
C1450  C     0.97221   0.96331   0.95356   0.00000  Uiso   1.00
C1451  C     0.92169   0.88647   0.97222   0.00000  Uiso   1.00
C1452  C     0.95893   0.99168   0.91062   0.00000  Uiso   1.00
C1453  C     0.99136   0.97182   0.86840   0.00000  Uiso   1.00
C1454  C     0.74481   0.69121   0.56766   0.00000  Uiso   1.00
C1455  C     0.70723   0.99739   0.60427   0.00000  Uiso   1.00
C1456  C     0.73302   0.94876   0.62218   0.00000  Uiso   1.00
C1457  C     0.75586   0.76638   0.52815   0.00000  Uiso   1.00
C1458  C     0.85614   0.98569   0.74611   0.00000  Uiso   1.00
C1459  C     0.81031   0.68094   0.74820   0.00000  Uiso   1.00
C1460  C     0.83434   0.83091   0.83630   0.00000  Uiso   1.00
C1461  C     0.83235   0.83563   0.66376   0.00000  Uiso   1.00
C1462  C     0.79102   0.80707   0.59542   0.00000  Uiso   1.00
H1463  H     0.76012   0.78402   0.61597   0.00000  Uiso   1.00
H1464  H     0.92911   0.68338   0.64487   0.00000  Uiso   1.00
H1465  H     0.88559   0.72034   0.60980   0.00000  Uiso   1.00
H1466  H     0.91277   0.98085   0.56406   0.00000  Uiso   1.00
H1467  H     0.84101   0.96746   0.58170   0.00000  Uiso   1.00
H1468  H     0.88826   0.92025   0.65080   0.00000  Uiso   1.00
H1469  H     0.94648   0.91373   0.61148   0.00000  Uiso   1.00
H1470  H     0.77896   0.98411   0.83556   0.00000  Uiso   1.00
H1471  H     0.85148   0.67648   0.84059   0.00000  Uiso   1.00
H1472  H     0.82619   0.95217   0.87092   0.00000  Uiso   1.00
H1473  H     0.83157   0.69759   0.92038   0.00000  Uiso   1.00
H1474  H     0.90707   0.88075   0.88490   0.00000  Uiso   1.00
H1475  H     0.76162   0.66888   0.91911   0.00000  Uiso   1.00
H1476  H     0.72467   0.74362   0.89140   0.00000  Uiso   1.00
H1477  H     0.77671   0.74645   0.84706   0.00000  Uiso   1.00
H1478  H     0.68324   0.97369   0.96241   0.00000  Uiso   1.00
H1479  H     0.94405   0.97856   0.98149   0.00000  Uiso   1.00
H1480  H     0.91271   0.98665   0.90582   0.00000  Uiso   1.00
H1481  H     0.96903   0.70059   0.91529   0.00000  Uiso   1.00
H1482  H     0.69676   0.95172   0.87692   0.00000  Uiso   1.00
H1483  H     0.67051   0.67148   0.84567   0.00000  Uiso   1.00
H1484  H     0.96387   0.94398   0.84963   0.00000  Uiso   1.00
H1485  H     0.95554   0.90929   0.53472   0.00000  Uiso   1.00
H1486  H     0.78617   0.70250   0.58230   0.00000  Uiso   1.00
H1487  H     0.75222   0.99717   0.53897   0.00000  Uiso   1.00
H1488  H     0.69900   0.69160   0.63260   0.00000  Uiso   1.00
H1489  H     0.99997   0.98594   0.58943   0.00000  Uiso   1.00
H1490  H     0.74399   0.92157   0.59420   0.00000  Uiso   1.00
H1491  H     0.70180   0.92858   0.64602   0.00000  Uiso   1.00
H1492  H     0.77143   0.95935   0.64093   0.00000  Uiso   1.00
H1493  H     0.72588   0.73722   0.96668   0.00000  Uiso   1.00
H1494  H     0.89969   0.66873   0.74407   0.00000  Uiso   1.00
H1495  H     0.76676   0.99787   0.74997   0.00000  Uiso   1.00
H1496  H     0.67104   0.79450   0.71602   0.00000  Uiso   1.00
H1497  H     0.99563   0.87219   0.78397   0.00000  Uiso   1.00
H1498  H     0.85266   0.67947   0.65329   0.00000  Uiso   1.00
N1499  N     0.98344   0.81932   0.73783   0.00000  Uiso   1.00
N1500  N     0.68322   0.84735   0.76217   0.00000  Uiso   1.00
O1501  O     0.79642   0.91286   0.75299   0.00000  Uiso   1.00
O1502  O     0.71682   0.73505   0.55293   0.00000  Uiso   1.00
O1503  O     0.87025   0.75381   0.74702   0.00000  Uiso   1.00
O1504  O     0.89280   0.90387   0.74519   0.00000  Uiso   1.00
O1505  O     0.77387   0.76279   0.75482   0.00000  Uiso   1.00
O1506  O     0.78514   0.83784   0.81998   0.00000  Uiso   1.00
O1507  O     0.88153   0.82883   0.68003   0.00000  Uiso   1.00
O1508  O     0.88152   0.82885   0.81218   0.00000  Uiso   1.00
O1509  O     0.78515   0.83781   0.68783   0.00000  Uiso   1.00
O1510  O     0.96727   0.90874   0.94674   0.00000  Uiso   1.00
Zn1511 Zn    0.76898   0.83933   0.75521   0.00000  Uiso   1.00
Zn1512 Zn    0.89769   0.82734   0.74479   0.00000  Uiso   1.00
loop_
_geom_bond_atom_site_label_1
_geom_bond_atom_site_label_2
_geom_bond_distance
_geom_bond_site_symmetry_2
_ccdc_geom_bond_type
C1     O76     1.289   .     A
C1     O73     1.288   .     A
C1     C30     1.403   .     S
C2     H46     1.081   .     S
C2     C13     1.380   .     A
C2     C4      1.386   .     A
C3     C33     1.427   .     S
C3     C34     1.385   .     A
C3     C5      1.406   .     A
C4     C6      1.408   .     A
C4     C32     1.432   .     S
C5     C16     1.528   .     S
C5     C7      1.404   .     A
C6     C19     1.526   .     S
C6     C8      1.408   .     A
C7     C14     1.403   .     A
C7     C9      1.417   .     A
C8     C15     1.407   .     A
C8     C10     1.418   .     A
C9     C11     1.410   .     A
C9     C766    1.397   1_554 S
C10    C13     1.411   .     A
C10    C765    1.397   .     S
C11    C34     1.383   .     A
C11    C29     1.405   .     A
C12    O77     1.290   .     A
C12    C31     1.403   .     S
C12    O75     1.288   .     A
C13    C23     1.402   .     A
C14    H57     1.081   .     S
C14    C779    1.393   1_554 S
C15    H65     1.080   .     S
C15    C785    1.387   .     S
C16    C17     1.545   .     S
C16    H40     1.108   .     S
C16    H41     1.106   .     S
C17    H39     1.104   .     S
C17    H38     1.107   .     S
C17    C270    1.530   .     S
C18    H70     1.108   .     S
C18    H37     1.111   .     S
C18    H36     1.108   .     S
C18    C521    1.530   1_545 S
C19    C20     1.548   .     S
C19    H48     1.109   .     S
C19    H49     1.107   .     S
C20    H45     1.111   .     S
C20    H47     1.106   .     S
C20    C525    1.525   1_545 S
C21    H44     1.110   .     S
C21    H42     1.108   .     S
C21    C272    1.525   .     S
C21    H295    1.110   .     S
C22    O82     1.417   .     S
C22    C24     1.531   .     S
C22    H51     1.116   .     S
C22    H134    1.108   .     S
C23    O82     1.386   .     S
C23    C770    1.393   .     S
C24    H52     1.104   .     S
C24    C25     1.533   .     S
C24    H305    1.111   .     S
C25    H56     1.109   .     S
C25    H138    1.108   .     S
C25    H391    1.110   .     S
C26    H58     1.111   .     S
C26    O74     1.415   .     S
C26    C531    1.522   1_545 S
C26    H563    1.114   1_545 S
C27    C28     1.527   .     S
C27    C278    1.522   .     S
C27    H312    1.112   .     S
C27    H229    1.098   1_455 S
C28    H64     1.107   .     S
C28    H63     1.110   .     S
C28    H62     1.111   .     S
C29    O74     1.383   .     S
C29    C771    1.387   1_554 S
C30    C283    1.329   .     S
C30    H318    1.088   .     S
C31    C534    1.329   1_545 S
C31    H571    1.088   1_545 S
C32    O80     1.293   .     A
C32    O78     1.296   .     A
C33    O79     1.295   .     A
C33    O81     1.293   .     A
C34    H35     1.085   .     S
H43    C525    1.110   1_545 S
H50    C190    1.108   1_455 S
H53    C528    1.111   1_545 S
H54    C193    1.108   1_455 S
H55    C697    1.110   1_445 S
H59    C278    1.114   .     S
H60    C531    1.112   1_545 S
H61    C111    1.098   .     S
H66    C534    1.088   1_545 S
H67    C283    1.088   .     S
H68    N239    1.029   1_455 S
H69    N156    1.029   .     S
N71    Zn84    2.034   .     S
N71    H152    1.029   .     S
N71    N156    1.283   .     S
N72    Zn83    2.034   .     S
N72    N239    1.283   1_455 S
N72    H237    1.029   1_455 S
O73    Zn83    1.972   .     S
O75    Zn84    1.972   .     S
O76    Zn84    1.978   .     S
O77    Zn83    1.978   .     S
O78    Zn83    1.985   .     S
O79    Zn84    1.985   .     S
O80    Zn84    2.024   .     S
O81    Zn83    2.024   .     S
C85    O160    1.289   .     A
C85    O157    1.288   .     A
C85    C114    1.403   .     S
C86    H130    1.081   .     S
C86    C97     1.380   .     A
C86    C88     1.386   .     A
C87    C117    1.427   .     S
C87    C118    1.385   .     A
C87    C89     1.406   .     A
C88    C90     1.408   .     A
C88    C116    1.432   .     S
C89    C100    1.528   .     S
C89    C91     1.404   .     A
C90    C103    1.526   .     S
C90    C92     1.408   .     A
C91    C98     1.403   .     A
C91    C93     1.417   .     A
C92    C99     1.407   .     A
C92    C94     1.418   .     A
C93    C95     1.410   .     A
C93    C850    1.397   1_554 S
C94    C97     1.411   .     A
C94    C849    1.397   .     S
C95    C118    1.383   .     A
C95    C113    1.405   .     A
C96    O161    1.290   .     A
C96    C115    1.403   .     S
C96    O159    1.288   .     A
C97    C107    1.402   .     A
C98    H141    1.081   .     S
C98    C863    1.393   1_554 S
C99    H149    1.080   .     S
C99    C869    1.387   .     S
C100   C101    1.545   .     S
C100   H124    1.108   .     S
C100   H125    1.106   .     S
C101   H123    1.104   .     S
C101   H122    1.107   .     S
C101   C354    1.530   .     S
C102   H154    1.108   .     S
C102   H121    1.111   .     S
C102   H120    1.108   .     S
C102   C605    1.530   1_545 S
C103   C104    1.548   .     S
C103   H132    1.109   .     S
C103   H133    1.107   .     S
C104   H129    1.111   .     S
C104   H131    1.106   .     S
C104   C609    1.525   1_545 S
C105   H128    1.110   .     S
C105   H126    1.108   .     S
C105   C356    1.525   .     S
C105   H379    1.110   .     S
C106   O166    1.417   .     S
C106   C108    1.531   .     S
C106   H135    1.116   .     S
C106   H218    1.108   .     S
C107   O166    1.386   .     S
C107   C854    1.393   .     S
C108   H136    1.104   .     S
C108   C109    1.533   .     S
C108   H389    1.111   .     S
C109   H140    1.109   .     S
C109   H222    1.108   .     S
C109   H475    1.110   .     S
C110   H142    1.111   .     S
C110   O158    1.415   .     S
C110   C615    1.522   1_545 S
C110   H647    1.114   1_545 S
C111   C112    1.527   .     S
C111   C362    1.522   .     S
C111   H396    1.112   .     S
C112   H148    1.107   .     S
C112   H147    1.110   .     S
C112   H146    1.111   .     S
C113   O158    1.383   .     S
C113   C855    1.387   1_554 S
C114   C367    1.329   .     S
C114   H402    1.088   .     S
C115   C618    1.329   1_545 S
C115   H655    1.088   1_545 S
C116   O164    1.293   .     A
C116   O162    1.296   .     A
C117   O163    1.295   .     A
C117   O165    1.293   .     A
C118   H119    1.085   .     S
H127   C609    1.110   1_545 S
H137   C612    1.111   1_545 S
H139   C529    1.110   1_545 S
H143   C362    1.114   .     S
H144   C615    1.112   1_545 S
H145   C195    1.098   .     S
H150   C618    1.088   1_545 S
H151   C367    1.088   .     S
H153   N240    1.029   .     S
N155   Zn168   2.034   .     S
N155   H236    1.029   .     S
N155   N240    1.283   .     S
N156   Zn167   2.034   .     S
O157   Zn167   1.972   .     S
O159   Zn168   1.972   .     S
O160   Zn168   1.978   .     S
O161   Zn167   1.978   .     S
O162   Zn167   1.985   .     S
O163   Zn168   1.985   .     S
O164   Zn168   2.024   .     S
O165   Zn167   2.024   .     S
C169   O244    1.289   .     A
C169   O241    1.288   .     A
C169   C198    1.403   .     S
C170   H214    1.081   .     S
C170   C181    1.380   .     A
C170   C172    1.386   .     A
C171   C201    1.427   .     S
C171   C202    1.385   .     A
C171   C173    1.406   .     A
C172   C174    1.408   .     A
C172   C200    1.432   .     S
C173   C184    1.528   .     S
C173   C175    1.404   .     A
C174   C187    1.526   .     S
C174   C176    1.408   .     A
C175   C182    1.403   .     A
C175   C177    1.417   .     A
C176   C183    1.407   .     A
C176   C178    1.418   .     A
C177   C179    1.410   .     A
C177   C934    1.397   1_554 S
C178   C181    1.411   .     A
C178   C933    1.397   .     S
C179   C202    1.383   .     A
C179   C197    1.405   .     A
C180   O245    1.290   .     A
C180   C199    1.403   .     S
C180   O243    1.288   .     A
C181   C191    1.402   .     A
C182   H225    1.081   .     S
C182   C947    1.393   1_554 S
C183   H233    1.080   .     S
C183   C953    1.387   .     S
C184   C185    1.545   .     S
C184   H208    1.108   .     S
C184   H209    1.106   .     S
C185   H207    1.104   .     S
C185   H206    1.107   .     S
C185   C438    1.530   .     S
C186   H238    1.108   .     S
C186   H205    1.111   .     S
C186   H204    1.108   .     S
C186   C689    1.530   1_545 S
C187   C188    1.548   .     S
C187   H216    1.109   .     S
C187   H217    1.107   .     S
C188   H213    1.111   .     S
C188   H215    1.106   .     S
C188   C693    1.525   1_545 S
C189   H212    1.110   .     S
C189   H210    1.108   .     S
C189   C440    1.525   .     S
C189   H463    1.110   .     S
C190   O250    1.417   .     S
C190   C192    1.531   .     S
C190   H219    1.116   .     S
C190   H50     1.108   1_655 S
C191   O250    1.386   .     S
C191   C938    1.393   .     S
C192   H220    1.104   .     S
C192   C193    1.533   .     S
C192   H473    1.111   .     S
C193   H224    1.109   .     S
C193   H54     1.108   1_655 S
C193   H307    1.110   1_655 S
C194   H226    1.111   .     S
C194   O242    1.415   .     S
C194   C699    1.522   1_545 S
C194   H731    1.114   1_545 S
C195   C196    1.527   .     S
C195   C446    1.522   .     S
C195   H480    1.112   .     S
C196   H232    1.107   .     S
C196   H231    1.110   .     S
C196   H230    1.111   .     S
C197   O242    1.383   .     S
C197   C939    1.387   1_554 S
C198   C451    1.329   .     S
C198   H486    1.088   .     S
C199   C702    1.329   1_545 S
C199   H739    1.088   1_545 S
C200   O248    1.293   .     A
C200   O246    1.296   .     A
C201   O247    1.295   .     A
C201   O249    1.293   .     A
C202   H203    1.085   .     S
H211   C693    1.110   1_545 S
H221   C696    1.111   1_545 S
H223   C613    1.110   1_545 S
H227   C446    1.114   .     S
H228   C699    1.112   1_545 S
H229   C27     1.098   1_655 S
H234   C702    1.088   1_545 S
H235   C451    1.088   .     S
H237   N72     1.029   1_655 S
N239   Zn252   2.034   .     S
N239   H68     1.029   1_655 S
N239   N72     1.283   1_655 S
N240   Zn251   2.034   .     S
O241   Zn251   1.972   .     S
O243   Zn252   1.972   .     S
O244   Zn252   1.978   .     S
O245   Zn251   1.978   .     S
O246   Zn251   1.985   .     S
O247   Zn252   1.985   .     S
O248   Zn252   2.024   .     S
O249   Zn251   2.024   .     S
C253   O328    1.289   .     A
C253   O325    1.288   .     A
C253   C282    1.403   .     S
C254   H298    1.081   .     S
C254   C265    1.380   .     A
C254   C256    1.386   .     A
C255   C285    1.427   .     S
C255   C286    1.385   .     A
C255   C257    1.406   .     A
C256   C258    1.408   .     A
C256   C284    1.432   .     S
C257   C268    1.528   .     S
C257   C259    1.404   .     A
C258   C271    1.526   .     S
C258   C260    1.408   .     A
C259   C266    1.403   .     A
C259   C261    1.417   .     A
C260   C267    1.407   .     A
C260   C262    1.418   .     A
C261   C263    1.410   .     A
C261   C1018   1.397   1_554 S
C262   C265    1.411   .     A
C262   C1017   1.397   .     S
C263   C286    1.383   .     A
C263   C281    1.405   .     A
C264   O329    1.290   .     A
C264   C283    1.403   .     S
C264   O327    1.288   .     A
C265   C275    1.402   .     A
C266   H309    1.081   .     S
C266   C1031   1.393   1_554 S
C267   H317    1.080   .     S
C267   C1037   1.387   .     S
C268   C269    1.545   .     S
C268   H292    1.108   .     S
C268   H293    1.106   .     S
C269   H291    1.104   .     S
C269   H290    1.107   .     S
C269   C522    1.530   .     S
C270   H322    1.108   .     S
C270   H289    1.111   .     S
C270   H288    1.108   .     S
C271   C272    1.548   .     S
C271   H300    1.109   .     S
C271   H301    1.107   .     S
C272   H297    1.111   .     S
C272   H299    1.106   .     S
C273   H296    1.110   .     S
C273   H294    1.108   .     S
C273   C524    1.525   .     S
C273   H547    1.110   .     S
C274   O334    1.417   .     S
C274   C276    1.531   .     S
C274   H303    1.116   .     S
C274   H386    1.108   .     S
C275   O334    1.386   .     S
C275   C1022   1.393   .     S
C276   H304    1.104   .     S
C276   C277    1.533   .     S
C276   H557    1.111   .     S
C277   H308    1.109   .     S
C277   H390    1.108   .     S
C277   H643    1.110   .     S
C278   H310    1.111   .     S
C278   O326    1.415   .     S
C279   C280    1.527   .     S
C279   C530    1.522   .     S
C279   H564    1.112   .     S
C279   H481    1.098   1_455 S
C280   H316    1.107   .     S
C280   H315    1.110   .     S
C280   H314    1.111   .     S
C281   O326    1.383   .     S
C281   C1023   1.387   1_554 S
C282   C535    1.329   .     S
C282   H570    1.088   .     S
C284   O332    1.293   .     A
C284   O330    1.296   .     A
C285   O331    1.295   .     A
C285   O333    1.293   .     A
C286   H287    1.085   .     S
H302   C442    1.108   1_455 S
H306   C445    1.108   1_455 S
H307   C193    1.110   1_455 S
H311   C530    1.114   .     S
H313   C363    1.098   .     S
H319   C535    1.088   .     S
H320   N491    1.029   1_455 S
H321   N408    1.029   .     S
N323   Zn336   2.034   .     S
N323   H404    1.029   .     S
N323   N408    1.283   .     S
N324   Zn335   2.034   .     S
N324   N491    1.283   1_455 S
N324   H489    1.029   1_455 S
O325   Zn335   1.972   .     S
O327   Zn336   1.972   .     S
O328   Zn336   1.978   .     S
O329   Zn335   1.978   .     S
O330   Zn335   1.985   .     S
O331   Zn336   1.985   .     S
O332   Zn336   2.024   .     S
O333   Zn335   2.024   .     S
C337   O412    1.289   .     A
C337   O409    1.288   .     A
C337   C366    1.403   .     S
C338   H382    1.081   .     S
C338   C349    1.380   .     A
C338   C340    1.386   .     A
C339   C369    1.427   .     S
C339   C370    1.385   .     A
C339   C341    1.406   .     A
C340   C342    1.408   .     A
C340   C368    1.432   .     S
C341   C352    1.528   .     S
C341   C343    1.404   .     A
C342   C355    1.526   .     S
C342   C344    1.408   .     A
C343   C350    1.403   .     A
C343   C345    1.417   .     A
C344   C351    1.407   .     A
C344   C346    1.418   .     A
C345   C347    1.410   .     A
C345   C1102   1.397   1_554 S
C346   C349    1.411   .     A
C346   C1101   1.397   .     S
C347   C370    1.383   .     A
C347   C365    1.405   .     A
C348   O413    1.290   .     A
C348   C367    1.403   .     S
C348   O411    1.288   .     A
C349   C359    1.402   .     A
C350   H393    1.081   .     S
C350   C1115   1.393   1_554 S
C351   H401    1.080   .     S
C351   C1121   1.387   .     S
C352   C353    1.545   .     S
C352   H376    1.108   .     S
C352   H377    1.106   .     S
C353   H375    1.104   .     S
C353   H374    1.107   .     S
C353   C606    1.530   .     S
C354   H406    1.108   .     S
C354   H373    1.111   .     S
C354   H372    1.108   .     S
C355   C356    1.548   .     S
C355   H384    1.109   .     S
C355   H385    1.107   .     S
C356   H381    1.111   .     S
C356   H383    1.106   .     S
C357   H380    1.110   .     S
C357   H378    1.108   .     S
C357   C608    1.525   .     S
C357   H631    1.110   .     S
C358   O418    1.417   .     S
C358   C360    1.531   .     S
C358   H387    1.116   .     S
C358   H470    1.108   .     S
C359   O418    1.386   .     S
C359   C1106   1.393   .     S
C360   H388    1.104   .     S
C360   C361    1.533   .     S
C360   H641    1.111   .     S
C361   H392    1.109   .     S
C361   H474    1.108   .     S
C361   H727    1.110   .     S
C362   H394    1.111   .     S
C362   O410    1.415   .     S
C363   C364    1.527   .     S
C363   C614    1.522   .     S
C363   H648    1.112   .     S
C364   H400    1.107   .     S
C364   H399    1.110   .     S
C364   H398    1.111   .     S
C365   O410    1.383   .     S
C365   C1107   1.387   1_554 S
C366   C619    1.329   .     S
C366   H654    1.088   .     S
C368   O416    1.293   .     A
C368   O414    1.296   .     A
C369   O415    1.295   .     A
C369   O417    1.293   .     A
C370   H371    1.085   .     S
H395   C614    1.114   .     S
H397   C447    1.098   .     S
H403   C619    1.088   .     S
H405   N492    1.029   .     S
N407   Zn420   2.034   .     S
N407   H488    1.029   .     S
N407   N492    1.283   .     S
N408   Zn419   2.034   .     S
O409   Zn419   1.972   .     S
O411   Zn420   1.972   .     S
O412   Zn420   1.978   .     S
O413   Zn419   1.978   .     S
O414   Zn419   1.985   .     S
O415   Zn420   1.985   .     S
O416   Zn420   2.024   .     S
O417   Zn419   2.024   .     S
C421   O496    1.289   .     A
C421   O493    1.288   .     A
C421   C450    1.403   .     S
C422   H466    1.081   .     S
C422   C433    1.380   .     A
C422   C424    1.386   .     A
C423   C453    1.427   .     S
C423   C454    1.385   .     A
C423   C425    1.406   .     A
C424   C426    1.408   .     A
C424   C452    1.432   .     S
C425   C436    1.528   .     S
C425   C427    1.404   .     A
C426   C439    1.526   .     S
C426   C428    1.408   .     A
C427   C434    1.403   .     A
C427   C429    1.417   .     A
C428   C435    1.407   .     A
C428   C430    1.418   .     A
C429   C431    1.410   .     A
C429   C1186   1.397   1_554 S
C430   C433    1.411   .     A
C430   C1185   1.397   .     S
C431   C454    1.383   .     A
C431   C449    1.405   .     A
C432   O497    1.290   .     A
C432   C451    1.403   .     S
C432   O495    1.288   .     A
C433   C443    1.402   .     A
C434   H477    1.081   .     S
C434   C1199   1.393   1_554 S
C435   H485    1.080   .     S
C435   C1205   1.387   .     S
C436   C437    1.545   .     S
C436   H460    1.108   .     S
C436   H461    1.106   .     S
C437   H459    1.104   .     S
C437   H458    1.107   .     S
C437   C690    1.530   .     S
C438   H490    1.108   .     S
C438   H457    1.111   .     S
C438   H456    1.108   .     S
C439   C440    1.548   .     S
C439   H468    1.109   .     S
C439   H469    1.107   .     S
C440   H465    1.111   .     S
C440   H467    1.106   .     S
C441   H464    1.110   .     S
C441   H462    1.108   .     S
C441   C692    1.525   .     S
C441   H715    1.110   .     S
C442   O502    1.417   .     S
C442   C444    1.531   .     S
C442   H471    1.116   .     S
C442   H302    1.108   1_655 S
C443   O502    1.386   .     S
C443   C1190   1.393   .     S
C444   H472    1.104   .     S
C444   C445    1.533   .     S
C444   H725    1.111   .     S
C445   H476    1.109   .     S
C445   H306    1.108   1_655 S
C445   H559    1.110   1_655 S
C446   H478    1.111   .     S
C446   O494    1.415   .     S
C447   C448    1.527   .     S
C447   C698    1.522   .     S
C447   H732    1.112   .     S
C448   H484    1.107   .     S
C448   H483    1.110   .     S
C448   H482    1.111   .     S
C449   O494    1.383   .     S
C449   C1191   1.387   1_554 S
C450   C703    1.329   .     S
C450   H738    1.088   .     S
C452   O500    1.293   .     A
C452   O498    1.296   .     A
C453   O499    1.295   .     A
C453   O501    1.293   .     A
C454   H455    1.085   .     S
H479   C698    1.114   .     S
H481   C279    1.098   1_655 S
H487   C703    1.088   .     S
H489   N324    1.029   1_655 S
N491   Zn504   2.034   .     S
N491   H320    1.029   1_655 S
N491   N324    1.283   1_655 S
N492   Zn503   2.034   .     S
O493   Zn503   1.972   .     S
O495   Zn504   1.972   .     S
O496   Zn504   1.978   .     S
O497   Zn503   1.978   .     S
O498   Zn503   1.985   .     S
O499   Zn504   1.985   .     S
O500   Zn504   2.024   .     S
O501   Zn503   2.024   .     S
C505   O580    1.289   .     A
C505   O577    1.288   .     A
C505   C534    1.403   .     S
C506   H550    1.081   .     S
C506   C517    1.380   .     A
C506   C508    1.386   .     A
C507   C537    1.427   .     S
C507   C538    1.385   .     A
C507   C509    1.406   .     A
C508   C510    1.408   .     A
C508   C536    1.432   .     S
C509   C520    1.528   .     S
C509   C511    1.404   .     A
C510   C523    1.526   .     S
C510   C512    1.408   .     A
C511   C518    1.403   .     A
C511   C513    1.417   .     A
C512   C519    1.407   .     A
C512   C514    1.418   .     A
C513   C515    1.410   .     A
C513   C1270   1.397   1_554 S
C514   C517    1.411   .     A
C514   C1269   1.397   .     S
C515   C538    1.383   .     A
C515   C533    1.405   .     A
C516   O581    1.290   .     A
C516   C535    1.403   .     S
C516   O579    1.288   .     A
C517   C527    1.402   .     A
C518   H561    1.081   .     S
C518   C1283   1.393   1_554 S
C519   H569    1.080   .     S
C519   C1289   1.387   .     S
C520   C521    1.545   .     S
C520   H544    1.108   .     S
C520   H545    1.106   .     S
C521   H543    1.104   .     S
C521   H542    1.107   .     S
C521   C18     1.530   1_565 S
C522   H574    1.108   .     S
C522   H541    1.111   .     S
C522   H540    1.108   .     S
C523   C524    1.548   .     S
C523   H552    1.109   .     S
C523   H553    1.107   .     S
C524   H549    1.111   .     S
C524   H551    1.106   .     S
C525   H548    1.110   .     S
C525   H546    1.108   .     S
C525   C20     1.525   1_565 S
C525   H43     1.110   1_565 S
C526   O586    1.417   .     S
C526   C528    1.531   .     S
C526   H555    1.116   .     S
C526   H638    1.108   .     S
C527   O586    1.386   .     S
C527   C1274   1.393   .     S
C528   H556    1.104   .     S
C528   C529    1.533   .     S
C528   H53     1.111   1_565 S
C529   H560    1.109   .     S
C529   H642    1.108   .     S
C529   H139    1.110   1_565 S
C530   H562    1.111   .     S
C530   O578    1.415   .     S
C531   C532    1.527   .     S
C531   C26     1.522   1_565 S
C531   H60     1.112   1_565 S
C531   H733    1.098   1_455 S
C532   H568    1.107   .     S
C532   H567    1.110   .     S
C532   H566    1.111   .     S
C533   O578    1.383   .     S
C533   C1275   1.387   1_554 S
C534   C31     1.329   1_565 S
C534   H66     1.088   1_565 S
C536   O584    1.293   .     A
C536   O582    1.296   .     A
C537   O583    1.295   .     A
C537   O585    1.293   .     A
C538   H539    1.085   .     S
H554   C694    1.108   1_455 S
H558   C697    1.108   1_455 S
H559   C445    1.110   1_455 S
H563   C26     1.114   1_565 S
H565   C615    1.098   .     S
H571   C31     1.088   1_565 S
H572   N743    1.029   1_455 S
H573   N660    1.029   .     S
N575   Zn588   2.034   .     S
N575   H656    1.029   .     S
N575   N660    1.283   .     S
N576   Zn587   2.034   .     S
N576   N743    1.283   1_455 S
N576   H741    1.029   1_455 S
O577   Zn587   1.972   .     S
O579   Zn588   1.972   .     S
O580   Zn588   1.978   .     S
O581   Zn587   1.978   .     S
O582   Zn587   1.985   .     S
O583   Zn588   1.985   .     S
O584   Zn588   2.024   .     S
O585   Zn587   2.024   .     S
C589   O664    1.289   .     A
C589   O661    1.288   .     A
C589   C618    1.403   .     S
C590   H634    1.081   .     S
C590   C601    1.380   .     A
C590   C592    1.386   .     A
C591   C621    1.427   .     S
C591   C622    1.385   .     A
C591   C593    1.406   .     A
C592   C594    1.408   .     A
C592   C620    1.432   .     S
C593   C604    1.528   .     S
C593   C595    1.404   .     A
C594   C607    1.526   .     S
C594   C596    1.408   .     A
C595   C602    1.403   .     A
C595   C597    1.417   .     A
C596   C603    1.407   .     A
C596   C598    1.418   .     A
C597   C599    1.410   .     A
C597   C1354   1.397   1_554 S
C598   C601    1.411   .     A
C598   C1353   1.397   .     S
C599   C622    1.383   .     A
C599   C617    1.405   .     A
C600   O665    1.290   .     A
C600   C619    1.403   .     S
C600   O663    1.288   .     A
C601   C611    1.402   .     A
C602   H645    1.081   .     S
C602   C1367   1.393   1_554 S
C603   H653    1.080   .     S
C603   C1373   1.387   .     S
C604   C605    1.545   .     S
C604   H628    1.108   .     S
C604   H629    1.106   .     S
C605   H627    1.104   .     S
C605   H626    1.107   .     S
C605   C102    1.530   1_565 S
C606   H658    1.108   .     S
C606   H625    1.111   .     S
C606   H624    1.108   .     S
C607   C608    1.548   .     S
C607   H636    1.109   .     S
C607   H637    1.107   .     S
C608   H633    1.111   .     S
C608   H635    1.106   .     S
C609   H632    1.110   .     S
C609   H630    1.108   .     S
C609   C104    1.525   1_565 S
C609   H127    1.110   1_565 S
C610   O670    1.417   .     S
C610   C612    1.531   .     S
C610   H639    1.116   .     S
C610   H722    1.108   .     S
C611   O670    1.386   .     S
C611   C1358   1.393   .     S
C612   H640    1.104   .     S
C612   C613    1.533   .     S
C612   H137    1.111   1_565 S
C613   H644    1.109   .     S
C613   H726    1.108   .     S
C613   H223    1.110   1_565 S
C614   H646    1.111   .     S
C614   O662    1.415   .     S
C615   C616    1.527   .     S
C615   C110    1.522   1_565 S
C615   H144    1.112   1_565 S
C616   H652    1.107   .     S
C616   H651    1.110   .     S
C616   H650    1.111   .     S
C617   O662    1.383   .     S
C617   C1359   1.387   1_554 S
C618   C115    1.329   1_565 S
C618   H150    1.088   1_565 S
C620   O668    1.293   .     A
C620   O666    1.296   .     A
C621   O667    1.295   .     A
C621   O669    1.293   .     A
C622   H623    1.085   .     S
H647   C110    1.114   1_565 S
H649   C699    1.098   .     S
H655   C115    1.088   1_565 S
H657   N744    1.029   .     S
N659   Zn672   2.034   .     S
N659   H740    1.029   .     S
N659   N744    1.283   .     S
N660   Zn671   2.034   .     S
O661   Zn671   1.972   .     S
O663   Zn672   1.972   .     S
O664   Zn672   1.978   .     S
O665   Zn671   1.978   .     S
O666   Zn671   1.985   .     S
O667   Zn672   1.985   .     S
O668   Zn672   2.024   .     S
O669   Zn671   2.024   .     S
C673   O748    1.289   .     A
C673   O745    1.288   .     A
C673   C702    1.403   .     S
C674   H718    1.081   .     S
C674   C685    1.380   .     A
C674   C676    1.386   .     A
C675   C705    1.427   .     S
C675   C706    1.385   .     A
C675   C677    1.406   .     A
C676   C678    1.408   .     A
C676   C704    1.432   .     S
C677   C688    1.528   .     S
C677   C679    1.404   .     A
C678   C691    1.526   .     S
C678   C680    1.408   .     A
C679   C686    1.403   .     A
C679   C681    1.417   .     A
C680   C687    1.407   .     A
C680   C682    1.418   .     A
C681   C683    1.410   .     A
C681   C1438   1.397   1_554 S
C682   C685    1.411   .     A
C682   C1437   1.397   .     S
C683   C706    1.383   .     A
C683   C701    1.405   .     A
C684   O749    1.290   .     A
C684   C703    1.403   .     S
C684   O747    1.288   .     A
C685   C695    1.402   .     A
C686   H729    1.081   .     S
C686   C1451   1.393   1_554 S
C687   H737    1.080   .     S
C687   C1457   1.387   .     S
C688   C689    1.545   .     S
C688   H712    1.108   .     S
C688   H713    1.106   .     S
C689   H711    1.104   .     S
C689   H710    1.107   .     S
C689   C186    1.530   1_565 S
C690   H742    1.108   .     S
C690   H709    1.111   .     S
C690   H708    1.108   .     S
C691   C692    1.548   .     S
C691   H720    1.109   .     S
C691   H721    1.107   .     S
C692   H717    1.111   .     S
C692   H719    1.106   .     S
C693   H716    1.110   .     S
C693   H714    1.108   .     S
C693   C188    1.525   1_565 S
C693   H211    1.110   1_565 S
C694   O754    1.417   .     S
C694   C696    1.531   .     S
C694   H723    1.116   .     S
C694   H554    1.108   1_655 S
C695   O754    1.386   .     S
C695   C1442   1.393   .     S
C696   H724    1.104   .     S
C696   C697    1.533   .     S
C696   H221    1.111   1_565 S
C697   H728    1.109   .     S
C697   H558    1.108   1_655 S
C697   H55     1.110   1_665 S
C698   H730    1.111   .     S
C698   O746    1.415   .     S
C699   C700    1.527   .     S
C699   C194    1.522   1_565 S
C699   H228    1.112   1_565 S
C700   H736    1.107   .     S
C700   H735    1.110   .     S
C700   H734    1.111   .     S
C701   O746    1.383   .     S
C701   C1443   1.387   1_554 S
C702   C199    1.329   1_565 S
C702   H234    1.088   1_565 S
C704   O752    1.293   .     A
C704   O750    1.296   .     A
C705   O751    1.295   .     A
C705   O753    1.293   .     A
C706   H707    1.085   .     S
H731   C194    1.114   1_565 S
H733   C531    1.098   1_655 S
H739   C199    1.088   1_565 S
H741   N576    1.029   1_655 S
N743   Zn756   2.034   .     S
N743   H572    1.029   1_655 S
N743   N576    1.283   1_655 S
N744   Zn755   2.034   .     S
O745   Zn755   1.972   .     S
O747   Zn756   1.972   .     S
O748   Zn756   1.978   .     S
O749   Zn755   1.978   .     S
O750   Zn755   1.985   .     S
O751   Zn756   1.985   .     S
O752   Zn756   2.024   .     S
O753   Zn755   2.024   .     S
C757   O832    1.289   .     A
C757   O829    1.288   .     A
C757   C786    1.403   .     S
C758   H802    1.081   .     S
C758   C769    1.380   .     A
C758   C760    1.386   .     A
C759   C789    1.427   .     S
C759   C790    1.385   .     A
C759   C761    1.406   .     A
C760   C762    1.408   .     A
C760   C788    1.432   .     S
C761   C772    1.528   .     S
C761   C763    1.404   .     A
C762   C775    1.526   .     S
C762   C764    1.408   .     A
C763   C770    1.403   .     A
C763   C765    1.417   .     A
C764   C771    1.407   .     A
C764   C766    1.418   .     A
C765   C767    1.410   .     A
C766   C769    1.411   .     A
C766   C9      1.397   1_556 S
C767   C790    1.383   .     A
C767   C785    1.405   .     A
C768   O833    1.290   .     A
C768   C787    1.403   .     S
C768   O831    1.288   .     A
C769   C779    1.402   .     A
C770   H813    1.081   .     S
C771   H821    1.080   .     S
C771   C29     1.387   1_556 S
C772   C773    1.545   .     S
C772   H796    1.108   .     S
C772   H797    1.106   .     S
C773   H795    1.104   .     S
C773   H794    1.107   .     S
C773   C1026   1.530   .     S
C774   H826    1.108   .     S
C774   H793    1.111   .     S
C774   H792    1.108   .     S
C774   C1277   1.530   1_545 S
C775   C776    1.548   .     S
C775   H804    1.109   .     S
C775   H805    1.107   .     S
C776   H801    1.111   .     S
C776   H803    1.106   .     S
C776   C1281   1.525   1_545 S
C777   H800    1.110   .     S
C777   H798    1.108   .     S
C777   C1028   1.525   .     S
C777   H1051   1.110   .     S
C778   O838    1.417   .     S
C778   C780    1.531   .     S
C778   H807    1.116   .     S
C778   H890    1.108   .     S
C779   O838    1.386   .     S
C779   C14     1.393   1_556 S
C780   H808    1.104   .     S
C780   C781    1.533   .     S
C780   H1061   1.111   .     S
C781   H812    1.109   .     S
C781   H894    1.108   .     S
C781   H1147   1.110   .     S
C782   H814    1.111   .     S
C782   O830    1.415   .     S
C782   C1287   1.522   1_545 S
C782   H1319   1.114   1_545 S
C783   C784    1.527   .     S
C783   C1034   1.522   .     S
C783   H1068   1.112   .     S
C783   H985    1.098   1_455 S
C784   H820    1.107   .     S
C784   H819    1.110   .     S
C784   H818    1.111   .     S
C785   O830    1.383   .     S
C786   C1039   1.329   .     S
C786   H1074   1.088   .     S
C787   C1290   1.329   1_545 S
C787   H1327   1.088   1_545 S
C788   O836    1.293   .     A
C788   O834    1.296   .     A
C789   O835    1.295   .     A
C789   O837    1.293   .     A
C790   H791    1.085   .     S
H799   C1281   1.110   1_545 S
H806   C946    1.108   1_455 S
H809   C1284   1.111   1_545 S
H810   C949    1.108   1_455 S
H811   C1453   1.110   1_445 S
H815   C1034   1.114   .     S
H816   C1287   1.112   1_545 S
H817   C867    1.098   .     S
H822   C1290   1.088   1_545 S
H823   C1039   1.088   .     S
H824   N995    1.029   1_455 S
H825   N912    1.029   .     S
N827   Zn840   2.034   .     S
N827   H908    1.029   .     S
N827   N912    1.283   .     S
N828   Zn839   2.034   .     S
N828   N995    1.283   1_455 S
N828   H993    1.029   1_455 S
O829   Zn839   1.972   .     S
O831   Zn840   1.972   .     S
O832   Zn840   1.978   .     S
O833   Zn839   1.978   .     S
O834   Zn839   1.985   .     S
O835   Zn840   1.985   .     S
O836   Zn840   2.024   .     S
O837   Zn839   2.024   .     S
C841   O916    1.289   .     A
C841   O913    1.288   .     A
C841   C870    1.403   .     S
C842   H886    1.081   .     S
C842   C853    1.380   .     A
C842   C844    1.386   .     A
C843   C873    1.427   .     S
C843   C874    1.385   .     A
C843   C845    1.406   .     A
C844   C846    1.408   .     A
C844   C872    1.432   .     S
C845   C856    1.528   .     S
C845   C847    1.404   .     A
C846   C859    1.526   .     S
C846   C848    1.408   .     A
C847   C854    1.403   .     A
C847   C849    1.417   .     A
C848   C855    1.407   .     A
C848   C850    1.418   .     A
C849   C851    1.410   .     A
C850   C853    1.411   .     A
C850   C93     1.397   1_556 S
C851   C874    1.383   .     A
C851   C869    1.405   .     A
C852   O917    1.290   .     A
C852   C871    1.403   .     S
C852   O915    1.288   .     A
C853   C863    1.402   .     A
C854   H897    1.081   .     S
C855   H905    1.080   .     S
C855   C113    1.387   1_556 S
C856   C857    1.545   .     S
C856   H880    1.108   .     S
C856   H881    1.106   .     S
C857   H879    1.104   .     S
C857   H878    1.107   .     S
C857   C1110   1.530   .     S
C858   H910    1.108   .     S
C858   H877    1.111   .     S
C858   H876    1.108   .     S
C858   C1361   1.530   1_545 S
C859   C860    1.548   .     S
C859   H888    1.109   .     S
C859   H889    1.107   .     S
C860   H885    1.111   .     S
C860   H887    1.106   .     S
C860   C1365   1.525   1_545 S
C861   H884    1.110   .     S
C861   H882    1.108   .     S
C861   C1112   1.525   .     S
C861   H1135   1.110   .     S
C862   O922    1.417   .     S
C862   C864    1.531   .     S
C862   H891    1.116   .     S
C862   H974    1.108   .     S
C863   O922    1.386   .     S
C863   C98     1.393   1_556 S
C864   H892    1.104   .     S
C864   C865    1.533   .     S
C864   H1145   1.111   .     S
C865   H896    1.109   .     S
C865   H978    1.108   .     S
C865   H1231   1.110   .     S
C866   H898    1.111   .     S
C866   O914    1.415   .     S
C866   C1371   1.522   1_545 S
C866   H1403   1.114   1_545 S
C867   C868    1.527   .     S
C867   C1118   1.522   .     S
C867   H1152   1.112   .     S
C868   H904    1.107   .     S
C868   H903    1.110   .     S
C868   H902    1.111   .     S
C869   O914    1.383   .     S
C870   C1123   1.329   .     S
C870   H1158   1.088   .     S
C871   C1374   1.329   1_545 S
C871   H1411   1.088   1_545 S
C872   O920    1.293   .     A
C872   O918    1.296   .     A
C873   O919    1.295   .     A
C873   O921    1.293   .     A
C874   H875    1.085   .     S
H883   C1365   1.110   1_545 S
H893   C1368   1.111   1_545 S
H895   C1285   1.110   1_545 S
H899   C1118   1.114   .     S
H900   C1371   1.112   1_545 S
H901   C951    1.098   .     S
H906   C1374   1.088   1_545 S
H907   C1123   1.088   .     S
H909   N996    1.029   .     S
N911   Zn924   2.034   .     S
N911   H992    1.029   .     S
N911   N996    1.283   .     S
N912   Zn923   2.034   .     S
O913   Zn923   1.972   .     S
O915   Zn924   1.972   .     S
O916   Zn924   1.978   .     S
O917   Zn923   1.978   .     S
O918   Zn923   1.985   .     S
O919   Zn924   1.985   .     S
O920   Zn924   2.024   .     S
O921   Zn923   2.024   .     S
C925   O1000   1.289   .     A
C925   O997    1.288   .     A
C925   C954    1.403   .     S
C926   H970    1.081   .     S
C926   C937    1.380   .     A
C926   C928    1.386   .     A
C927   C957    1.427   .     S
C927   C958    1.385   .     A
C927   C929    1.406   .     A
C928   C930    1.408   .     A
C928   C956    1.432   .     S
C929   C940    1.528   .     S
C929   C931    1.404   .     A
C930   C943    1.526   .     S
C930   C932    1.408   .     A
C931   C938    1.403   .     A
C931   C933    1.417   .     A
C932   C939    1.407   .     A
C932   C934    1.418   .     A
C933   C935    1.410   .     A
C934   C937    1.411   .     A
C934   C177    1.397   1_556 S
C935   C958    1.383   .     A
C935   C953    1.405   .     A
C936   O1001   1.290   .     A
C936   C955    1.403   .     S
C936   O999    1.288   .     A
C937   C947    1.402   .     A
C938   H981    1.081   .     S
C939   H989    1.080   .     S
C939   C197    1.387   1_556 S
C940   C941    1.545   .     S
C940   H964    1.108   .     S
C940   H965    1.106   .     S
C941   H963    1.104   .     S
C941   H962    1.107   .     S
C941   C1194   1.530   .     S
C942   H994    1.108   .     S
C942   H961    1.111   .     S
C942   H960    1.108   .     S
C942   C1445   1.530   1_545 S
C943   C944    1.548   .     S
C943   H972    1.109   .     S
C943   H973    1.107   .     S
C944   H969    1.111   .     S
C944   H971    1.106   .     S
C944   C1449   1.525   1_545 S
C945   H968    1.110   .     S
C945   H966    1.108   .     S
C945   C1196   1.525   .     S
C945   H1219   1.110   .     S
C946   O1006   1.417   .     S
C946   C948    1.531   .     S
C946   H975    1.116   .     S
C946   H806    1.108   1_655 S
C947   O1006   1.386   .     S
C947   C182    1.393   1_556 S
C948   H976    1.104   .     S
C948   C949    1.533   .     S
C948   H1229   1.111   .     S
C949   H980    1.109   .     S
C949   H810    1.108   1_655 S
C949   H1063   1.110   1_655 S
C950   H982    1.111   .     S
C950   O998    1.415   .     S
C950   C1455   1.522   1_545 S
C950   H1487   1.114   1_545 S
C951   C952    1.527   .     S
C951   C1202   1.522   .     S
C951   H1236   1.112   .     S
C952   H988    1.107   .     S
C952   H987    1.110   .     S
C952   H986    1.111   .     S
C953   O998    1.383   .     S
C954   C1207   1.329   .     S
C954   H1242   1.088   .     S
C955   C1458   1.329   1_545 S
C955   H1495   1.088   1_545 S
C956   O1004   1.293   .     A
C956   O1002   1.296   .     A
C957   O1003   1.295   .     A
C957   O1005   1.293   .     A
C958   H959    1.085   .     S
H967   C1449   1.110   1_545 S
H977   C1452   1.111   1_545 S
H979   C1369   1.110   1_545 S
H983   C1202   1.114   .     S
H984   C1455   1.112   1_545 S
H985   C783    1.098   1_655 S
H990   C1458   1.088   1_545 S
H991   C1207   1.088   .     S
H993   N828    1.029   1_655 S
N995   Zn1008  2.034   .     S
N995   H824    1.029   1_655 S
N995   N828    1.283   1_655 S
N996   Zn1007  2.034   .     S
O997   Zn1007  1.972   .     S
O999   Zn1008  1.972   .     S
O1000  Zn1008  1.978   .     S
O1001  Zn1007  1.978   .     S
O1002  Zn1007  1.985   .     S
O1003  Zn1008  1.985   .     S
O1004  Zn1008  2.024   .     S
O1005  Zn1007  2.024   .     S
C1009  O1084   1.289   .     A
C1009  O1081   1.288   .     A
C1009  C1038   1.403   .     S
C1010  H1054   1.081   .     S
C1010  C1021   1.380   .     A
C1010  C1012   1.386   .     A
C1011  C1041   1.427   .     S
C1011  C1042   1.385   .     A
C1011  C1013   1.406   .     A
C1012  C1014   1.408   .     A
C1012  C1040   1.432   .     S
C1013  C1024   1.528   .     S
C1013  C1015   1.404   .     A
C1014  C1027   1.526   .     S
C1014  C1016   1.408   .     A
C1015  C1022   1.403   .     A
C1015  C1017   1.417   .     A
C1016  C1023   1.407   .     A
C1016  C1018   1.418   .     A
C1017  C1019   1.410   .     A
C1018  C1021   1.411   .     A
C1018  C261    1.397   1_556 S
C1019  C1042   1.383   .     A
C1019  C1037   1.405   .     A
C1020  O1085   1.290   .     A
C1020  C1039   1.403   .     S
C1020  O1083   1.288   .     A
C1021  C1031   1.402   .     A
C1022  H1065   1.081   .     S
C1023  H1073   1.080   .     S
C1023  C281    1.387   1_556 S
C1024  C1025   1.545   .     S
C1024  H1048   1.108   .     S
C1024  H1049   1.106   .     S
C1025  H1047   1.104   .     S
C1025  H1046   1.107   .     S
C1025  C1278   1.530   .     S
C1026  H1078   1.108   .     S
C1026  H1045   1.111   .     S
C1026  H1044   1.108   .     S
C1027  C1028   1.548   .     S
C1027  H1056   1.109   .     S
C1027  H1057   1.107   .     S
C1028  H1053   1.111   .     S
C1028  H1055   1.106   .     S
C1029  H1052   1.110   .     S
C1029  H1050   1.108   .     S
C1029  C1280   1.525   .     S
C1029  H1303   1.110   .     S
C1030  O1090   1.417   .     S
C1030  C1032   1.531   .     S
C1030  H1059   1.116   .     S
C1030  H1142   1.108   .     S
C1031  O1090   1.386   .     S
C1031  C266    1.393   1_556 S
C1032  H1060   1.104   .     S
C1032  C1033   1.533   .     S
C1032  H1313   1.111   .     S
C1033  H1064   1.109   .     S
C1033  H1146   1.108   .     S
C1033  H1399   1.110   .     S
C1034  H1066   1.111   .     S
C1034  O1082   1.415   .     S
C1035  C1036   1.527   .     S
C1035  C1286   1.522   .     S
C1035  H1320   1.112   .     S
C1035  H1237   1.098   1_455 S
C1036  H1072   1.107   .     S
C1036  H1071   1.110   .     S
C1036  H1070   1.111   .     S
C1037  O1082   1.383   .     S
C1038  C1291   1.329   .     S
C1038  H1326   1.088   .     S
C1040  O1088   1.293   .     A
C1040  O1086   1.296   .     A
C1041  O1087   1.295   .     A
C1041  O1089   1.293   .     A
C1042  H1043   1.085   .     S
H1058  C1198   1.108   1_455 S
H1062  C1201   1.108   1_455 S
H1063  C949    1.110   1_455 S
H1067  C1286   1.114   .     S
H1069  C1119   1.098   .     S
H1075  C1291   1.088   .     S
H1076  N1247   1.029   1_455 S
H1077  N1164   1.029   .     S
N1079  Zn1092  2.034   .     S
N1079  H1160   1.029   .     S
N1079  N1164   1.283   .     S
N1080  Zn1091  2.034   .     S
N1080  N1247   1.283   1_455 S
N1080  H1245   1.029   1_455 S
O1081  Zn1091  1.972   .     S
O1083  Zn1092  1.972   .     S
O1084  Zn1092  1.978   .     S
O1085  Zn1091  1.978   .     S
O1086  Zn1091  1.985   .     S
O1087  Zn1092  1.985   .     S
O1088  Zn1092  2.024   .     S
O1089  Zn1091  2.024   .     S
C1093  O1168   1.289   .     A
C1093  O1165   1.288   .     A
C1093  C1122   1.403   .     S
C1094  H1138   1.081   .     S
C1094  C1105   1.380   .     A
C1094  C1096   1.386   .     A
C1095  C1125   1.427   .     S
C1095  C1126   1.385   .     A
C1095  C1097   1.406   .     A
C1096  C1098   1.408   .     A
C1096  C1124   1.432   .     S
C1097  C1108   1.528   .     S
C1097  C1099   1.404   .     A
C1098  C1111   1.526   .     S
C1098  C1100   1.408   .     A
C1099  C1106   1.403   .     A
C1099  C1101   1.417   .     A
C1100  C1107   1.407   .     A
C1100  C1102   1.418   .     A
C1101  C1103   1.410   .     A
C1102  C1105   1.411   .     A
C1102  C345    1.397   1_556 S
C1103  C1126   1.383   .     A
C1103  C1121   1.405   .     A
C1104  O1169   1.290   .     A
C1104  C1123   1.403   .     S
C1104  O1167   1.288   .     A
C1105  C1115   1.402   .     A
C1106  H1149   1.081   .     S
C1107  H1157   1.080   .     S
C1107  C365    1.387   1_556 S
C1108  C1109   1.545   .     S
C1108  H1132   1.108   .     S
C1108  H1133   1.106   .     S
C1109  H1131   1.104   .     S
C1109  H1130   1.107   .     S
C1109  C1362   1.530   .     S
C1110  H1162   1.108   .     S
C1110  H1129   1.111   .     S
C1110  H1128   1.108   .     S
C1111  C1112   1.548   .     S
C1111  H1140   1.109   .     S
C1111  H1141   1.107   .     S
C1112  H1137   1.111   .     S
C1112  H1139   1.106   .     S
C1113  H1136   1.110   .     S
C1113  H1134   1.108   .     S
C1113  C1364   1.525   .     S
C1113  H1387   1.110   .     S
C1114  O1174   1.417   .     S
C1114  C1116   1.531   .     S
C1114  H1143   1.116   .     S
C1114  H1226   1.108   .     S
C1115  O1174   1.386   .     S
C1115  C350    1.393   1_556 S
C1116  H1144   1.104   .     S
C1116  C1117   1.533   .     S
C1116  H1397   1.111   .     S
C1117  H1148   1.109   .     S
C1117  H1230   1.108   .     S
C1117  H1483   1.110   .     S
C1118  H1150   1.111   .     S
C1118  O1166   1.415   .     S
C1119  C1120   1.527   .     S
C1119  C1370   1.522   .     S
C1119  H1404   1.112   .     S
C1120  H1156   1.107   .     S
C1120  H1155   1.110   .     S
C1120  H1154   1.111   .     S
C1121  O1166   1.383   .     S
C1122  C1375   1.329   .     S
C1122  H1410   1.088   .     S
C1124  O1172   1.293   .     A
C1124  O1170   1.296   .     A
C1125  O1171   1.295   .     A
C1125  O1173   1.293   .     A
C1126  H1127   1.085   .     S
H1151  C1370   1.114   .     S
H1153  C1203   1.098   .     S
H1159  C1375   1.088   .     S
H1161  N1248   1.029   .     S
N1163  Zn1176  2.034   .     S
N1163  H1244   1.029   .     S
N1163  N1248   1.283   .     S
N1164  Zn1175  2.034   .     S
O1165  Zn1175  1.972   .     S
O1167  Zn1176  1.972   .     S
O1168  Zn1176  1.978   .     S
O1169  Zn1175  1.978   .     S
O1170  Zn1175  1.985   .     S
O1171  Zn1176  1.985   .     S
O1172  Zn1176  2.024   .     S
O1173  Zn1175  2.024   .     S
C1177  O1252   1.289   .     A
C1177  O1249   1.288   .     A
C1177  C1206   1.403   .     S
C1178  H1222   1.081   .     S
C1178  C1189   1.380   .     A
C1178  C1180   1.386   .     A
C1179  C1209   1.427   .     S
C1179  C1210   1.385   .     A
C1179  C1181   1.406   .     A
C1180  C1182   1.408   .     A
C1180  C1208   1.432   .     S
C1181  C1192   1.528   .     S
C1181  C1183   1.404   .     A
C1182  C1195   1.526   .     S
C1182  C1184   1.408   .     A
C1183  C1190   1.403   .     A
C1183  C1185   1.417   .     A
C1184  C1191   1.407   .     A
C1184  C1186   1.418   .     A
C1185  C1187   1.410   .     A
C1186  C1189   1.411   .     A
C1186  C429    1.397   1_556 S
C1187  C1210   1.383   .     A
C1187  C1205   1.405   .     A
C1188  O1253   1.290   .     A
C1188  C1207   1.403   .     S
C1188  O1251   1.288   .     A
C1189  C1199   1.402   .     A
C1190  H1233   1.081   .     S
C1191  H1241   1.080   .     S
C1191  C449    1.387   1_556 S
C1192  C1193   1.545   .     S
C1192  H1216   1.108   .     S
C1192  H1217   1.106   .     S
C1193  H1215   1.104   .     S
C1193  H1214   1.107   .     S
C1193  C1446   1.530   .     S
C1194  H1246   1.108   .     S
C1194  H1213   1.111   .     S
C1194  H1212   1.108   .     S
C1195  C1196   1.548   .     S
C1195  H1224   1.109   .     S
C1195  H1225   1.107   .     S
C1196  H1221   1.111   .     S
C1196  H1223   1.106   .     S
C1197  H1220   1.110   .     S
C1197  H1218   1.108   .     S
C1197  C1448   1.525   .     S
C1197  H1471   1.110   .     S
C1198  O1258   1.417   .     S
C1198  C1200   1.531   .     S
C1198  H1227   1.116   .     S
C1198  H1058   1.108   1_655 S
C1199  O1258   1.386   .     S
C1199  C434    1.393   1_556 S
C1200  H1228   1.104   .     S
C1200  C1201   1.533   .     S
C1200  H1481   1.111   .     S
C1201  H1232   1.109   .     S
C1201  H1062   1.108   1_655 S
C1201  H1315   1.110   1_655 S
C1202  H1234   1.111   .     S
C1202  O1250   1.415   .     S
C1203  C1204   1.527   .     S
C1203  C1454   1.522   .     S
C1203  H1488   1.112   .     S
C1204  H1240   1.107   .     S
C1204  H1239   1.110   .     S
C1204  H1238   1.111   .     S
C1205  O1250   1.383   .     S
C1206  C1459   1.329   .     S
C1206  H1494   1.088   .     S
C1208  O1256   1.293   .     A
C1208  O1254   1.296   .     A
C1209  O1255   1.295   .     A
C1209  O1257   1.293   .     A
C1210  H1211   1.085   .     S
H1235  C1454   1.114   .     S
H1237  C1035   1.098   1_655 S
H1243  C1459   1.088   .     S
H1245  N1080   1.029   1_655 S
N1247  Zn1260  2.034   .     S
N1247  H1076   1.029   1_655 S
N1247  N1080   1.283   1_655 S
N1248  Zn1259  2.034   .     S
O1249  Zn1259  1.972   .     S
O1251  Zn1260  1.972   .     S
O1252  Zn1260  1.978   .     S
O1253  Zn1259  1.978   .     S
O1254  Zn1259  1.985   .     S
O1255  Zn1260  1.985   .     S
O1256  Zn1260  2.024   .     S
O1257  Zn1259  2.024   .     S
C1261  O1336   1.289   .     A
C1261  O1333   1.288   .     A
C1261  C1290   1.403   .     S
C1262  H1306   1.081   .     S
C1262  C1273   1.380   .     A
C1262  C1264   1.386   .     A
C1263  C1293   1.427   .     S
C1263  C1294   1.385   .     A
C1263  C1265   1.406   .     A
C1264  C1266   1.408   .     A
C1264  C1292   1.432   .     S
C1265  C1276   1.528   .     S
C1265  C1267   1.404   .     A
C1266  C1279   1.526   .     S
C1266  C1268   1.408   .     A
C1267  C1274   1.403   .     A
C1267  C1269   1.417   .     A
C1268  C1275   1.407   .     A
C1268  C1270   1.418   .     A
C1269  C1271   1.410   .     A
C1270  C1273   1.411   .     A
C1270  C513    1.397   1_556 S
C1271  C1294   1.383   .     A
C1271  C1289   1.405   .     A
C1272  O1337   1.290   .     A
C1272  C1291   1.403   .     S
C1272  O1335   1.288   .     A
C1273  C1283   1.402   .     A
C1274  H1317   1.081   .     S
C1275  H1325   1.080   .     S
C1275  C533    1.387   1_556 S
C1276  C1277   1.545   .     S
C1276  H1300   1.108   .     S
C1276  H1301   1.106   .     S
C1277  H1299   1.104   .     S
C1277  H1298   1.107   .     S
C1277  C774    1.530   1_565 S
C1278  H1330   1.108   .     S
C1278  H1297   1.111   .     S
C1278  H1296   1.108   .     S
C1279  C1280   1.548   .     S
C1279  H1308   1.109   .     S
C1279  H1309   1.107   .     S
C1280  H1305   1.111   .     S
C1280  H1307   1.106   .     S
C1281  H1304   1.110   .     S
C1281  H1302   1.108   .     S
C1281  C776    1.525   1_565 S
C1281  H799    1.110   1_565 S
C1282  O1342   1.417   .     S
C1282  C1284   1.531   .     S
C1282  H1311   1.116   .     S
C1282  H1394   1.108   .     S
C1283  O1342   1.386   .     S
C1283  C518    1.393   1_556 S
C1284  H1312   1.104   .     S
C1284  C1285   1.533   .     S
C1284  H809    1.111   1_565 S
C1285  H1316   1.109   .     S
C1285  H1398   1.108   .     S
C1285  H895    1.110   1_565 S
C1286  H1318   1.111   .     S
C1286  O1334   1.415   .     S
C1287  C1288   1.527   .     S
C1287  C782    1.522   1_565 S
C1287  H816    1.112   1_565 S
C1287  H1489   1.098   1_455 S
C1288  H1324   1.107   .     S
C1288  H1323   1.110   .     S
C1288  H1322   1.111   .     S
C1289  O1334   1.383   .     S
C1290  C787    1.329   1_565 S
C1290  H822    1.088   1_565 S
C1292  O1340   1.293   .     A
C1292  O1338   1.296   .     A
C1293  O1339   1.295   .     A
C1293  O1341   1.293   .     A
C1294  H1295   1.085   .     S
H1310  C1450   1.108   1_455 S
H1314  C1453   1.108   1_455 S
H1315  C1201   1.110   1_455 S
H1319  C782    1.114   1_565 S
H1321  C1371   1.098   .     S
H1327  C787    1.088   1_565 S
H1328  N1499   1.029   1_455 S
H1329  N1416   1.029   .     S
N1331  Zn1344  2.034   .     S
N1331  H1412   1.029   .     S
N1331  N1416   1.283   .     S
N1332  Zn1343  2.034   .     S
N1332  N1499   1.283   1_455 S
N1332  H1497   1.029   1_455 S
O1333  Zn1343  1.972   .     S
O1335  Zn1344  1.972   .     S
O1336  Zn1344  1.978   .     S
O1337  Zn1343  1.978   .     S
O1338  Zn1343  1.985   .     S
O1339  Zn1344  1.985   .     S
O1340  Zn1344  2.024   .     S
O1341  Zn1343  2.024   .     S
C1345  O1420   1.289   .     A
C1345  O1417   1.288   .     A
C1345  C1374   1.403   .     S
C1346  H1390   1.081   .     S
C1346  C1357   1.380   .     A
C1346  C1348   1.386   .     A
C1347  C1377   1.427   .     S
C1347  C1378   1.385   .     A
C1347  C1349   1.406   .     A
C1348  C1350   1.408   .     A
C1348  C1376   1.432   .     S
C1349  C1360   1.528   .     S
C1349  C1351   1.404   .     A
C1350  C1363   1.526   .     S
C1350  C1352   1.408   .     A
C1351  C1358   1.403   .     A
C1351  C1353   1.417   .     A
C1352  C1359   1.407   .     A
C1352  C1354   1.418   .     A
C1353  C1355   1.410   .     A
C1354  C1357   1.411   .     A
C1354  C597    1.397   1_556 S
C1355  C1378   1.383   .     A
C1355  C1373   1.405   .     A
C1356  O1421   1.290   .     A
C1356  C1375   1.403   .     S
C1356  O1419   1.288   .     A
C1357  C1367   1.402   .     A
C1358  H1401   1.081   .     S
C1359  H1409   1.080   .     S
C1359  C617    1.387   1_556 S
C1360  C1361   1.545   .     S
C1360  H1384   1.108   .     S
C1360  H1385   1.106   .     S
C1361  H1383   1.104   .     S
C1361  H1382   1.107   .     S
C1361  C858    1.530   1_565 S
C1362  H1414   1.108   .     S
C1362  H1381   1.111   .     S
C1362  H1380   1.108   .     S
C1363  C1364   1.548   .     S
C1363  H1392   1.109   .     S
C1363  H1393   1.107   .     S
C1364  H1389   1.111   .     S
C1364  H1391   1.106   .     S
C1365  H1388   1.110   .     S
C1365  H1386   1.108   .     S
C1365  C860    1.525   1_565 S
C1365  H883    1.110   1_565 S
C1366  O1426   1.417   .     S
C1366  C1368   1.531   .     S
C1366  H1395   1.116   .     S
C1366  H1478   1.108   .     S
C1367  O1426   1.386   .     S
C1367  C602    1.393   1_556 S
C1368  H1396   1.104   .     S
C1368  C1369   1.533   .     S
C1368  H893    1.111   1_565 S
C1369  H1400   1.109   .     S
C1369  H1482   1.108   .     S
C1369  H979    1.110   1_565 S
C1370  H1402   1.111   .     S
C1370  O1418   1.415   .     S
C1371  C1372   1.527   .     S
C1371  C866    1.522   1_565 S
C1371  H900    1.112   1_565 S
C1372  H1408   1.107   .     S
C1372  H1407   1.110   .     S
C1372  H1406   1.111   .     S
C1373  O1418   1.383   .     S
C1374  C871    1.329   1_565 S
C1374  H906    1.088   1_565 S
C1376  O1424   1.293   .     A
C1376  O1422   1.296   .     A
C1377  O1423   1.295   .     A
C1377  O1425   1.293   .     A
C1378  H1379   1.085   .     S
H1403  C866    1.114   1_565 S
H1405  C1455   1.098   .     S
H1411  C871    1.088   1_565 S
H1413  N1500   1.029   .     S
N1415  Zn1428  2.034   .     S
N1415  H1496   1.029   .     S
N1415  N1500   1.283   .     S
N1416  Zn1427  2.034   .     S
O1417  Zn1427  1.972   .     S
O1419  Zn1428  1.972   .     S
O1420  Zn1428  1.978   .     S
O1421  Zn1427  1.978   .     S
O1422  Zn1427  1.985   .     S
O1423  Zn1428  1.985   .     S
O1424  Zn1428  2.024   .     S
O1425  Zn1427  2.024   .     S
C1429  O1504   1.289   .     A
C1429  O1501   1.288   .     A
C1429  C1458   1.403   .     S
C1430  H1474   1.081   .     S
C1430  C1441   1.380   .     A
C1430  C1432   1.386   .     A
C1431  C1461   1.427   .     S
C1431  C1462   1.385   .     A
C1431  C1433   1.406   .     A
C1432  C1434   1.408   .     A
C1432  C1460   1.432   .     S
C1433  C1444   1.528   .     S
C1433  C1435   1.404   .     A
C1434  C1447   1.526   .     S
C1434  C1436   1.408   .     A
C1435  C1442   1.403   .     A
C1435  C1437   1.417   .     A
C1436  C1443   1.407   .     A
C1436  C1438   1.418   .     A
C1437  C1439   1.410   .     A
C1438  C1441   1.411   .     A
C1438  C681    1.397   1_556 S
C1439  C1462   1.383   .     A
C1439  C1457   1.405   .     A
C1440  O1505   1.290   .     A
C1440  C1459   1.403   .     S
C1440  O1503   1.288   .     A
C1441  C1451   1.402   .     A
C1442  H1485   1.081   .     S
C1443  H1493   1.080   .     S
C1443  C701    1.387   1_556 S
C1444  C1445   1.545   .     S
C1444  H1468   1.108   .     S
C1444  H1469   1.106   .     S
C1445  H1467   1.104   .     S
C1445  H1466   1.107   .     S
C1445  C942    1.530   1_565 S
C1446  H1498   1.108   .     S
C1446  H1465   1.111   .     S
C1446  H1464   1.108   .     S
C1447  C1448   1.548   .     S
C1447  H1476   1.109   .     S
C1447  H1477   1.107   .     S
C1448  H1473   1.111   .     S
C1448  H1475   1.106   .     S
C1449  H1472   1.110   .     S
C1449  H1470   1.108   .     S
C1449  C944    1.525   1_565 S
C1449  H967    1.110   1_565 S
C1450  O1510   1.417   .     S
C1450  C1452   1.531   .     S
C1450  H1479   1.116   .     S
C1450  H1310   1.108   1_655 S
C1451  O1510   1.386   .     S
C1451  C686    1.393   1_556 S
C1452  H1480   1.104   .     S
C1452  C1453   1.533   .     S
C1452  H977    1.111   1_565 S
C1453  H1484   1.109   .     S
C1453  H1314   1.108   1_655 S
C1453  H811    1.110   1_665 S
C1454  H1486   1.111   .     S
C1454  O1502   1.415   .     S
C1455  C1456   1.527   .     S
C1455  C950    1.522   1_565 S
C1455  H984    1.112   1_565 S
C1456  H1492   1.107   .     S
C1456  H1491   1.110   .     S
C1456  H1490   1.111   .     S
C1457  O1502   1.383   .     S
C1458  C955    1.329   1_565 S
C1458  H990    1.088   1_565 S
C1460  O1508   1.293   .     A
C1460  O1506   1.296   .     A
C1461  O1507   1.295   .     A
C1461  O1509   1.293   .     A
C1462  H1463   1.085   .     S
H1487  C950    1.114   1_565 S
H1489  C1287   1.098   1_655 S
H1495  C955    1.088   1_565 S
H1497  N1332   1.029   1_655 S
N1499  Zn1512  2.034   .     S
N1499  H1328   1.029   1_655 S
N1499  N1332   1.283   1_655 S
N1500  Zn1511  2.034   .     S
O1501  Zn1511  1.972   .     S
O1503  Zn1512  1.972   .     S
O1504  Zn1512  1.978   .     S
O1505  Zn1511  1.978   .     S
O1506  Zn1511  1.985   .     S
O1507  Zn1512  1.985   .     S
O1508  Zn1512  2.024   .     S
O1509  Zn1511  2.024   .     S
