data_str_m1_o1_o17_pcu_sym.27
_audit_creation_date              2020-01-03
_audit_creation_method            'Materials Studio'
_symmetry_space_group_name_H-M    'P1'
_symmetry_Int_Tables_number       1
_symmetry_cell_setting            triclinic
loop_
_symmetry_equiv_pos_as_xyz
  x,y,z
_cell_length_a                    36.8172
_cell_length_b                    36.8171
_cell_length_c                    34.3274
_cell_angle_alpha                 90.0524
_cell_angle_beta                  90.0530
_cell_angle_gamma                 90.3673
loop_
_atom_site_label
_atom_site_type_symbol
_atom_site_fract_x
_atom_site_fract_y
_atom_site_fract_z
_atom_site_U_iso_or_equiv
_atom_site_adp_type
_atom_site_occupancy
C1     C     0.48409   0.27700   0.41816   0.00000  Uiso   1.00
C2     C     0.01404   0.22002   0.58235   0.00000  Uiso   1.00
C3     C     0.21915   0.01233   0.41804   0.00000  Uiso   1.00
C4     C     0.27885   0.48030   0.58207   0.00000  Uiso   1.00
C5     C     0.01959   0.22108   0.41793   0.00000  Uiso   1.00
C6     C     0.48776   0.28089   0.58196   0.00000  Uiso   1.00
C7     C     0.27993   0.48587   0.41766   0.00000  Uiso   1.00
C8     C     0.22306   0.01602   0.58184   0.00000  Uiso   1.00
C9     C     0.23401   0.02696   0.91816   0.00000  Uiso   1.00
C10    C     0.26408   0.47005   0.08235   0.00000  Uiso   1.00
C11    C     0.46911   0.26225   0.91804   0.00000  Uiso   1.00
C12    C     0.02893   0.23042   0.08207   0.00000  Uiso   1.00
C13    C     0.26966   0.47113   0.91793   0.00000  Uiso   1.00
C14    C     0.23770   0.03087   0.08196   0.00000  Uiso   1.00
C15    C     0.02996   0.23593   0.91766   0.00000  Uiso   1.00
C16    C     0.47299   0.26590   0.08185   0.00000  Uiso   1.00
C17    C     0.00088   0.24867   0.39808   0.00000  Uiso   1.00
C18    C     0.00014   0.25020   0.60206   0.00000  Uiso   1.00
C19    C     0.24980   0.49986   0.39794   0.00000  Uiso   1.00
C20    C     0.25133   0.49912   0.60192   0.00000  Uiso   1.00
C21    C     0.25088   0.49867   0.89808   0.00000  Uiso   1.00
C22    C     0.25014   0.00020   0.10206   0.00000  Uiso   1.00
C23    C     0.49979   0.24985   0.89794   0.00000  Uiso   1.00
C24    C     0.00133   0.24912   0.10193   0.00000  Uiso   1.00
C25    C     0.03695   0.19329   0.48045   0.00000  Uiso   1.00
C26    C     0.47606   0.31190   0.51962   0.00000  Uiso   1.00
C27    C     0.30885   0.46793   0.47912   0.00000  Uiso   1.00
C28    C     0.18807   0.02210   0.52121   0.00000  Uiso   1.00
C29    C     0.47819   0.31203   0.47877   0.00000  Uiso   1.00
C30    C     0.03179   0.19100   0.52087   0.00000  Uiso   1.00
C31    C     0.18821   0.02423   0.48037   0.00000  Uiso   1.00
C32    C     0.30653   0.46278   0.51954   0.00000  Uiso   1.00
C33    C     0.28714   0.44342   0.98046   0.00000  Uiso   1.00
C34    C     0.22585   0.06182   0.01963   0.00000  Uiso   1.00
C35    C     0.05897   0.21814   0.97913   0.00000  Uiso   1.00
C36    C     0.43797   0.27183   0.02122   0.00000  Uiso   1.00
C37    C     0.22798   0.06196   0.97878   0.00000  Uiso   1.00
C38    C     0.28199   0.44111   0.02088   0.00000  Uiso   1.00
C39    C     0.43811   0.27396   0.98038   0.00000  Uiso   1.00
C40    C     0.05668   0.21300   0.01955   0.00000  Uiso   1.00
C41    C     0.24990   0.00002   0.35569   0.00000  Uiso   1.00
C42    C     0.25104   0.49990   0.64426   0.00000  Uiso   1.00
C43    C     0.00010   0.24896   0.35574   0.00000  Uiso   1.00
C44    C     0.49998   0.25010   0.64431   0.00000  Uiso   1.00
C45    C     0.49990   0.25002   0.85569   0.00000  Uiso   1.00
C46    C     0.00104   0.24990   0.14426   0.00000  Uiso   1.00
C47    C     0.25010   0.49896   0.85574   0.00000  Uiso   1.00
C48    C     0.24998   0.00010   0.14431   0.00000  Uiso   1.00
C49    C     0.17990   0.07010   0.25000   0.00000  Uiso   1.00
C50    C     0.32007   0.42993   0.75000   0.00000  Uiso   1.00
C51    C     0.43017   0.18017   0.24998   0.00000  Uiso   1.00
C52    C     0.07023   0.32022   0.75002   0.00000  Uiso   1.00
C53    C     0.32009   0.42991   0.25000   0.00000  Uiso   1.00
C54    C     0.17993   0.07007   0.75000   0.00000  Uiso   1.00
C55    C     0.06983   0.31983   0.25002   0.00000  Uiso   1.00
C56    C     0.42978   0.17977   0.74998   0.00000  Uiso   1.00
C57    C     0.18017   0.43017   0.74998   0.00000  Uiso   1.00
C58    C     0.32023   0.07022   0.25002   0.00000  Uiso   1.00
C59    C     0.42990   0.32010   0.75000   0.00000  Uiso   1.00
C60    C     0.07007   0.17993   0.25000   0.00000  Uiso   1.00
C61    C     0.31983   0.06983   0.75002   0.00000  Uiso   1.00
C62    C     0.17978   0.42977   0.24999   0.00000  Uiso   1.00
C63    C     0.07009   0.17991   0.75000   0.00000  Uiso   1.00
C64    C     0.42993   0.32007   0.25000   0.00000  Uiso   1.00
C65    C     0.13301   0.39164   0.21460   0.00000  Uiso   1.00
C66    C     0.35986   0.11207   0.78553   0.00000  Uiso   1.00
C67    C     0.09349   0.11949   0.22802   0.00000  Uiso   1.00
C68    C     0.40170   0.37592   0.77874   0.00000  Uiso   1.00
C69    C     0.36704   0.10819   0.21469   0.00000  Uiso   1.00
C70    C     0.14029   0.38793   0.78557   0.00000  Uiso   1.00
C71    C     0.40640   0.38042   0.22789   0.00000  Uiso   1.00
C72    C     0.09840   0.12422   0.77882   0.00000  Uiso   1.00
C73    C     0.11957   0.09358   0.77208   0.00000  Uiso   1.00
C74    C     0.37576   0.40158   0.22117   0.00000  Uiso   1.00
C75    C     0.10838   0.36697   0.78542   0.00000  Uiso   1.00
C76    C     0.38792   0.14014   0.21448   0.00000  Uiso   1.00
C77    C     0.38052   0.40653   0.77195   0.00000  Uiso   1.00
C78    C     0.12411   0.09832   0.22123   0.00000  Uiso   1.00
C79    C     0.39181   0.13296   0.78532   0.00000  Uiso   1.00
C80    C     0.11206   0.35972   0.21444   0.00000  Uiso   1.00
C81    C     0.38302   0.14163   0.71459   0.00000  Uiso   1.00
C82    C     0.10985   0.36208   0.28553   0.00000  Uiso   1.00
C83    C     0.34347   0.36948   0.72806   0.00000  Uiso   1.00
C84    C     0.15170   0.12592   0.27874   0.00000  Uiso   1.00
C85    C     0.11704   0.35819   0.71469   0.00000  Uiso   1.00
C86    C     0.39031   0.13792   0.28557   0.00000  Uiso   1.00
C87    C     0.15642   0.13043   0.72792   0.00000  Uiso   1.00
C88    C     0.34841   0.37422   0.27882   0.00000  Uiso   1.00
C89    C     0.36957   0.34358   0.27209   0.00000  Uiso   1.00
C90    C     0.12579   0.15160   0.72119   0.00000  Uiso   1.00
C91    C     0.35840   0.11695   0.28543   0.00000  Uiso   1.00
C92    C     0.13793   0.39014   0.71448   0.00000  Uiso   1.00
C93    C     0.13052   0.15653   0.27195   0.00000  Uiso   1.00
C94    C     0.37408   0.34830   0.72126   0.00000  Uiso   1.00
C95    C     0.14179   0.38297   0.28533   0.00000  Uiso   1.00
C96    C     0.36206   0.10971   0.71443   0.00000  Uiso   1.00
C97    C     0.02062   0.22163   0.45910   0.00000  Uiso   1.00
C98    C     0.48881   0.28148   0.54083   0.00000  Uiso   1.00
C99    C     0.27929   0.48308   0.45857   0.00000  Uiso   1.00
C100   C     0.21963   0.01095   0.54132   0.00000  Uiso   1.00
C101   C     0.48918   0.28042   0.45867   0.00000  Uiso   1.00
C102   C     0.01680   0.22064   0.54143   0.00000  Uiso   1.00
C103   C     0.21857   0.01131   0.45916   0.00000  Uiso   1.00
C104   C     0.27827   0.47926   0.54089   0.00000  Uiso   1.00
C105   C     0.27071   0.47170   0.95911   0.00000  Uiso   1.00
C106   C     0.23872   0.03144   0.04084   0.00000  Uiso   1.00
C107   C     0.02935   0.23316   0.95857   0.00000  Uiso   1.00
C108   C     0.46958   0.26082   0.04133   0.00000  Uiso   1.00
C109   C     0.23909   0.03038   0.95868   0.00000  Uiso   1.00
C110   C     0.26688   0.47068   0.04144   0.00000  Uiso   1.00
C111   C     0.46852   0.26119   0.95917   0.00000  Uiso   1.00
C112   C     0.02835   0.22937   0.04090   0.00000  Uiso   1.00
C113   C     0.09765   0.34761   0.25000   0.00000  Uiso   1.00
C114   C     0.40134   0.15127   0.74996   0.00000  Uiso   1.00
C115   C     0.15177   0.09825   0.24999   0.00000  Uiso   1.00
C116   C     0.34815   0.40185   0.75000   0.00000  Uiso   1.00
C117   C     0.40240   0.15235   0.25001   0.00000  Uiso   1.00
C118   C     0.09873   0.34866   0.75005   0.00000  Uiso   1.00
C119   C     0.34823   0.40176   0.25000   0.00000  Uiso   1.00
C120   C     0.15185   0.09815   0.75000   0.00000  Uiso   1.00
C121   C     0.09823   0.15177   0.75000   0.00000  Uiso   1.00
C122   C     0.40184   0.34815   0.24999   0.00000  Uiso   1.00
C123   C     0.15240   0.40235   0.75001   0.00000  Uiso   1.00
C124   C     0.34874   0.09865   0.25005   0.00000  Uiso   1.00
C125   C     0.40176   0.34824   0.75000   0.00000  Uiso   1.00
C126   C     0.09815   0.15186   0.24999   0.00000  Uiso   1.00
C127   C     0.34765   0.09760   0.75000   0.00000  Uiso   1.00
C128   C     0.15133   0.40129   0.24997   0.00000  Uiso   1.00
C129   C     0.00480   0.25123   0.47948   0.00000  Uiso   1.00
C130   C     0.00397   0.25136   0.52062   0.00000  Uiso   1.00
C131   C     0.24861   0.49603   0.47937   0.00000  Uiso   1.00
C132   C     0.24874   0.49521   0.52052   0.00000  Uiso   1.00
C133   C     0.25479   0.00125   0.97948   0.00000  Uiso   1.00
C134   C     0.25396   0.00138   0.02063   0.00000  Uiso   1.00
C135   C     0.49863   0.24602   0.97938   0.00000  Uiso   1.00
C136   C     0.49876   0.24519   0.02053   0.00000  Uiso   1.00
O137   O     0.25000  -0.00000   0.25000   0.00000  Uiso   1.00
O138   O     0.25000  -0.00000   0.75000   0.00000  Uiso   1.00
O139   O    -0.00000   0.25000   0.25000   0.00000  Uiso   1.00
O140   O     0.00000   0.25000   0.75000   0.00000  Uiso   1.00
O141   O     0.25000   0.46963   0.33755   0.00000  Uiso   1.00
O142   O     0.25000   0.03036   0.66245   0.00000  Uiso   1.00
O143   O     0.03036   0.25000   0.33755   0.00000  Uiso   1.00
O144   O     0.46963   0.25000   0.66245   0.00000  Uiso   1.00
O145   O     0.25000   0.03036   0.33755   0.00000  Uiso   1.00
O146   O     0.25000   0.46963   0.66245   0.00000  Uiso   1.00
O147   O     0.46963   0.25000   0.33755   0.00000  Uiso   1.00
O148   O     0.03036   0.25000   0.66245   0.00000  Uiso   1.00
O149   O     0.00000   0.21963   0.83755   0.00000  Uiso   1.00
O150   O     0.00000   0.28036   0.16245   0.00000  Uiso   1.00
O151   O     0.28036  -0.00000   0.83755   0.00000  Uiso   1.00
O152   O     0.21963  -0.00000   0.16245   0.00000  Uiso   1.00
O153   O     0.00000   0.28036   0.83755   0.00000  Uiso   1.00
O154   O     0.00000   0.21963   0.16245   0.00000  Uiso   1.00
O155   O     0.21963  -0.00000   0.83755   0.00000  Uiso   1.00
O156   O     0.28036  -0.00000   0.16245   0.00000  Uiso   1.00
O157   O     0.20724   0.07307   0.27302   0.00000  Uiso   1.00
O158   O     0.29275   0.42692   0.72698   0.00000  Uiso   1.00
O159   O     0.42692   0.20724   0.27302   0.00000  Uiso   1.00
O160   O     0.07307   0.29275   0.72698   0.00000  Uiso   1.00
O161   O     0.29275   0.42692   0.27302   0.00000  Uiso   1.00
O162   O     0.20724   0.07307   0.72698   0.00000  Uiso   1.00
O163   O     0.07307   0.29275   0.27302   0.00000  Uiso   1.00
O164   O     0.42692   0.20724   0.72698   0.00000  Uiso   1.00
O165   O     0.20724   0.42692   0.72698   0.00000  Uiso   1.00
O166   O     0.29275   0.07307   0.27302   0.00000  Uiso   1.00
O167   O     0.42692   0.29275   0.72698   0.00000  Uiso   1.00
O168   O     0.07307   0.20724   0.27302   0.00000  Uiso   1.00
O169   O     0.29275   0.07307   0.72698   0.00000  Uiso   1.00
O170   O     0.20724   0.42692   0.27302   0.00000  Uiso   1.00
O171   O     0.07307   0.20724   0.72698   0.00000  Uiso   1.00
O172   O     0.42692   0.29275   0.27302   0.00000  Uiso   1.00
O173   O     0.45724   0.32307   0.77302   0.00000  Uiso   1.00
O174   O     0.04275   0.17692   0.22698   0.00000  Uiso   1.00
O175   O     0.17692   0.45724   0.77302   0.00000  Uiso   1.00
O176   O     0.32307   0.04275   0.22698   0.00000  Uiso   1.00
O177   O     0.04275   0.17692   0.77302   0.00000  Uiso   1.00
O178   O     0.45724   0.32307   0.22698   0.00000  Uiso   1.00
O179   O     0.32307   0.04275   0.77302   0.00000  Uiso   1.00
O180   O     0.17692   0.45724   0.22698   0.00000  Uiso   1.00
O181   O     0.45724   0.17692   0.22698   0.00000  Uiso   1.00
O182   O     0.04275   0.32307   0.77302   0.00000  Uiso   1.00
O183   O     0.17692   0.04275   0.22698   0.00000  Uiso   1.00
O184   O     0.32307   0.45724   0.77302   0.00000  Uiso   1.00
O185   O     0.04275   0.32307   0.22698   0.00000  Uiso   1.00
O186   O     0.45724   0.17692   0.77302   0.00000  Uiso   1.00
O187   O     0.32307   0.45724   0.22698   0.00000  Uiso   1.00
O188   O     0.17692   0.04275   0.77302   0.00000  Uiso   1.00
Zn189  Zn    0.20659  -0.00000   0.21735   0.00000  Uiso   1.00
Zn190  Zn    0.29340  -0.00000   0.78265   0.00000  Uiso   1.00
Zn191  Zn    0.00000   0.20659   0.21735   0.00000  Uiso   1.00
Zn192  Zn    0.00000   0.29340   0.78265   0.00000  Uiso   1.00
Zn193  Zn    0.29340  -0.00000   0.21735   0.00000  Uiso   1.00
Zn194  Zn    0.20659  -0.00000   0.78265   0.00000  Uiso   1.00
Zn195  Zn    0.00000   0.29340   0.21735   0.00000  Uiso   1.00
Zn196  Zn   -0.00000   0.20659   0.78265   0.00000  Uiso   1.00
Zn197  Zn    0.45659   0.25000   0.71735   0.00000  Uiso   1.00
Zn198  Zn    0.04340   0.25000   0.28265   0.00000  Uiso   1.00
Zn199  Zn    0.25000   0.45659   0.71735   0.00000  Uiso   1.00
Zn200  Zn    0.25000   0.04340   0.28265   0.00000  Uiso   1.00
Zn201  Zn    0.04340   0.25000   0.71735   0.00000  Uiso   1.00
Zn202  Zn    0.45659   0.25000   0.28265   0.00000  Uiso   1.00
Zn203  Zn    0.25000   0.04340   0.71735   0.00000  Uiso   1.00
Zn204  Zn    0.25000   0.45659   0.28265   0.00000  Uiso   1.00
O205   O     0.05660   0.16644   0.46186   0.00000  Uiso   1.00
C206   C     0.09394   0.17198   0.46960   0.00000  Uiso   1.00
H207   H     0.10303   0.19961   0.46052   0.00000  Uiso   1.00
H208   H     0.10973   0.15196   0.45251   0.00000  Uiso   1.00
H209   H     0.10058   0.16744   0.50078   0.00000  Uiso   1.00
O210   O     0.45675   0.33907   0.53839   0.00000  Uiso   1.00
C211   C     0.47648   0.37210   0.53844   0.00000  Uiso   1.00
H212   H     0.00649   0.36838   0.53947   0.00000  Uiso   1.00
H213   H     0.46873   0.38777   0.56472   0.00000  Uiso   1.00
H214   H     0.46865   0.38896   0.51309   0.00000  Uiso   1.00
O215   O     0.33935   0.45576   0.45951   0.00000  Uiso   1.00
C216   C     0.36890   0.47928   0.46754   0.00000  Uiso   1.00
H217   H     0.36157   0.00840   0.46398   0.00000  Uiso   1.00
H218   H     0.39098   0.47337   0.44655   0.00000  Uiso   1.00
H219   H     0.37993   0.47457   0.49720   0.00000  Uiso   1.00
O220   O     0.15732   0.03307   0.54113   0.00000  Uiso   1.00
C221   C     0.13860   0.00190   0.55479   0.00000  Uiso   1.00
H222   H     0.15391   0.48779   0.57814   0.00000  Uiso   1.00
H223   H     0.13252   0.48232   0.53092   0.00000  Uiso   1.00
H224   H     0.11231   0.01058   0.56737   0.00000  Uiso   1.00
O225   O     0.46739   0.34284   0.45885   0.00000  Uiso   1.00
C226   C     0.49866   0.36138   0.44518   0.00000  Uiso   1.00
H227   H     0.01265   0.34601   0.42179   0.00000  Uiso   1.00
H228   H     0.01831   0.36730   0.46903   0.00000  Uiso   1.00
H229   H     0.49014   0.38774   0.43265   0.00000  Uiso   1.00
O230   O     0.04375   0.16041   0.54047   0.00000  Uiso   1.00
C231   C     0.02002   0.13102   0.53245   0.00000  Uiso   1.00
H232   H     0.49095   0.13855   0.53604   0.00000  Uiso   1.00
H233   H     0.02579   0.10889   0.55342   0.00000  Uiso   1.00
H234   H     0.02463   0.11998   0.50278   0.00000  Uiso   1.00
O235   O     0.16118   0.04372   0.46160   0.00000  Uiso   1.00
C236   C     0.12802   0.02421   0.46153   0.00000  Uiso   1.00
H237   H     0.13154   0.49417   0.46051   0.00000  Uiso   1.00
H238   H     0.11242   0.03206   0.43525   0.00000  Uiso   1.00
H239   H     0.11120   0.03216   0.48688   0.00000  Uiso   1.00
O240   O     0.33325   0.44296   0.53813   0.00000  Uiso   1.00
C241   C     0.32742   0.40565   0.53042   0.00000  Uiso   1.00
H242   H     0.29974   0.39677   0.53956   0.00000  Uiso   1.00
H243   H     0.34736   0.38972   0.54748   0.00000  Uiso   1.00
H244   H     0.33186   0.39896   0.49923   0.00000  Uiso   1.00
O245   O     0.30692   0.41667   0.96187   0.00000  Uiso   1.00
C246   C     0.34424   0.42243   0.96959   0.00000  Uiso   1.00
H247   H     0.35317   0.45010   0.96046   0.00000  Uiso   1.00
H248   H     0.36013   0.40248   0.95252   0.00000  Uiso   1.00
H249   H     0.35091   0.41797   0.00077   0.00000  Uiso   1.00
O250   O     0.20640   0.08888   0.03840   0.00000  Uiso   1.00
C251   C     0.22597   0.12202   0.03846   0.00000  Uiso   1.00
H252   H     0.25600   0.11844   0.03949   0.00000  Uiso   1.00
H253   H     0.21814   0.13762   0.06475   0.00000  Uiso   1.00
H254   H     0.21805   0.13884   0.01312   0.00000  Uiso   1.00
O255   O     0.08952   0.20611   0.95952   0.00000  Uiso   1.00
C256   C     0.11897   0.22977   0.96753   0.00000  Uiso   1.00
H257   H     0.11150   0.25885   0.96396   0.00000  Uiso   1.00
H258   H     0.14107   0.22396   0.94654   0.00000  Uiso   1.00
H259   H     0.13002   0.22512   0.99719   0.00000  Uiso   1.00
O260   O     0.40717   0.28263   0.04114   0.00000  Uiso   1.00
C261   C     0.38861   0.25137   0.05480   0.00000  Uiso   1.00
H262   H     0.40398   0.23735   0.07817   0.00000  Uiso   1.00
H263   H     0.38266   0.23174   0.03094   0.00000  Uiso   1.00
H264   H     0.36226   0.25991   0.06736   0.00000  Uiso   1.00
O265   O     0.21705   0.09272   0.95887   0.00000  Uiso   1.00
C266   C     0.24825   0.11140   0.94521   0.00000  Uiso   1.00
H267   H     0.26233   0.09607   0.92185   0.00000  Uiso   1.00
H268   H     0.26784   0.11744   0.96908   0.00000  Uiso   1.00
H269   H     0.23960   0.13770   0.93263   0.00000  Uiso   1.00
O270   O     0.29411   0.41059   0.04049   0.00000  Uiso   1.00
C271   C     0.27055   0.38107   0.03246   0.00000  Uiso   1.00
H272   H     0.24143   0.38844   0.03600   0.00000  Uiso   1.00
H273   H     0.27641   0.35898   0.05345   0.00000  Uiso   1.00
H274   H     0.27525   0.37003   0.00280   0.00000  Uiso   1.00
O275   O     0.41096   0.29330   0.96161   0.00000  Uiso   1.00
C276   C     0.37791   0.27360   0.96155   0.00000  Uiso   1.00
H277   H     0.38161   0.24359   0.96052   0.00000  Uiso   1.00
H278   H     0.36226   0.28137   0.93527   0.00000  Uiso   1.00
H279   H     0.36105   0.28145   0.98690   0.00000  Uiso   1.00
O280   O     0.08350   0.19332   0.03814   0.00000  Uiso   1.00
C281   C     0.07785   0.15598   0.03046   0.00000  Uiso   1.00
H282   H     0.05021   0.14697   0.03959   0.00000  Uiso   1.00
H283   H     0.09785   0.14016   0.04754   0.00000  Uiso   1.00
H284   H     0.08233   0.14930   0.99928   0.00000  Uiso   1.00
S285   S     0.13243   0.42038   0.17247   0.00000  Uiso   1.00
O286   O     0.17000   0.42302   0.15574   0.00000  Uiso   1.00
O287   O     0.10699   0.40712   0.14127   0.00000  Uiso   1.00
O288   O     0.11846   0.46206   0.18541   0.00000  Uiso   1.00
H289   H     0.09493   0.45804   0.19876   0.00000  Uiso   1.00
S290   S     0.33271   0.10767   0.82845   0.00000  Uiso   1.00
O291   O     0.34116   0.07242   0.84847   0.00000  Uiso   1.00
O292   O     0.33991   0.13861   0.85608   0.00000  Uiso   1.00
O293   O     0.28834   0.10770   0.81677   0.00000  Uiso   1.00
H294   H     0.28401   0.13208   0.80561   0.00000  Uiso   1.00
S295   S     0.05010   0.10137   0.21467   0.00000  Uiso   1.00
O296   O     0.03750   0.11820   0.17720   0.00000  Uiso   1.00
O297   O     0.05211   0.06092   0.20928   0.00000  Uiso   1.00
O298   O     0.01949   0.11009   0.24972   0.00000  Uiso   1.00
H299   H     0.03031   0.10017   0.27387   0.00000  Uiso   1.00
S300   S     0.42127   0.37038   0.82584   0.00000  Uiso   1.00
O301   O     0.46083   0.38049   0.82479   0.00000  Uiso   1.00
O302   O     0.40248   0.39399   0.85524   0.00000  Uiso   1.00
O303   O     0.41703   0.32690   0.83998   0.00000  Uiso   1.00
H304   H     0.39059   0.32182   0.83915   0.00000  Uiso   1.00
S305   S     0.36798   0.07919   0.17273   0.00000  Uiso   1.00
O306   O     0.33057   0.07641   0.15556   0.00000  Uiso   1.00
O307   O     0.39367   0.09232   0.14178   0.00000  Uiso   1.00
O308   O     0.38189   0.03759   0.18604   0.00000  Uiso   1.00
H309   H     0.40528   0.04173   0.19967   0.00000  Uiso   1.00
S310   S     0.16758   0.39250   0.82843   0.00000  Uiso   1.00
O311   O     0.15891   0.42764   0.84859   0.00000  Uiso   1.00
O312   O     0.16076   0.36145   0.85595   0.00000  Uiso   1.00
O313   O     0.21192   0.39285   0.81667   0.00000  Uiso   1.00
H314   H     0.21645   0.36844   0.80563   0.00000  Uiso   1.00
S315   S     0.44971   0.39833   0.21404   0.00000  Uiso   1.00
O316   O     0.46210   0.38083   0.17684   0.00000  Uiso   1.00
O317   O     0.44770   0.43869   0.20794   0.00000  Uiso   1.00
O318   O     0.48051   0.39018   0.24912   0.00000  Uiso   1.00
H319   H     0.46985   0.40057   0.27313   0.00000  Uiso   1.00
S320   S     0.07916   0.13011   0.82599   0.00000  Uiso   1.00
O321   O     0.03956   0.12015   0.82524   0.00000  Uiso   1.00
O322   O     0.09807   0.10666   0.85542   0.00000  Uiso   1.00
O323   O     0.08369   0.17368   0.83976   0.00000  Uiso   1.00
H324   H     0.11015   0.17864   0.83879   0.00000  Uiso   1.00
S325   S     0.10165   0.05026   0.78588   0.00000  Uiso   1.00
O326   O     0.11912   0.03785   0.82309   0.00000  Uiso   1.00
O327   O     0.06129   0.05226   0.79194   0.00000  Uiso   1.00
O328   O     0.10983   0.01949   0.75079   0.00000  Uiso   1.00
H329   H     0.09945   0.03016   0.72678   0.00000  Uiso   1.00
S330   S     0.36984   0.42080   0.17399   0.00000  Uiso   1.00
O331   O     0.37980   0.46041   0.17471   0.00000  Uiso   1.00
O332   O     0.39327   0.40188   0.14455   0.00000  Uiso   1.00
O333   O     0.32626   0.41627   0.16025   0.00000  Uiso   1.00
H334   H     0.32130   0.38981   0.16123   0.00000  Uiso   1.00
S335   S     0.07966   0.36751   0.82757   0.00000  Uiso   1.00
O336   O     0.07700   0.32991   0.84424   0.00000  Uiso   1.00
O337   O     0.09294   0.39290   0.85880   0.00000  Uiso   1.00
O338   O     0.03798   0.38152   0.81466   0.00000  Uiso   1.00
H339   H     0.04200   0.40514   0.80151   0.00000  Uiso   1.00
S340   S     0.39230   0.16730   0.17157   0.00000  Uiso   1.00
O341   O     0.42755   0.15888   0.15154   0.00000  Uiso   1.00
O342   O     0.36136   0.16010   0.14394   0.00000  Uiso   1.00
O343   O     0.39225   0.21167   0.18326   0.00000  Uiso   1.00
H344   H     0.36787   0.21599   0.19443   0.00000  Uiso   1.00
S345   S     0.39866   0.44993   0.78523   0.00000  Uiso   1.00
O346   O     0.38188   0.46256   0.82271   0.00000  Uiso   1.00
O347   O     0.43912   0.44793   0.79055   0.00000  Uiso   1.00
O348   O     0.38988   0.48052   0.75016   0.00000  Uiso   1.00
H349   H     0.39978   0.46968   0.72601   0.00000  Uiso   1.00
S350   S     0.12969   0.07878   0.17412   0.00000  Uiso   1.00
O351   O     0.11958   0.03922   0.17513   0.00000  Uiso   1.00
O352   O     0.10611   0.09759   0.14472   0.00000  Uiso   1.00
O353   O     0.17318   0.08304   0.16004   0.00000  Uiso   1.00
H354   H     0.17826   0.10948   0.16090   0.00000  Uiso   1.00
S355   S     0.42082   0.13202   0.82727   0.00000  Uiso   1.00
O356   O     0.42362   0.16944   0.84443   0.00000  Uiso   1.00
O357   O     0.40769   0.10634   0.85824   0.00000  Uiso   1.00
O358   O     0.46240   0.11809   0.81395   0.00000  Uiso   1.00
H359   H     0.45829   0.09453   0.80066   0.00000  Uiso   1.00
S360   S     0.10750   0.33245   0.17157   0.00000  Uiso   1.00
O361   O     0.07234   0.34110   0.15143   0.00000  Uiso   1.00
O362   O     0.13853   0.33931   0.14404   0.00000  Uiso   1.00
O363   O     0.10719   0.28811   0.18332   0.00000  Uiso   1.00
H364   H     0.13161   0.28359   0.19435   0.00000  Uiso   1.00
S365   S     0.38247   0.17036   0.67245   0.00000  Uiso   1.00
O366   O     0.42005   0.17302   0.65576   0.00000  Uiso   1.00
O367   O     0.35706   0.15709   0.64122   0.00000  Uiso   1.00
O368   O     0.36846   0.21203   0.68538   0.00000  Uiso   1.00
H369   H     0.34481   0.20801   0.69848   0.00000  Uiso   1.00
S370   S     0.08268   0.35768   0.32844   0.00000  Uiso   1.00
O371   O     0.09114   0.32245   0.34848   0.00000  Uiso   1.00
O372   O     0.08984   0.38864   0.35606   0.00000  Uiso   1.00
O373   O     0.03831   0.35768   0.31674   0.00000  Uiso   1.00
H374   H     0.03397   0.38206   0.30557   0.00000  Uiso   1.00
S375   S     0.30007   0.35134   0.71479   0.00000  Uiso   1.00
O376   O     0.28743   0.36811   0.67731   0.00000  Uiso   1.00
O377   O     0.30207   0.31088   0.70947   0.00000  Uiso   1.00
O378   O     0.26949   0.36012   0.74986   0.00000  Uiso   1.00
H379   H     0.28033   0.35023   0.77401   0.00000  Uiso   1.00
S380   S     0.17126   0.12037   0.32585   0.00000  Uiso   1.00
O381   O     0.21083   0.13047   0.32480   0.00000  Uiso   1.00
O382   O     0.15247   0.14397   0.35524   0.00000  Uiso   1.00
O383   O     0.16700   0.07688   0.33997   0.00000  Uiso   1.00
H384   H     0.14056   0.07181   0.33913   0.00000  Uiso   1.00
S385   S     0.11798   0.32918   0.67273   0.00000  Uiso   1.00
O386   O     0.08057   0.32639   0.65557   0.00000  Uiso   1.00
O387   O     0.14367   0.34231   0.64177   0.00000  Uiso   1.00
O388   O     0.13190   0.28760   0.68605   0.00000  Uiso   1.00
H389   H     0.15533   0.29173   0.69960   0.00000  Uiso   1.00
S390   S     0.41763   0.14247   0.32842   0.00000  Uiso   1.00
O391   O     0.40894   0.17759   0.34861   0.00000  Uiso   1.00
O392   O     0.41083   0.11140   0.35592   0.00000  Uiso   1.00
O393   O     0.46195   0.14285   0.31663   0.00000  Uiso   1.00
H394   H     0.46650   0.11845   0.30558   0.00000  Uiso   1.00
S395   S     0.19974   0.14836   0.71414   0.00000  Uiso   1.00
O396   O     0.21216   0.13090   0.67693   0.00000  Uiso   1.00
O397   O     0.19774   0.18872   0.70809   0.00000  Uiso   1.00
O398   O     0.23051   0.14017   0.74924   0.00000  Uiso   1.00
H399   H     0.21983   0.15054   0.77325   0.00000  Uiso   1.00
S400   S     0.32918   0.38013   0.32599   0.00000  Uiso   1.00
O401   O     0.28957   0.37018   0.32527   0.00000  Uiso   1.00
O402   O     0.34809   0.35669   0.35543   0.00000  Uiso   1.00
O403   O     0.33373   0.42371   0.33975   0.00000  Uiso   1.00
H404   H     0.36019   0.42866   0.33876   0.00000  Uiso   1.00
S405   S     0.35166   0.30027   0.28593   0.00000  Uiso   1.00
O406   O     0.36916   0.28789   0.32314   0.00000  Uiso   1.00
O407   O     0.31131   0.30227   0.29202   0.00000  Uiso   1.00
O408   O     0.35982   0.26948   0.25085   0.00000  Uiso   1.00
H409   H     0.34944   0.28014   0.22684   0.00000  Uiso   1.00
S410   S     0.11990   0.17084   0.67402   0.00000  Uiso   1.00
O411   O     0.12986   0.21045   0.67477   0.00000  Uiso   1.00
O412   O     0.14335   0.15194   0.64459   0.00000  Uiso   1.00
O413   O     0.07633   0.16632   0.66023   0.00000  Uiso   1.00
H414   H     0.07137   0.13986   0.66120   0.00000  Uiso   1.00
S415   S     0.32971   0.11743   0.32760   0.00000  Uiso   1.00
O416   O     0.32707   0.07982   0.34423   0.00000  Uiso   1.00
O417   O     0.34301   0.14278   0.35887   0.00000  Uiso   1.00
O418   O     0.28803   0.13146   0.31475   0.00000  Uiso   1.00
H419   H     0.29202   0.15517   0.30177   0.00000  Uiso   1.00
S420   S     0.14232   0.41729   0.67156   0.00000  Uiso   1.00
O421   O     0.17757   0.40885   0.65154   0.00000  Uiso   1.00
O422   O     0.11138   0.41010   0.64393   0.00000  Uiso   1.00
O423   O     0.14228   0.46167   0.68324   0.00000  Uiso   1.00
H424   H     0.11790   0.46599   0.69442   0.00000  Uiso   1.00
S425   S     0.14864   0.19993   0.28526   0.00000  Uiso   1.00
O426   O     0.13185   0.21254   0.32273   0.00000  Uiso   1.00
O427   O     0.18910   0.19793   0.29061   0.00000  Uiso   1.00
O428   O     0.13989   0.23053   0.25020   0.00000  Uiso   1.00
H429   H     0.14979   0.21969   0.22604   0.00000  Uiso   1.00
S430   S     0.37961   0.32873   0.67416   0.00000  Uiso   1.00
O431   O     0.36951   0.28917   0.67521   0.00000  Uiso   1.00
O432   O     0.35601   0.34752   0.64477   0.00000  Uiso   1.00
O433   O     0.42310   0.33297   0.66001   0.00000  Uiso   1.00
H434   H     0.42818   0.35941   0.66086   0.00000  Uiso   1.00
S435   S     0.17078   0.38208   0.32730   0.00000  Uiso   1.00
O436   O     0.17356   0.41951   0.34442   0.00000  Uiso   1.00
O437   O     0.15763   0.35643   0.35829   0.00000  Uiso   1.00
O438   O     0.21237   0.36814   0.31403   0.00000  Uiso   1.00
H439   H     0.20827   0.34455   0.30079   0.00000  Uiso   1.00
S440   S     0.35749   0.08243   0.67157   0.00000  Uiso   1.00
O441   O     0.32234   0.09110   0.65141   0.00000  Uiso   1.00
O442   O     0.38853   0.08927   0.64404   0.00000  Uiso   1.00
O443   O     0.35716   0.03810   0.68332   0.00000  Uiso   1.00
H444   H     0.38157   0.03357   0.69436   0.00000  Uiso   1.00
O445   O     0.46378   0.30196   0.39738   0.00000  Uiso   1.00
C446   C     0.42662   0.29300   0.40142   0.00000  Uiso   1.00
H447   H     0.41753   0.29490   0.43223   0.00000  Uiso   1.00
H448   H     0.42053   0.26538   0.38985   0.00000  Uiso   1.00
H449   H     0.41051   0.31275   0.38436   0.00000  Uiso   1.00
O450   O     0.02748   0.19093   0.60340   0.00000  Uiso   1.00
C451   C     0.49847   0.16931   0.61749   0.00000  Uiso   1.00
H452   H     0.47403   0.16938   0.59825   0.00000  Uiso   1.00
H453   H     0.49105   0.17795   0.64738   0.00000  Uiso   1.00
H454   H     0.00783   0.14081   0.61958   0.00000  Uiso   1.00
O455   O     0.19019   0.02661   0.39738   0.00000  Uiso   1.00
C456   C     0.16878   0.49809   0.38176   0.00000  Uiso   1.00
H457   H     0.16663   0.47410   0.40147   0.00000  Uiso   1.00
H458   H     0.17922   0.48984   0.35284   0.00000  Uiso   1.00
H459   H     0.14088   0.00827   0.37689   0.00000  Uiso   1.00
O460   O     0.30976   0.46991   0.60234   0.00000  Uiso   1.00
C461   C     0.30542   0.43475   0.61836   0.00000  Uiso   1.00
H462   H     0.28003   0.42020   0.60947   0.00000  Uiso   1.00
H463   H     0.30663   0.43663   0.65053   0.00000  Uiso   1.00
H464   H     0.32892   0.41787   0.60991   0.00000  Uiso   1.00
O465   O     0.02992   0.19015   0.39763   0.00000  Uiso   1.00
C466   C     0.06511   0.19443   0.38166   0.00000  Uiso   1.00
H467   H     0.07973   0.21975   0.39064   0.00000  Uiso   1.00
H468   H     0.06326   0.19330   0.34948   0.00000  Uiso   1.00
H469   H     0.08191   0.17085   0.39007   0.00000  Uiso   1.00
O470   O     0.47350   0.30986   0.60261   0.00000  Uiso   1.00
C471   C     0.00202   0.33120   0.61832   0.00000  Uiso   1.00
H472   H     0.02604   0.33333   0.59867   0.00000  Uiso   1.00
H473   H     0.01019   0.32073   0.64725   0.00000  Uiso   1.00
H474   H     0.49187   0.35911   0.62320   0.00000  Uiso   1.00
O475   O     0.30902   0.47241   0.39661   0.00000  Uiso   1.00
C476   C     0.33070   0.00141   0.38260   0.00000  Uiso   1.00
H477   H     0.33068   0.02580   0.40190   0.00000  Uiso   1.00
H478   H     0.32208   0.00890   0.35273   0.00000  Uiso   1.00
H479   H     0.35918   0.49199   0.38050   0.00000  Uiso   1.00
O480   O     0.19819   0.03645   0.60261   0.00000  Uiso   1.00
C481   C     0.20732   0.07357   0.59856   0.00000  Uiso   1.00
H482   H     0.20551   0.08266   0.56774   0.00000  Uiso   1.00
H483   H     0.23494   0.07955   0.61018   0.00000  Uiso   1.00
H484   H     0.18760   0.08977   0.61557   0.00000  Uiso   1.00
O485   O     0.21362   0.05185   0.89738   0.00000  Uiso   1.00
C486   C     0.17649   0.04277   0.90143   0.00000  Uiso   1.00
H487   H     0.16740   0.04460   0.93225   0.00000  Uiso   1.00
H488   H     0.17048   0.01515   0.88982   0.00000  Uiso   1.00
H489   H     0.16031   0.06250   0.88441   0.00000  Uiso   1.00
O490   O     0.27751   0.44094   0.10340   0.00000  Uiso   1.00
C491   C     0.24848   0.41930   0.11740   0.00000  Uiso   1.00
H492   H     0.22410   0.41933   0.09808   0.00000  Uiso   1.00
H493   H     0.24097   0.42794   0.14726   0.00000  Uiso   1.00
H494   H     0.25786   0.39081   0.11952   0.00000  Uiso   1.00
O495   O     0.44014   0.27651   0.89739   0.00000  Uiso   1.00
C496   C     0.41879   0.24799   0.88169   0.00000  Uiso   1.00
H497   H     0.41667   0.22396   0.90134   0.00000  Uiso   1.00
H498   H     0.42925   0.23982   0.85275   0.00000  Uiso   1.00
H499   H     0.39088   0.25814   0.87682   0.00000  Uiso   1.00
O500   O     0.05988   0.22014   0.10235   0.00000  Uiso   1.00
C501   C     0.05565   0.18498   0.11840   0.00000  Uiso   1.00
H502   H     0.03034   0.17032   0.10946   0.00000  Uiso   1.00
H503   H     0.05680   0.18689   0.15057   0.00000  Uiso   1.00
H504   H     0.07923   0.16819   0.11000   0.00000  Uiso   1.00
O505   O     0.28003   0.44021   0.89766   0.00000  Uiso   1.00
C506   C     0.31520   0.44453   0.88164   0.00000  Uiso   1.00
H507   H     0.32977   0.46990   0.89056   0.00000  Uiso   1.00
H508   H     0.31332   0.44334   0.84947   0.00000  Uiso   1.00
H509   H     0.33206   0.42101   0.89008   0.00000  Uiso   1.00
O510   O     0.22345   0.05984   0.10262   0.00000  Uiso   1.00
C511   C     0.25199   0.08122   0.11825   0.00000  Uiso   1.00
H512   H     0.27598   0.08334   0.09856   0.00000  Uiso   1.00
H513   H     0.26021   0.07077   0.14718   0.00000  Uiso   1.00
H514   H     0.24183   0.10912   0.12312   0.00000  Uiso   1.00
O515   O     0.05906   0.22249   0.89660   0.00000  Uiso   1.00
C516   C     0.08069   0.25151   0.88254   0.00000  Uiso   1.00
H517   H     0.08064   0.27593   0.90180   0.00000  Uiso   1.00
H518   H     0.07205   0.25895   0.85266   0.00000  Uiso   1.00
H519   H     0.10919   0.24213   0.88044   0.00000  Uiso   1.00
O520   O     0.44803   0.28621   0.10263   0.00000  Uiso   1.00
C521   C     0.45699   0.32337   0.09860   0.00000  Uiso   1.00
H522   H     0.45510   0.33247   0.06778   0.00000  Uiso   1.00
H523   H     0.48461   0.32946   0.11017   0.00000  Uiso   1.00
H524   H     0.43724   0.33947   0.11565   0.00000  Uiso   1.00
C525   C     0.98409   0.27700   0.41816   0.00000  Uiso   1.00
C526   C     0.51404   0.22002   0.58235   0.00000  Uiso   1.00
C527   C     0.71915   0.01233   0.41804   0.00000  Uiso   1.00
C528   C     0.77885   0.48030   0.58207   0.00000  Uiso   1.00
C529   C     0.51959   0.22108   0.41793   0.00000  Uiso   1.00
C530   C     0.98776   0.28089   0.58196   0.00000  Uiso   1.00
C531   C     0.77993   0.48587   0.41766   0.00000  Uiso   1.00
C532   C     0.72306   0.01602   0.58184   0.00000  Uiso   1.00
C533   C     0.73401   0.02696   0.91816   0.00000  Uiso   1.00
C534   C     0.76408   0.47005   0.08235   0.00000  Uiso   1.00
C535   C     0.96911   0.26225   0.91804   0.00000  Uiso   1.00
C536   C     0.52893   0.23042   0.08207   0.00000  Uiso   1.00
C537   C     0.76966   0.47113   0.91793   0.00000  Uiso   1.00
C538   C     0.73770   0.03087   0.08196   0.00000  Uiso   1.00
C539   C     0.52996   0.23593   0.91766   0.00000  Uiso   1.00
C540   C     0.97299   0.26590   0.08185   0.00000  Uiso   1.00
C541   C     0.50088   0.24867   0.39808   0.00000  Uiso   1.00
C542   C     0.50014   0.25020   0.60206   0.00000  Uiso   1.00
C543   C     0.74980   0.49986   0.39794   0.00000  Uiso   1.00
C544   C     0.75133   0.49912   0.60192   0.00000  Uiso   1.00
C545   C     0.75088   0.49867   0.89808   0.00000  Uiso   1.00
C546   C     0.75014   0.00020   0.10206   0.00000  Uiso   1.00
C547   C     0.99979   0.24985   0.89794   0.00000  Uiso   1.00
C548   C     0.50133   0.24912   0.10193   0.00000  Uiso   1.00
C549   C     0.53695   0.19329   0.48045   0.00000  Uiso   1.00
C550   C     0.97606   0.31190   0.51962   0.00000  Uiso   1.00
C551   C     0.80885   0.46793   0.47912   0.00000  Uiso   1.00
C552   C     0.68807   0.02210   0.52121   0.00000  Uiso   1.00
C553   C     0.97819   0.31203   0.47877   0.00000  Uiso   1.00
C554   C     0.53179   0.19100   0.52087   0.00000  Uiso   1.00
C555   C     0.68821   0.02423   0.48037   0.00000  Uiso   1.00
C556   C     0.80653   0.46278   0.51954   0.00000  Uiso   1.00
C557   C     0.78714   0.44342   0.98046   0.00000  Uiso   1.00
C558   C     0.72585   0.06182   0.01963   0.00000  Uiso   1.00
C559   C     0.55897   0.21814   0.97913   0.00000  Uiso   1.00
C560   C     0.93797   0.27183   0.02122   0.00000  Uiso   1.00
C561   C     0.72798   0.06196   0.97878   0.00000  Uiso   1.00
C562   C     0.78199   0.44111   0.02088   0.00000  Uiso   1.00
C563   C     0.93811   0.27396   0.98038   0.00000  Uiso   1.00
C564   C     0.55668   0.21300   0.01955   0.00000  Uiso   1.00
C565   C     0.74990   0.00002   0.35569   0.00000  Uiso   1.00
C566   C     0.75104   0.49990   0.64426   0.00000  Uiso   1.00
C567   C     0.50010   0.24896   0.35574   0.00000  Uiso   1.00
C568   C     0.99998   0.25010   0.64431   0.00000  Uiso   1.00
C569   C     0.99990   0.25002   0.85569   0.00000  Uiso   1.00
C570   C     0.50104   0.24990   0.14426   0.00000  Uiso   1.00
C571   C     0.75010   0.49896   0.85574   0.00000  Uiso   1.00
C572   C     0.74998   0.00010   0.14431   0.00000  Uiso   1.00
C573   C     0.67990   0.07010   0.25000   0.00000  Uiso   1.00
C574   C     0.82007   0.42993   0.75000   0.00000  Uiso   1.00
C575   C     0.93017   0.18017   0.24998   0.00000  Uiso   1.00
C576   C     0.57023   0.32022   0.75002   0.00000  Uiso   1.00
C577   C     0.82009   0.42991   0.25000   0.00000  Uiso   1.00
C578   C     0.67993   0.07007   0.75000   0.00000  Uiso   1.00
C579   C     0.56983   0.31983   0.25002   0.00000  Uiso   1.00
C580   C     0.92978   0.17977   0.74998   0.00000  Uiso   1.00
C581   C     0.68017   0.43017   0.74998   0.00000  Uiso   1.00
C582   C     0.82023   0.07022   0.25002   0.00000  Uiso   1.00
C583   C     0.92990   0.32010   0.75000   0.00000  Uiso   1.00
C584   C     0.57007   0.17993   0.25000   0.00000  Uiso   1.00
C585   C     0.81983   0.06983   0.75002   0.00000  Uiso   1.00
C586   C     0.67978   0.42977   0.24999   0.00000  Uiso   1.00
C587   C     0.57009   0.17991   0.75000   0.00000  Uiso   1.00
C588   C     0.92993   0.32007   0.25000   0.00000  Uiso   1.00
C589   C     0.63301   0.39164   0.21460   0.00000  Uiso   1.00
C590   C     0.85986   0.11207   0.78553   0.00000  Uiso   1.00
C591   C     0.59349   0.11949   0.22802   0.00000  Uiso   1.00
C592   C     0.90170   0.37592   0.77874   0.00000  Uiso   1.00
C593   C     0.86704   0.10819   0.21469   0.00000  Uiso   1.00
C594   C     0.64029   0.38793   0.78557   0.00000  Uiso   1.00
C595   C     0.90640   0.38042   0.22789   0.00000  Uiso   1.00
C596   C     0.59840   0.12422   0.77882   0.00000  Uiso   1.00
C597   C     0.61957   0.09358   0.77208   0.00000  Uiso   1.00
C598   C     0.87576   0.40158   0.22117   0.00000  Uiso   1.00
C599   C     0.60838   0.36697   0.78542   0.00000  Uiso   1.00
C600   C     0.88792   0.14014   0.21448   0.00000  Uiso   1.00
C601   C     0.88052   0.40653   0.77195   0.00000  Uiso   1.00
C602   C     0.62411   0.09832   0.22123   0.00000  Uiso   1.00
C603   C     0.89181   0.13296   0.78532   0.00000  Uiso   1.00
C604   C     0.61206   0.35972   0.21444   0.00000  Uiso   1.00
C605   C     0.88302   0.14163   0.71459   0.00000  Uiso   1.00
C606   C     0.60985   0.36208   0.28553   0.00000  Uiso   1.00
C607   C     0.84347   0.36948   0.72806   0.00000  Uiso   1.00
C608   C     0.65170   0.12592   0.27874   0.00000  Uiso   1.00
C609   C     0.61704   0.35819   0.71469   0.00000  Uiso   1.00
C610   C     0.89031   0.13792   0.28557   0.00000  Uiso   1.00
C611   C     0.65642   0.13043   0.72792   0.00000  Uiso   1.00
C612   C     0.84841   0.37422   0.27882   0.00000  Uiso   1.00
C613   C     0.86957   0.34358   0.27209   0.00000  Uiso   1.00
C614   C     0.62579   0.15160   0.72119   0.00000  Uiso   1.00
C615   C     0.85840   0.11695   0.28543   0.00000  Uiso   1.00
C616   C     0.63793   0.39014   0.71448   0.00000  Uiso   1.00
C617   C     0.63052   0.15653   0.27195   0.00000  Uiso   1.00
C618   C     0.87408   0.34830   0.72126   0.00000  Uiso   1.00
C619   C     0.64179   0.38297   0.28533   0.00000  Uiso   1.00
C620   C     0.86206   0.10971   0.71443   0.00000  Uiso   1.00
C621   C     0.52062   0.22163   0.45910   0.00000  Uiso   1.00
C622   C     0.98881   0.28148   0.54083   0.00000  Uiso   1.00
C623   C     0.77929   0.48308   0.45857   0.00000  Uiso   1.00
C624   C     0.71963   0.01095   0.54132   0.00000  Uiso   1.00
C625   C     0.98918   0.28042   0.45867   0.00000  Uiso   1.00
C626   C     0.51680   0.22064   0.54143   0.00000  Uiso   1.00
C627   C     0.71857   0.01131   0.45916   0.00000  Uiso   1.00
C628   C     0.77827   0.47926   0.54089   0.00000  Uiso   1.00
C629   C     0.77071   0.47170   0.95911   0.00000  Uiso   1.00
C630   C     0.73872   0.03144   0.04084   0.00000  Uiso   1.00
C631   C     0.52935   0.23316   0.95857   0.00000  Uiso   1.00
C632   C     0.96958   0.26082   0.04133   0.00000  Uiso   1.00
C633   C     0.73909   0.03038   0.95868   0.00000  Uiso   1.00
C634   C     0.76688   0.47068   0.04144   0.00000  Uiso   1.00
C635   C     0.96852   0.26119   0.95917   0.00000  Uiso   1.00
C636   C     0.52835   0.22937   0.04090   0.00000  Uiso   1.00
C637   C     0.59765   0.34761   0.25000   0.00000  Uiso   1.00
C638   C     0.90134   0.15127   0.74996   0.00000  Uiso   1.00
C639   C     0.65177   0.09825   0.24999   0.00000  Uiso   1.00
C640   C     0.84815   0.40185   0.75000   0.00000  Uiso   1.00
C641   C     0.90240   0.15235   0.25001   0.00000  Uiso   1.00
C642   C     0.59873   0.34866   0.75005   0.00000  Uiso   1.00
C643   C     0.84823   0.40176   0.25000   0.00000  Uiso   1.00
C644   C     0.65185   0.09815   0.75000   0.00000  Uiso   1.00
C645   C     0.59823   0.15177   0.75000   0.00000  Uiso   1.00
C646   C     0.90184   0.34815   0.24999   0.00000  Uiso   1.00
C647   C     0.65240   0.40235   0.75001   0.00000  Uiso   1.00
C648   C     0.84874   0.09865   0.25005   0.00000  Uiso   1.00
C649   C     0.90176   0.34824   0.75000   0.00000  Uiso   1.00
C650   C     0.59815   0.15186   0.24999   0.00000  Uiso   1.00
C651   C     0.84765   0.09760   0.75000   0.00000  Uiso   1.00
C652   C     0.65133   0.40129   0.24997   0.00000  Uiso   1.00
C653   C     0.50480   0.25123   0.47948   0.00000  Uiso   1.00
C654   C     0.50397   0.25136   0.52062   0.00000  Uiso   1.00
C655   C     0.74861   0.49603   0.47937   0.00000  Uiso   1.00
C656   C     0.74874   0.49521   0.52052   0.00000  Uiso   1.00
C657   C     0.75479   0.00125   0.97948   0.00000  Uiso   1.00
C658   C     0.75396   0.00138   0.02063   0.00000  Uiso   1.00
C659   C     0.99863   0.24602   0.97938   0.00000  Uiso   1.00
C660   C     0.99876   0.24519   0.02053   0.00000  Uiso   1.00
O661   O     0.75000  -0.00000   0.25000   0.00000  Uiso   1.00
O662   O     0.75000  -0.00000   0.75000   0.00000  Uiso   1.00
O663   O     0.50000   0.25000   0.25000   0.00000  Uiso   1.00
O664   O     0.50000   0.25000   0.75000   0.00000  Uiso   1.00
O665   O     0.75000   0.46963   0.33755   0.00000  Uiso   1.00
O666   O     0.75000   0.03036   0.66245   0.00000  Uiso   1.00
O667   O     0.53036   0.25000   0.33755   0.00000  Uiso   1.00
O668   O     0.96963   0.25000   0.66245   0.00000  Uiso   1.00
O669   O     0.75000   0.03036   0.33755   0.00000  Uiso   1.00
O670   O     0.75000   0.46963   0.66245   0.00000  Uiso   1.00
O671   O     0.96963   0.25000   0.33755   0.00000  Uiso   1.00
O672   O     0.53036   0.25000   0.66245   0.00000  Uiso   1.00
O673   O     0.50000   0.21963   0.83755   0.00000  Uiso   1.00
O674   O     0.50000   0.28036   0.16245   0.00000  Uiso   1.00
O675   O     0.78036  -0.00000   0.83755   0.00000  Uiso   1.00
O676   O     0.71963  -0.00000   0.16245   0.00000  Uiso   1.00
O677   O     0.50000   0.28036   0.83755   0.00000  Uiso   1.00
O678   O     0.50000   0.21963   0.16245   0.00000  Uiso   1.00
O679   O     0.71963  -0.00000   0.83755   0.00000  Uiso   1.00
O680   O     0.78036  -0.00000   0.16245   0.00000  Uiso   1.00
O681   O     0.70724   0.07307   0.27302   0.00000  Uiso   1.00
O682   O     0.79275   0.42692   0.72698   0.00000  Uiso   1.00
O683   O     0.92692   0.20724   0.27302   0.00000  Uiso   1.00
O684   O     0.57307   0.29275   0.72698   0.00000  Uiso   1.00
O685   O     0.79275   0.42692   0.27302   0.00000  Uiso   1.00
O686   O     0.70724   0.07307   0.72698   0.00000  Uiso   1.00
O687   O     0.57307   0.29275   0.27302   0.00000  Uiso   1.00
O688   O     0.92692   0.20724   0.72698   0.00000  Uiso   1.00
O689   O     0.70724   0.42692   0.72698   0.00000  Uiso   1.00
O690   O     0.79275   0.07307   0.27302   0.00000  Uiso   1.00
O691   O     0.92692   0.29275   0.72698   0.00000  Uiso   1.00
O692   O     0.57307   0.20724   0.27302   0.00000  Uiso   1.00
O693   O     0.79275   0.07307   0.72698   0.00000  Uiso   1.00
O694   O     0.70724   0.42692   0.27302   0.00000  Uiso   1.00
O695   O     0.57307   0.20724   0.72698   0.00000  Uiso   1.00
O696   O     0.92692   0.29275   0.27302   0.00000  Uiso   1.00
O697   O     0.95724   0.32307   0.77302   0.00000  Uiso   1.00
O698   O     0.54275   0.17692   0.22698   0.00000  Uiso   1.00
O699   O     0.67692   0.45724   0.77302   0.00000  Uiso   1.00
O700   O     0.82307   0.04275   0.22698   0.00000  Uiso   1.00
O701   O     0.54275   0.17692   0.77302   0.00000  Uiso   1.00
O702   O     0.95724   0.32307   0.22698   0.00000  Uiso   1.00
O703   O     0.82307   0.04275   0.77302   0.00000  Uiso   1.00
O704   O     0.67692   0.45724   0.22698   0.00000  Uiso   1.00
O705   O     0.95724   0.17692   0.22698   0.00000  Uiso   1.00
O706   O     0.54275   0.32307   0.77302   0.00000  Uiso   1.00
O707   O     0.67692   0.04275   0.22698   0.00000  Uiso   1.00
O708   O     0.82307   0.45724   0.77302   0.00000  Uiso   1.00
O709   O     0.54275   0.32307   0.22698   0.00000  Uiso   1.00
O710   O     0.95724   0.17692   0.77302   0.00000  Uiso   1.00
O711   O     0.82307   0.45724   0.22698   0.00000  Uiso   1.00
O712   O     0.67692   0.04275   0.77302   0.00000  Uiso   1.00
Zn713  Zn    0.70659  -0.00000   0.21735   0.00000  Uiso   1.00
Zn714  Zn    0.79340  -0.00000   0.78265   0.00000  Uiso   1.00
Zn715  Zn    0.50000   0.20659   0.21735   0.00000  Uiso   1.00
Zn716  Zn    0.50000   0.29340   0.78265   0.00000  Uiso   1.00
Zn717  Zn    0.79340  -0.00000   0.21735   0.00000  Uiso   1.00
Zn718  Zn    0.70659  -0.00000   0.78265   0.00000  Uiso   1.00
Zn719  Zn    0.50000   0.29340   0.21735   0.00000  Uiso   1.00
Zn720  Zn    0.50000   0.20659   0.78265   0.00000  Uiso   1.00
Zn721  Zn    0.95659   0.25000   0.71735   0.00000  Uiso   1.00
Zn722  Zn    0.54340   0.25000   0.28265   0.00000  Uiso   1.00
Zn723  Zn    0.75000   0.45659   0.71735   0.00000  Uiso   1.00
Zn724  Zn    0.75000   0.04340   0.28265   0.00000  Uiso   1.00
Zn725  Zn    0.54340   0.25000   0.71735   0.00000  Uiso   1.00
Zn726  Zn    0.95659   0.25000   0.28265   0.00000  Uiso   1.00
Zn727  Zn    0.75000   0.04340   0.71735   0.00000  Uiso   1.00
Zn728  Zn    0.75000   0.45659   0.28265   0.00000  Uiso   1.00
O729   O     0.55660   0.16644   0.46186   0.00000  Uiso   1.00
C730   C     0.59394   0.17198   0.46960   0.00000  Uiso   1.00
H731   H     0.60303   0.19961   0.46052   0.00000  Uiso   1.00
H732   H     0.60973   0.15196   0.45251   0.00000  Uiso   1.00
H733   H     0.60058   0.16744   0.50078   0.00000  Uiso   1.00
O734   O     0.95675   0.33907   0.53839   0.00000  Uiso   1.00
C735   C     0.97648   0.37210   0.53844   0.00000  Uiso   1.00
H736   H     0.50649   0.36838   0.53947   0.00000  Uiso   1.00
H737   H     0.96873   0.38777   0.56472   0.00000  Uiso   1.00
H738   H     0.96865   0.38896   0.51309   0.00000  Uiso   1.00
O739   O     0.83935   0.45576   0.45951   0.00000  Uiso   1.00
C740   C     0.86890   0.47928   0.46754   0.00000  Uiso   1.00
H741   H     0.86157   0.00840   0.46398   0.00000  Uiso   1.00
H742   H     0.89098   0.47337   0.44655   0.00000  Uiso   1.00
H743   H     0.87993   0.47457   0.49720   0.00000  Uiso   1.00
O744   O     0.65732   0.03307   0.54113   0.00000  Uiso   1.00
C745   C     0.63860   0.00190   0.55479   0.00000  Uiso   1.00
H746   H     0.65391   0.48779   0.57814   0.00000  Uiso   1.00
H747   H     0.63252   0.48232   0.53092   0.00000  Uiso   1.00
H748   H     0.61231   0.01058   0.56737   0.00000  Uiso   1.00
O749   O     0.96739   0.34284   0.45885   0.00000  Uiso   1.00
C750   C     0.99866   0.36138   0.44518   0.00000  Uiso   1.00
H751   H     0.51265   0.34601   0.42179   0.00000  Uiso   1.00
H752   H     0.51831   0.36730   0.46903   0.00000  Uiso   1.00
H753   H     0.99014   0.38774   0.43265   0.00000  Uiso   1.00
O754   O     0.54375   0.16041   0.54047   0.00000  Uiso   1.00
C755   C     0.52002   0.13102   0.53245   0.00000  Uiso   1.00
H756   H     0.99095   0.13855   0.53604   0.00000  Uiso   1.00
H757   H     0.52579   0.10889   0.55342   0.00000  Uiso   1.00
H758   H     0.52463   0.11998   0.50278   0.00000  Uiso   1.00
O759   O     0.66118   0.04372   0.46160   0.00000  Uiso   1.00
C760   C     0.62802   0.02421   0.46153   0.00000  Uiso   1.00
H761   H     0.63154   0.49417   0.46051   0.00000  Uiso   1.00
H762   H     0.61242   0.03206   0.43525   0.00000  Uiso   1.00
H763   H     0.61120   0.03216   0.48688   0.00000  Uiso   1.00
O764   O     0.83325   0.44296   0.53813   0.00000  Uiso   1.00
C765   C     0.82742   0.40565   0.53042   0.00000  Uiso   1.00
H766   H     0.79974   0.39677   0.53956   0.00000  Uiso   1.00
H767   H     0.84736   0.38972   0.54748   0.00000  Uiso   1.00
H768   H     0.83186   0.39896   0.49923   0.00000  Uiso   1.00
O769   O     0.80692   0.41667   0.96187   0.00000  Uiso   1.00
C770   C     0.84424   0.42243   0.96959   0.00000  Uiso   1.00
H771   H     0.85317   0.45010   0.96046   0.00000  Uiso   1.00
H772   H     0.86013   0.40248   0.95252   0.00000  Uiso   1.00
H773   H     0.85091   0.41797   0.00077   0.00000  Uiso   1.00
O774   O     0.70640   0.08888   0.03840   0.00000  Uiso   1.00
C775   C     0.72597   0.12202   0.03846   0.00000  Uiso   1.00
H776   H     0.75600   0.11844   0.03949   0.00000  Uiso   1.00
H777   H     0.71814   0.13762   0.06475   0.00000  Uiso   1.00
H778   H     0.71805   0.13884   0.01312   0.00000  Uiso   1.00
O779   O     0.58952   0.20611   0.95952   0.00000  Uiso   1.00
C780   C     0.61897   0.22977   0.96753   0.00000  Uiso   1.00
H781   H     0.61150   0.25885   0.96396   0.00000  Uiso   1.00
H782   H     0.64107   0.22396   0.94654   0.00000  Uiso   1.00
H783   H     0.63002   0.22512   0.99719   0.00000  Uiso   1.00
O784   O     0.90717   0.28263   0.04114   0.00000  Uiso   1.00
C785   C     0.88861   0.25137   0.05480   0.00000  Uiso   1.00
H786   H     0.90398   0.23735   0.07817   0.00000  Uiso   1.00
H787   H     0.88266   0.23174   0.03094   0.00000  Uiso   1.00
H788   H     0.86226   0.25991   0.06736   0.00000  Uiso   1.00
O789   O     0.71705   0.09272   0.95887   0.00000  Uiso   1.00
C790   C     0.74825   0.11140   0.94521   0.00000  Uiso   1.00
H791   H     0.76233   0.09607   0.92185   0.00000  Uiso   1.00
H792   H     0.76784   0.11744   0.96908   0.00000  Uiso   1.00
H793   H     0.73960   0.13770   0.93263   0.00000  Uiso   1.00
O794   O     0.79411   0.41059   0.04049   0.00000  Uiso   1.00
C795   C     0.77055   0.38107   0.03246   0.00000  Uiso   1.00
H796   H     0.74143   0.38844   0.03600   0.00000  Uiso   1.00
H797   H     0.77641   0.35898   0.05345   0.00000  Uiso   1.00
H798   H     0.77525   0.37003   0.00280   0.00000  Uiso   1.00
O799   O     0.91096   0.29330   0.96161   0.00000  Uiso   1.00
C800   C     0.87791   0.27360   0.96155   0.00000  Uiso   1.00
H801   H     0.88161   0.24359   0.96052   0.00000  Uiso   1.00
H802   H     0.86226   0.28137   0.93527   0.00000  Uiso   1.00
H803   H     0.86105   0.28145   0.98690   0.00000  Uiso   1.00
O804   O     0.58350   0.19332   0.03814   0.00000  Uiso   1.00
C805   C     0.57785   0.15598   0.03046   0.00000  Uiso   1.00
H806   H     0.55021   0.14697   0.03959   0.00000  Uiso   1.00
H807   H     0.59785   0.14016   0.04754   0.00000  Uiso   1.00
H808   H     0.58233   0.14930   0.99928   0.00000  Uiso   1.00
S809   S     0.63243   0.42038   0.17247   0.00000  Uiso   1.00
O810   O     0.67000   0.42302   0.15574   0.00000  Uiso   1.00
O811   O     0.60699   0.40712   0.14127   0.00000  Uiso   1.00
O812   O     0.61846   0.46206   0.18541   0.00000  Uiso   1.00
H813   H     0.59493   0.45804   0.19876   0.00000  Uiso   1.00
S814   S     0.83271   0.10767   0.82845   0.00000  Uiso   1.00
O815   O     0.84116   0.07242   0.84847   0.00000  Uiso   1.00
O816   O     0.83991   0.13861   0.85608   0.00000  Uiso   1.00
O817   O     0.78834   0.10770   0.81677   0.00000  Uiso   1.00
H818   H     0.78401   0.13208   0.80561   0.00000  Uiso   1.00
S819   S     0.55010   0.10137   0.21467   0.00000  Uiso   1.00
O820   O     0.53750   0.11820   0.17720   0.00000  Uiso   1.00
O821   O     0.55211   0.06092   0.20928   0.00000  Uiso   1.00
O822   O     0.51949   0.11009   0.24972   0.00000  Uiso   1.00
H823   H     0.53031   0.10017   0.27387   0.00000  Uiso   1.00
S824   S     0.92127   0.37038   0.82584   0.00000  Uiso   1.00
O825   O     0.96083   0.38049   0.82479   0.00000  Uiso   1.00
O826   O     0.90248   0.39399   0.85524   0.00000  Uiso   1.00
O827   O     0.91703   0.32690   0.83998   0.00000  Uiso   1.00
H828   H     0.89059   0.32182   0.83915   0.00000  Uiso   1.00
S829   S     0.86798   0.07919   0.17273   0.00000  Uiso   1.00
O830   O     0.83057   0.07641   0.15556   0.00000  Uiso   1.00
O831   O     0.89367   0.09232   0.14178   0.00000  Uiso   1.00
O832   O     0.88189   0.03759   0.18604   0.00000  Uiso   1.00
H833   H     0.90528   0.04173   0.19967   0.00000  Uiso   1.00
S834   S     0.66758   0.39250   0.82843   0.00000  Uiso   1.00
O835   O     0.65891   0.42764   0.84859   0.00000  Uiso   1.00
O836   O     0.66076   0.36145   0.85595   0.00000  Uiso   1.00
O837   O     0.71192   0.39285   0.81667   0.00000  Uiso   1.00
H838   H     0.71645   0.36844   0.80563   0.00000  Uiso   1.00
S839   S     0.94971   0.39833   0.21404   0.00000  Uiso   1.00
O840   O     0.96210   0.38083   0.17684   0.00000  Uiso   1.00
O841   O     0.94770   0.43869   0.20794   0.00000  Uiso   1.00
O842   O     0.98051   0.39018   0.24912   0.00000  Uiso   1.00
H843   H     0.96985   0.40057   0.27313   0.00000  Uiso   1.00
S844   S     0.57916   0.13011   0.82599   0.00000  Uiso   1.00
O845   O     0.53956   0.12015   0.82524   0.00000  Uiso   1.00
O846   O     0.59807   0.10666   0.85542   0.00000  Uiso   1.00
O847   O     0.58369   0.17368   0.83976   0.00000  Uiso   1.00
H848   H     0.61015   0.17864   0.83879   0.00000  Uiso   1.00
S849   S     0.60165   0.05026   0.78588   0.00000  Uiso   1.00
O850   O     0.61912   0.03785   0.82309   0.00000  Uiso   1.00
O851   O     0.56129   0.05226   0.79194   0.00000  Uiso   1.00
O852   O     0.60983   0.01949   0.75079   0.00000  Uiso   1.00
H853   H     0.59945   0.03016   0.72678   0.00000  Uiso   1.00
S854   S     0.86984   0.42080   0.17399   0.00000  Uiso   1.00
O855   O     0.87980   0.46041   0.17471   0.00000  Uiso   1.00
O856   O     0.89327   0.40188   0.14455   0.00000  Uiso   1.00
O857   O     0.82626   0.41627   0.16025   0.00000  Uiso   1.00
H858   H     0.82130   0.38981   0.16123   0.00000  Uiso   1.00
S859   S     0.57966   0.36751   0.82757   0.00000  Uiso   1.00
O860   O     0.57700   0.32991   0.84424   0.00000  Uiso   1.00
O861   O     0.59294   0.39290   0.85880   0.00000  Uiso   1.00
O862   O     0.53798   0.38152   0.81466   0.00000  Uiso   1.00
H863   H     0.54200   0.40514   0.80151   0.00000  Uiso   1.00
S864   S     0.89230   0.16730   0.17157   0.00000  Uiso   1.00
O865   O     0.92755   0.15888   0.15154   0.00000  Uiso   1.00
O866   O     0.86136   0.16010   0.14394   0.00000  Uiso   1.00
O867   O     0.89225   0.21167   0.18326   0.00000  Uiso   1.00
H868   H     0.86787   0.21599   0.19443   0.00000  Uiso   1.00
S869   S     0.89866   0.44993   0.78523   0.00000  Uiso   1.00
O870   O     0.88188   0.46256   0.82271   0.00000  Uiso   1.00
O871   O     0.93912   0.44793   0.79055   0.00000  Uiso   1.00
O872   O     0.88988   0.48052   0.75016   0.00000  Uiso   1.00
H873   H     0.89978   0.46968   0.72601   0.00000  Uiso   1.00
S874   S     0.62969   0.07878   0.17412   0.00000  Uiso   1.00
O875   O     0.61958   0.03922   0.17513   0.00000  Uiso   1.00
O876   O     0.60611   0.09759   0.14472   0.00000  Uiso   1.00
O877   O     0.67318   0.08304   0.16004   0.00000  Uiso   1.00
H878   H     0.67826   0.10948   0.16090   0.00000  Uiso   1.00
S879   S     0.92082   0.13202   0.82727   0.00000  Uiso   1.00
O880   O     0.92362   0.16944   0.84443   0.00000  Uiso   1.00
O881   O     0.90769   0.10634   0.85824   0.00000  Uiso   1.00
O882   O     0.96240   0.11809   0.81395   0.00000  Uiso   1.00
H883   H     0.95829   0.09453   0.80066   0.00000  Uiso   1.00
S884   S     0.60750   0.33245   0.17157   0.00000  Uiso   1.00
O885   O     0.57234   0.34110   0.15143   0.00000  Uiso   1.00
O886   O     0.63853   0.33931   0.14404   0.00000  Uiso   1.00
O887   O     0.60719   0.28811   0.18332   0.00000  Uiso   1.00
H888   H     0.63161   0.28359   0.19435   0.00000  Uiso   1.00
S889   S     0.88247   0.17036   0.67245   0.00000  Uiso   1.00
O890   O     0.92005   0.17302   0.65576   0.00000  Uiso   1.00
O891   O     0.85706   0.15709   0.64122   0.00000  Uiso   1.00
O892   O     0.86846   0.21203   0.68538   0.00000  Uiso   1.00
H893   H     0.84481   0.20801   0.69848   0.00000  Uiso   1.00
S894   S     0.58268   0.35768   0.32844   0.00000  Uiso   1.00
O895   O     0.59114   0.32245   0.34848   0.00000  Uiso   1.00
O896   O     0.58984   0.38864   0.35606   0.00000  Uiso   1.00
O897   O     0.53831   0.35768   0.31674   0.00000  Uiso   1.00
H898   H     0.53397   0.38206   0.30557   0.00000  Uiso   1.00
S899   S     0.80007   0.35134   0.71479   0.00000  Uiso   1.00
O900   O     0.78743   0.36811   0.67731   0.00000  Uiso   1.00
O901   O     0.80207   0.31088   0.70947   0.00000  Uiso   1.00
O902   O     0.76949   0.36012   0.74986   0.00000  Uiso   1.00
H903   H     0.78033   0.35023   0.77401   0.00000  Uiso   1.00
S904   S     0.67126   0.12037   0.32585   0.00000  Uiso   1.00
O905   O     0.71083   0.13047   0.32480   0.00000  Uiso   1.00
O906   O     0.65247   0.14397   0.35524   0.00000  Uiso   1.00
O907   O     0.66700   0.07688   0.33997   0.00000  Uiso   1.00
H908   H     0.64056   0.07181   0.33913   0.00000  Uiso   1.00
S909   S     0.61798   0.32918   0.67273   0.00000  Uiso   1.00
O910   O     0.58057   0.32639   0.65557   0.00000  Uiso   1.00
O911   O     0.64367   0.34231   0.64177   0.00000  Uiso   1.00
O912   O     0.63190   0.28760   0.68605   0.00000  Uiso   1.00
H913   H     0.65533   0.29173   0.69960   0.00000  Uiso   1.00
S914   S     0.91763   0.14247   0.32842   0.00000  Uiso   1.00
O915   O     0.90894   0.17759   0.34861   0.00000  Uiso   1.00
O916   O     0.91083   0.11140   0.35592   0.00000  Uiso   1.00
O917   O     0.96195   0.14285   0.31663   0.00000  Uiso   1.00
H918   H     0.96650   0.11845   0.30558   0.00000  Uiso   1.00
S919   S     0.69974   0.14836   0.71414   0.00000  Uiso   1.00
O920   O     0.71216   0.13090   0.67693   0.00000  Uiso   1.00
O921   O     0.69774   0.18872   0.70809   0.00000  Uiso   1.00
O922   O     0.73051   0.14017   0.74924   0.00000  Uiso   1.00
H923   H     0.71983   0.15054   0.77325   0.00000  Uiso   1.00
S924   S     0.82918   0.38013   0.32599   0.00000  Uiso   1.00
O925   O     0.78957   0.37018   0.32527   0.00000  Uiso   1.00
O926   O     0.84809   0.35669   0.35543   0.00000  Uiso   1.00
O927   O     0.83373   0.42371   0.33975   0.00000  Uiso   1.00
H928   H     0.86019   0.42866   0.33876   0.00000  Uiso   1.00
S929   S     0.85166   0.30027   0.28593   0.00000  Uiso   1.00
O930   O     0.86916   0.28789   0.32314   0.00000  Uiso   1.00
O931   O     0.81131   0.30227   0.29202   0.00000  Uiso   1.00
O932   O     0.85982   0.26948   0.25085   0.00000  Uiso   1.00
H933   H     0.84944   0.28014   0.22684   0.00000  Uiso   1.00
S934   S     0.61990   0.17084   0.67402   0.00000  Uiso   1.00
O935   O     0.62986   0.21045   0.67477   0.00000  Uiso   1.00
O936   O     0.64335   0.15194   0.64459   0.00000  Uiso   1.00
O937   O     0.57633   0.16632   0.66023   0.00000  Uiso   1.00
H938   H     0.57137   0.13986   0.66120   0.00000  Uiso   1.00
S939   S     0.82971   0.11743   0.32760   0.00000  Uiso   1.00
O940   O     0.82707   0.07982   0.34423   0.00000  Uiso   1.00
O941   O     0.84301   0.14278   0.35887   0.00000  Uiso   1.00
O942   O     0.78803   0.13146   0.31475   0.00000  Uiso   1.00
H943   H     0.79202   0.15517   0.30177   0.00000  Uiso   1.00
S944   S     0.64232   0.41729   0.67156   0.00000  Uiso   1.00
O945   O     0.67757   0.40885   0.65154   0.00000  Uiso   1.00
O946   O     0.61138   0.41010   0.64393   0.00000  Uiso   1.00
O947   O     0.64228   0.46167   0.68324   0.00000  Uiso   1.00
H948   H     0.61790   0.46599   0.69442   0.00000  Uiso   1.00
S949   S     0.64864   0.19993   0.28526   0.00000  Uiso   1.00
O950   O     0.63185   0.21254   0.32273   0.00000  Uiso   1.00
O951   O     0.68910   0.19793   0.29061   0.00000  Uiso   1.00
O952   O     0.63989   0.23053   0.25020   0.00000  Uiso   1.00
H953   H     0.64979   0.21969   0.22604   0.00000  Uiso   1.00
S954   S     0.87961   0.32873   0.67416   0.00000  Uiso   1.00
O955   O     0.86951   0.28917   0.67521   0.00000  Uiso   1.00
O956   O     0.85601   0.34752   0.64477   0.00000  Uiso   1.00
O957   O     0.92310   0.33297   0.66001   0.00000  Uiso   1.00
H958   H     0.92818   0.35941   0.66086   0.00000  Uiso   1.00
S959   S     0.67078   0.38208   0.32730   0.00000  Uiso   1.00
O960   O     0.67356   0.41951   0.34442   0.00000  Uiso   1.00
O961   O     0.65763   0.35643   0.35829   0.00000  Uiso   1.00
O962   O     0.71237   0.36814   0.31403   0.00000  Uiso   1.00
H963   H     0.70827   0.34455   0.30079   0.00000  Uiso   1.00
S964   S     0.85749   0.08243   0.67157   0.00000  Uiso   1.00
O965   O     0.82234   0.09110   0.65141   0.00000  Uiso   1.00
O966   O     0.88853   0.08927   0.64404   0.00000  Uiso   1.00
O967   O     0.85716   0.03810   0.68332   0.00000  Uiso   1.00
H968   H     0.88157   0.03357   0.69436   0.00000  Uiso   1.00
O969   O     0.96378   0.30196   0.39738   0.00000  Uiso   1.00
C970   C     0.92662   0.29300   0.40142   0.00000  Uiso   1.00
H971   H     0.91753   0.29490   0.43223   0.00000  Uiso   1.00
H972   H     0.92053   0.26538   0.38985   0.00000  Uiso   1.00
H973   H     0.91051   0.31275   0.38436   0.00000  Uiso   1.00
O974   O     0.52748   0.19093   0.60340   0.00000  Uiso   1.00
C975   C     0.99847   0.16931   0.61749   0.00000  Uiso   1.00
H976   H     0.97403   0.16938   0.59825   0.00000  Uiso   1.00
H977   H     0.99105   0.17795   0.64738   0.00000  Uiso   1.00
H978   H     0.50783   0.14081   0.61958   0.00000  Uiso   1.00
O979   O     0.69019   0.02661   0.39738   0.00000  Uiso   1.00
C980   C     0.66878   0.49809   0.38176   0.00000  Uiso   1.00
H981   H     0.66663   0.47410   0.40147   0.00000  Uiso   1.00
H982   H     0.67922   0.48984   0.35284   0.00000  Uiso   1.00
H983   H     0.64088   0.00827   0.37689   0.00000  Uiso   1.00
O984   O     0.80976   0.46991   0.60234   0.00000  Uiso   1.00
C985   C     0.80542   0.43475   0.61836   0.00000  Uiso   1.00
H986   H     0.78003   0.42020   0.60947   0.00000  Uiso   1.00
H987   H     0.80663   0.43663   0.65053   0.00000  Uiso   1.00
H988   H     0.82892   0.41787   0.60991   0.00000  Uiso   1.00
O989   O     0.52992   0.19015   0.39763   0.00000  Uiso   1.00
C990   C     0.56511   0.19443   0.38166   0.00000  Uiso   1.00
H991   H     0.57973   0.21975   0.39064   0.00000  Uiso   1.00
H992   H     0.56326   0.19330   0.34948   0.00000  Uiso   1.00
H993   H     0.58191   0.17085   0.39007   0.00000  Uiso   1.00
O994   O     0.97350   0.30986   0.60261   0.00000  Uiso   1.00
C995   C     0.50202   0.33120   0.61832   0.00000  Uiso   1.00
H996   H     0.52604   0.33333   0.59867   0.00000  Uiso   1.00
H997   H     0.51019   0.32073   0.64725   0.00000  Uiso   1.00
H998   H     0.99187   0.35911   0.62320   0.00000  Uiso   1.00
O999   O     0.80902   0.47241   0.39661   0.00000  Uiso   1.00
C1000  C     0.83070   0.00141   0.38260   0.00000  Uiso   1.00
H1001  H     0.83068   0.02580   0.40190   0.00000  Uiso   1.00
H1002  H     0.82208   0.00890   0.35273   0.00000  Uiso   1.00
H1003  H     0.85918   0.49199   0.38050   0.00000  Uiso   1.00
O1004  O     0.69819   0.03645   0.60261   0.00000  Uiso   1.00
C1005  C     0.70732   0.07357   0.59856   0.00000  Uiso   1.00
H1006  H     0.70551   0.08266   0.56774   0.00000  Uiso   1.00
H1007  H     0.73494   0.07955   0.61018   0.00000  Uiso   1.00
H1008  H     0.68760   0.08977   0.61557   0.00000  Uiso   1.00
O1009  O     0.71362   0.05185   0.89738   0.00000  Uiso   1.00
C1010  C     0.67649   0.04277   0.90143   0.00000  Uiso   1.00
H1011  H     0.66740   0.04460   0.93225   0.00000  Uiso   1.00
H1012  H     0.67048   0.01515   0.88982   0.00000  Uiso   1.00
H1013  H     0.66031   0.06250   0.88441   0.00000  Uiso   1.00
O1014  O     0.77751   0.44094   0.10340   0.00000  Uiso   1.00
C1015  C     0.74848   0.41930   0.11740   0.00000  Uiso   1.00
H1016  H     0.72410   0.41933   0.09808   0.00000  Uiso   1.00
H1017  H     0.74097   0.42794   0.14726   0.00000  Uiso   1.00
H1018  H     0.75786   0.39081   0.11952   0.00000  Uiso   1.00
O1019  O     0.94014   0.27651   0.89739   0.00000  Uiso   1.00
C1020  C     0.91879   0.24799   0.88169   0.00000  Uiso   1.00
H1021  H     0.91667   0.22396   0.90134   0.00000  Uiso   1.00
H1022  H     0.92925   0.23982   0.85275   0.00000  Uiso   1.00
H1023  H     0.89088   0.25814   0.87682   0.00000  Uiso   1.00
O1024  O     0.55988   0.22014   0.10235   0.00000  Uiso   1.00
C1025  C     0.55565   0.18498   0.11840   0.00000  Uiso   1.00
H1026  H     0.53034   0.17032   0.10946   0.00000  Uiso   1.00
H1027  H     0.55680   0.18689   0.15057   0.00000  Uiso   1.00
H1028  H     0.57923   0.16819   0.11000   0.00000  Uiso   1.00
O1029  O     0.78003   0.44021   0.89766   0.00000  Uiso   1.00
C1030  C     0.81520   0.44453   0.88164   0.00000  Uiso   1.00
H1031  H     0.82977   0.46990   0.89056   0.00000  Uiso   1.00
H1032  H     0.81332   0.44334   0.84947   0.00000  Uiso   1.00
H1033  H     0.83206   0.42101   0.89008   0.00000  Uiso   1.00
O1034  O     0.72345   0.05984   0.10262   0.00000  Uiso   1.00
C1035  C     0.75199   0.08122   0.11825   0.00000  Uiso   1.00
H1036  H     0.77598   0.08334   0.09856   0.00000  Uiso   1.00
H1037  H     0.76021   0.07077   0.14718   0.00000  Uiso   1.00
H1038  H     0.74183   0.10912   0.12312   0.00000  Uiso   1.00
O1039  O     0.55906   0.22249   0.89660   0.00000  Uiso   1.00
C1040  C     0.58069   0.25151   0.88254   0.00000  Uiso   1.00
H1041  H     0.58064   0.27593   0.90180   0.00000  Uiso   1.00
H1042  H     0.57205   0.25895   0.85266   0.00000  Uiso   1.00
H1043  H     0.60919   0.24213   0.88044   0.00000  Uiso   1.00
O1044  O     0.94803   0.28621   0.10263   0.00000  Uiso   1.00
C1045  C     0.95699   0.32337   0.09860   0.00000  Uiso   1.00
H1046  H     0.95510   0.33247   0.06778   0.00000  Uiso   1.00
H1047  H     0.98461   0.32946   0.11017   0.00000  Uiso   1.00
H1048  H     0.93724   0.33947   0.11565   0.00000  Uiso   1.00
C1049  C     0.48409   0.77700   0.41816   0.00000  Uiso   1.00
C1050  C     0.01404   0.72002   0.58235   0.00000  Uiso   1.00
C1051  C     0.21915   0.51233   0.41804   0.00000  Uiso   1.00
C1052  C     0.27885   0.98030   0.58207   0.00000  Uiso   1.00
C1053  C     0.01959   0.72108   0.41793   0.00000  Uiso   1.00
C1054  C     0.48776   0.78089   0.58196   0.00000  Uiso   1.00
C1055  C     0.27993   0.98587   0.41766   0.00000  Uiso   1.00
C1056  C     0.22306   0.51602   0.58184   0.00000  Uiso   1.00
C1057  C     0.23401   0.52696   0.91816   0.00000  Uiso   1.00
C1058  C     0.26408   0.97005   0.08235   0.00000  Uiso   1.00
C1059  C     0.46911   0.76225   0.91804   0.00000  Uiso   1.00
C1060  C     0.02893   0.73042   0.08207   0.00000  Uiso   1.00
C1061  C     0.26966   0.97113   0.91793   0.00000  Uiso   1.00
C1062  C     0.23770   0.53087   0.08196   0.00000  Uiso   1.00
C1063  C     0.02996   0.73593   0.91766   0.00000  Uiso   1.00
C1064  C     0.47299   0.76590   0.08185   0.00000  Uiso   1.00
C1065  C     0.00088   0.74867   0.39808   0.00000  Uiso   1.00
C1066  C     0.00014   0.75020   0.60206   0.00000  Uiso   1.00
C1067  C     0.24980   0.99986   0.39794   0.00000  Uiso   1.00
C1068  C     0.25133   0.99912   0.60192   0.00000  Uiso   1.00
C1069  C     0.25088   0.99867   0.89808   0.00000  Uiso   1.00
C1070  C     0.25014   0.50020   0.10206   0.00000  Uiso   1.00
C1071  C     0.49979   0.74985   0.89794   0.00000  Uiso   1.00
C1072  C     0.00133   0.74912   0.10193   0.00000  Uiso   1.00
C1073  C     0.03695   0.69329   0.48045   0.00000  Uiso   1.00
C1074  C     0.47606   0.81190   0.51962   0.00000  Uiso   1.00
C1075  C     0.30885   0.96793   0.47912   0.00000  Uiso   1.00
C1076  C     0.18807   0.52210   0.52121   0.00000  Uiso   1.00
C1077  C     0.47819   0.81203   0.47877   0.00000  Uiso   1.00
C1078  C     0.03179   0.69100   0.52087   0.00000  Uiso   1.00
C1079  C     0.18821   0.52423   0.48037   0.00000  Uiso   1.00
C1080  C     0.30653   0.96278   0.51954   0.00000  Uiso   1.00
C1081  C     0.28714   0.94342   0.98046   0.00000  Uiso   1.00
C1082  C     0.22585   0.56182   0.01963   0.00000  Uiso   1.00
C1083  C     0.05897   0.71814   0.97913   0.00000  Uiso   1.00
C1084  C     0.43797   0.77183   0.02122   0.00000  Uiso   1.00
C1085  C     0.22798   0.56196   0.97878   0.00000  Uiso   1.00
C1086  C     0.28199   0.94111   0.02088   0.00000  Uiso   1.00
C1087  C     0.43811   0.77396   0.98038   0.00000  Uiso   1.00
C1088  C     0.05668   0.71300   0.01955   0.00000  Uiso   1.00
C1089  C     0.24990   0.50002   0.35569   0.00000  Uiso   1.00
C1090  C     0.25104   0.99990   0.64426   0.00000  Uiso   1.00
C1091  C     0.00010   0.74896   0.35574   0.00000  Uiso   1.00
C1092  C     0.49998   0.75010   0.64431   0.00000  Uiso   1.00
C1093  C     0.49990   0.75002   0.85569   0.00000  Uiso   1.00
C1094  C     0.00104   0.74990   0.14426   0.00000  Uiso   1.00
C1095  C     0.25010   0.99896   0.85574   0.00000  Uiso   1.00
C1096  C     0.24998   0.50010   0.14431   0.00000  Uiso   1.00
C1097  C     0.17990   0.57010   0.25000   0.00000  Uiso   1.00
C1098  C     0.32007   0.92993   0.75000   0.00000  Uiso   1.00
C1099  C     0.43017   0.68017   0.24998   0.00000  Uiso   1.00
C1100  C     0.07023   0.82022   0.75002   0.00000  Uiso   1.00
C1101  C     0.32009   0.92991   0.25000   0.00000  Uiso   1.00
C1102  C     0.17993   0.57007   0.75000   0.00000  Uiso   1.00
C1103  C     0.06983   0.81983   0.25002   0.00000  Uiso   1.00
C1104  C     0.42978   0.67977   0.74998   0.00000  Uiso   1.00
C1105  C     0.18017   0.93017   0.74998   0.00000  Uiso   1.00
C1106  C     0.32023   0.57022   0.25002   0.00000  Uiso   1.00
C1107  C     0.42990   0.82010   0.75000   0.00000  Uiso   1.00
C1108  C     0.07007   0.67993   0.25000   0.00000  Uiso   1.00
C1109  C     0.31983   0.56983   0.75002   0.00000  Uiso   1.00
C1110  C     0.17978   0.92977   0.24999   0.00000  Uiso   1.00
C1111  C     0.07009   0.67991   0.75000   0.00000  Uiso   1.00
C1112  C     0.42993   0.82007   0.25000   0.00000  Uiso   1.00
C1113  C     0.13301   0.89164   0.21460   0.00000  Uiso   1.00
C1114  C     0.35986   0.61207   0.78553   0.00000  Uiso   1.00
C1115  C     0.09349   0.61949   0.22802   0.00000  Uiso   1.00
C1116  C     0.40170   0.87592   0.77874   0.00000  Uiso   1.00
C1117  C     0.36704   0.60819   0.21469   0.00000  Uiso   1.00
C1118  C     0.14029   0.88793   0.78557   0.00000  Uiso   1.00
C1119  C     0.40640   0.88042   0.22789   0.00000  Uiso   1.00
C1120  C     0.09840   0.62422   0.77882   0.00000  Uiso   1.00
C1121  C     0.11957   0.59358   0.77208   0.00000  Uiso   1.00
C1122  C     0.37576   0.90158   0.22117   0.00000  Uiso   1.00
C1123  C     0.10838   0.86697   0.78542   0.00000  Uiso   1.00
C1124  C     0.38792   0.64014   0.21448   0.00000  Uiso   1.00
C1125  C     0.38052   0.90653   0.77195   0.00000  Uiso   1.00
C1126  C     0.12411   0.59832   0.22123   0.00000  Uiso   1.00
C1127  C     0.39181   0.63296   0.78532   0.00000  Uiso   1.00
C1128  C     0.11206   0.85972   0.21444   0.00000  Uiso   1.00
C1129  C     0.38302   0.64163   0.71459   0.00000  Uiso   1.00
C1130  C     0.10985   0.86208   0.28553   0.00000  Uiso   1.00
C1131  C     0.34347   0.86948   0.72806   0.00000  Uiso   1.00
C1132  C     0.15170   0.62592   0.27874   0.00000  Uiso   1.00
C1133  C     0.11704   0.85819   0.71469   0.00000  Uiso   1.00
C1134  C     0.39031   0.63792   0.28557   0.00000  Uiso   1.00
C1135  C     0.15642   0.63043   0.72792   0.00000  Uiso   1.00
C1136  C     0.34841   0.87422   0.27882   0.00000  Uiso   1.00
C1137  C     0.36957   0.84358   0.27209   0.00000  Uiso   1.00
C1138  C     0.12579   0.65160   0.72119   0.00000  Uiso   1.00
C1139  C     0.35840   0.61695   0.28543   0.00000  Uiso   1.00
C1140  C     0.13793   0.89014   0.71448   0.00000  Uiso   1.00
C1141  C     0.13052   0.65653   0.27195   0.00000  Uiso   1.00
C1142  C     0.37408   0.84830   0.72126   0.00000  Uiso   1.00
C1143  C     0.14179   0.88297   0.28533   0.00000  Uiso   1.00
C1144  C     0.36206   0.60971   0.71443   0.00000  Uiso   1.00
C1145  C     0.02062   0.72163   0.45910   0.00000  Uiso   1.00
C1146  C     0.48881   0.78148   0.54083   0.00000  Uiso   1.00
C1147  C     0.27929   0.98308   0.45857   0.00000  Uiso   1.00
C1148  C     0.21963   0.51095   0.54132   0.00000  Uiso   1.00
C1149  C     0.48918   0.78042   0.45867   0.00000  Uiso   1.00
C1150  C     0.01680   0.72064   0.54143   0.00000  Uiso   1.00
C1151  C     0.21857   0.51131   0.45916   0.00000  Uiso   1.00
C1152  C     0.27827   0.97926   0.54089   0.00000  Uiso   1.00
C1153  C     0.27071   0.97170   0.95911   0.00000  Uiso   1.00
C1154  C     0.23872   0.53144   0.04084   0.00000  Uiso   1.00
C1155  C     0.02935   0.73316   0.95857   0.00000  Uiso   1.00
C1156  C     0.46958   0.76082   0.04133   0.00000  Uiso   1.00
C1157  C     0.23909   0.53038   0.95868   0.00000  Uiso   1.00
C1158  C     0.26688   0.97068   0.04144   0.00000  Uiso   1.00
C1159  C     0.46852   0.76119   0.95917   0.00000  Uiso   1.00
C1160  C     0.02835   0.72937   0.04090   0.00000  Uiso   1.00
C1161  C     0.09765   0.84761   0.25000   0.00000  Uiso   1.00
C1162  C     0.40134   0.65127   0.74996   0.00000  Uiso   1.00
C1163  C     0.15177   0.59825   0.24999   0.00000  Uiso   1.00
C1164  C     0.34815   0.90185   0.75000   0.00000  Uiso   1.00
C1165  C     0.40240   0.65235   0.25001   0.00000  Uiso   1.00
C1166  C     0.09873   0.84866   0.75005   0.00000  Uiso   1.00
C1167  C     0.34823   0.90176   0.25000   0.00000  Uiso   1.00
C1168  C     0.15185   0.59815   0.75000   0.00000  Uiso   1.00
C1169  C     0.09823   0.65177   0.75000   0.00000  Uiso   1.00
C1170  C     0.40184   0.84815   0.24999   0.00000  Uiso   1.00
C1171  C     0.15240   0.90235   0.75001   0.00000  Uiso   1.00
C1172  C     0.34874   0.59865   0.25005   0.00000  Uiso   1.00
C1173  C     0.40176   0.84824   0.75000   0.00000  Uiso   1.00
C1174  C     0.09815   0.65186   0.24999   0.00000  Uiso   1.00
C1175  C     0.34765   0.59760   0.75000   0.00000  Uiso   1.00
C1176  C     0.15133   0.90129   0.24997   0.00000  Uiso   1.00
C1177  C     0.00480   0.75123   0.47948   0.00000  Uiso   1.00
C1178  C     0.00397   0.75136   0.52062   0.00000  Uiso   1.00
C1179  C     0.24861   0.99603   0.47937   0.00000  Uiso   1.00
C1180  C     0.24874   0.99521   0.52052   0.00000  Uiso   1.00
C1181  C     0.25479   0.50125   0.97948   0.00000  Uiso   1.00
C1182  C     0.25396   0.50138   0.02063   0.00000  Uiso   1.00
C1183  C     0.49863   0.74602   0.97938   0.00000  Uiso   1.00
C1184  C     0.49876   0.74519   0.02053   0.00000  Uiso   1.00
O1185  O     0.25000   0.50000   0.25000   0.00000  Uiso   1.00
O1186  O     0.25000   0.50000   0.75000   0.00000  Uiso   1.00
O1187  O    -0.00000   0.75000   0.25000   0.00000  Uiso   1.00
O1188  O     0.00000   0.75000   0.75000   0.00000  Uiso   1.00
O1189  O     0.25000   0.96963   0.33755   0.00000  Uiso   1.00
O1190  O     0.25000   0.53036   0.66245   0.00000  Uiso   1.00
O1191  O     0.03036   0.75000   0.33755   0.00000  Uiso   1.00
O1192  O     0.46963   0.75000   0.66245   0.00000  Uiso   1.00
O1193  O     0.25000   0.53036   0.33755   0.00000  Uiso   1.00
O1194  O     0.25000   0.96963   0.66245   0.00000  Uiso   1.00
O1195  O     0.46963   0.75000   0.33755   0.00000  Uiso   1.00
O1196  O     0.03036   0.75000   0.66245   0.00000  Uiso   1.00
O1197  O     0.00000   0.71963   0.83755   0.00000  Uiso   1.00
O1198  O     0.00000   0.78036   0.16245   0.00000  Uiso   1.00
O1199  O     0.28036   0.50000   0.83755   0.00000  Uiso   1.00
O1200  O     0.21963   0.50000   0.16245   0.00000  Uiso   1.00
O1201  O     0.00000   0.78036   0.83755   0.00000  Uiso   1.00
O1202  O     0.00000   0.71963   0.16245   0.00000  Uiso   1.00
O1203  O     0.21963   0.50000   0.83755   0.00000  Uiso   1.00
O1204  O     0.28036   0.50000   0.16245   0.00000  Uiso   1.00
O1205  O     0.20724   0.57307   0.27302   0.00000  Uiso   1.00
O1206  O     0.29275   0.92692   0.72698   0.00000  Uiso   1.00
O1207  O     0.42692   0.70724   0.27302   0.00000  Uiso   1.00
O1208  O     0.07307   0.79275   0.72698   0.00000  Uiso   1.00
O1209  O     0.29275   0.92692   0.27302   0.00000  Uiso   1.00
O1210  O     0.20724   0.57307   0.72698   0.00000  Uiso   1.00
O1211  O     0.07307   0.79275   0.27302   0.00000  Uiso   1.00
O1212  O     0.42692   0.70724   0.72698   0.00000  Uiso   1.00
O1213  O     0.20724   0.92692   0.72698   0.00000  Uiso   1.00
O1214  O     0.29275   0.57307   0.27302   0.00000  Uiso   1.00
O1215  O     0.42692   0.79275   0.72698   0.00000  Uiso   1.00
O1216  O     0.07307   0.70724   0.27302   0.00000  Uiso   1.00
O1217  O     0.29275   0.57307   0.72698   0.00000  Uiso   1.00
O1218  O     0.20724   0.92692   0.27302   0.00000  Uiso   1.00
O1219  O     0.07307   0.70724   0.72698   0.00000  Uiso   1.00
O1220  O     0.42692   0.79275   0.27302   0.00000  Uiso   1.00
O1221  O     0.45724   0.82307   0.77302   0.00000  Uiso   1.00
O1222  O     0.04275   0.67692   0.22698   0.00000  Uiso   1.00
O1223  O     0.17692   0.95724   0.77302   0.00000  Uiso   1.00
O1224  O     0.32307   0.54275   0.22698   0.00000  Uiso   1.00
O1225  O     0.04275   0.67692   0.77302   0.00000  Uiso   1.00
O1226  O     0.45724   0.82307   0.22698   0.00000  Uiso   1.00
O1227  O     0.32307   0.54275   0.77302   0.00000  Uiso   1.00
O1228  O     0.17692   0.95724   0.22698   0.00000  Uiso   1.00
O1229  O     0.45724   0.67692   0.22698   0.00000  Uiso   1.00
O1230  O     0.04275   0.82307   0.77302   0.00000  Uiso   1.00
O1231  O     0.17692   0.54275   0.22698   0.00000  Uiso   1.00
O1232  O     0.32307   0.95724   0.77302   0.00000  Uiso   1.00
O1233  O     0.04275   0.82307   0.22698   0.00000  Uiso   1.00
O1234  O     0.45724   0.67692   0.77302   0.00000  Uiso   1.00
O1235  O     0.32307   0.95724   0.22698   0.00000  Uiso   1.00
O1236  O     0.17692   0.54275   0.77302   0.00000  Uiso   1.00
Zn1237 Zn    0.20659   0.50000   0.21735   0.00000  Uiso   1.00
Zn1238 Zn    0.29340   0.50000   0.78265   0.00000  Uiso   1.00
Zn1239 Zn    0.00000   0.70659   0.21735   0.00000  Uiso   1.00
Zn1240 Zn    0.00000   0.79340   0.78265   0.00000  Uiso   1.00
Zn1241 Zn    0.29340   0.50000   0.21735   0.00000  Uiso   1.00
Zn1242 Zn    0.20659   0.50000   0.78265   0.00000  Uiso   1.00
Zn1243 Zn    0.00000   0.79340   0.21735   0.00000  Uiso   1.00
Zn1244 Zn   -0.00000   0.70659   0.78265   0.00000  Uiso   1.00
Zn1245 Zn    0.45659   0.75000   0.71735   0.00000  Uiso   1.00
Zn1246 Zn    0.04340   0.75000   0.28265   0.00000  Uiso   1.00
Zn1247 Zn    0.25000   0.95659   0.71735   0.00000  Uiso   1.00
Zn1248 Zn    0.25000   0.54340   0.28265   0.00000  Uiso   1.00
Zn1249 Zn    0.04340   0.75000   0.71735   0.00000  Uiso   1.00
Zn1250 Zn    0.45659   0.75000   0.28265   0.00000  Uiso   1.00
Zn1251 Zn    0.25000   0.54340   0.71735   0.00000  Uiso   1.00
Zn1252 Zn    0.25000   0.95659   0.28265   0.00000  Uiso   1.00
O1253  O     0.05660   0.66644   0.46186   0.00000  Uiso   1.00
C1254  C     0.09394   0.67198   0.46960   0.00000  Uiso   1.00
H1255  H     0.10303   0.69961   0.46052   0.00000  Uiso   1.00
H1256  H     0.10973   0.65196   0.45251   0.00000  Uiso   1.00
H1257  H     0.10058   0.66744   0.50078   0.00000  Uiso   1.00
O1258  O     0.45675   0.83907   0.53839   0.00000  Uiso   1.00
C1259  C     0.47648   0.87210   0.53844   0.00000  Uiso   1.00
H1260  H     0.00649   0.86838   0.53947   0.00000  Uiso   1.00
H1261  H     0.46873   0.88777   0.56472   0.00000  Uiso   1.00
H1262  H     0.46865   0.88896   0.51309   0.00000  Uiso   1.00
O1263  O     0.33935   0.95576   0.45951   0.00000  Uiso   1.00
C1264  C     0.36890   0.97928   0.46754   0.00000  Uiso   1.00
H1265  H     0.36157   0.50840   0.46398   0.00000  Uiso   1.00
H1266  H     0.39098   0.97337   0.44655   0.00000  Uiso   1.00
H1267  H     0.37993   0.97457   0.49720   0.00000  Uiso   1.00
O1268  O     0.15732   0.53307   0.54113   0.00000  Uiso   1.00
C1269  C     0.13860   0.50190   0.55479   0.00000  Uiso   1.00
H1270  H     0.15391   0.98779   0.57814   0.00000  Uiso   1.00
H1271  H     0.13252   0.98232   0.53092   0.00000  Uiso   1.00
H1272  H     0.11231   0.51058   0.56737   0.00000  Uiso   1.00
O1273  O     0.46739   0.84284   0.45885   0.00000  Uiso   1.00
C1274  C     0.49866   0.86138   0.44518   0.00000  Uiso   1.00
H1275  H     0.01265   0.84601   0.42179   0.00000  Uiso   1.00
H1276  H     0.01831   0.86730   0.46903   0.00000  Uiso   1.00
H1277  H     0.49014   0.88774   0.43265   0.00000  Uiso   1.00
O1278  O     0.04375   0.66041   0.54047   0.00000  Uiso   1.00
C1279  C     0.02002   0.63102   0.53245   0.00000  Uiso   1.00
H1280  H     0.49095   0.63855   0.53604   0.00000  Uiso   1.00
H1281  H     0.02579   0.60889   0.55342   0.00000  Uiso   1.00
H1282  H     0.02463   0.61998   0.50278   0.00000  Uiso   1.00
O1283  O     0.16118   0.54372   0.46160   0.00000  Uiso   1.00
C1284  C     0.12802   0.52421   0.46153   0.00000  Uiso   1.00
H1285  H     0.13154   0.99417   0.46051   0.00000  Uiso   1.00
H1286  H     0.11242   0.53206   0.43525   0.00000  Uiso   1.00
H1287  H     0.11120   0.53216   0.48688   0.00000  Uiso   1.00
O1288  O     0.33325   0.94296   0.53813   0.00000  Uiso   1.00
C1289  C     0.32742   0.90565   0.53042   0.00000  Uiso   1.00
H1290  H     0.29974   0.89677   0.53956   0.00000  Uiso   1.00
H1291  H     0.34736   0.88972   0.54748   0.00000  Uiso   1.00
H1292  H     0.33186   0.89896   0.49923   0.00000  Uiso   1.00
O1293  O     0.30692   0.91667   0.96187   0.00000  Uiso   1.00
C1294  C     0.34424   0.92243   0.96959   0.00000  Uiso   1.00
H1295  H     0.35317   0.95010   0.96046   0.00000  Uiso   1.00
H1296  H     0.36013   0.90248   0.95252   0.00000  Uiso   1.00
H1297  H     0.35091   0.91797   0.00077   0.00000  Uiso   1.00
O1298  O     0.20640   0.58888   0.03840   0.00000  Uiso   1.00
C1299  C     0.22597   0.62202   0.03846   0.00000  Uiso   1.00
H1300  H     0.25600   0.61844   0.03949   0.00000  Uiso   1.00
H1301  H     0.21814   0.63762   0.06475   0.00000  Uiso   1.00
H1302  H     0.21805   0.63884   0.01312   0.00000  Uiso   1.00
O1303  O     0.08952   0.70611   0.95952   0.00000  Uiso   1.00
C1304  C     0.11897   0.72977   0.96753   0.00000  Uiso   1.00
H1305  H     0.11150   0.75885   0.96396   0.00000  Uiso   1.00
H1306  H     0.14107   0.72396   0.94654   0.00000  Uiso   1.00
H1307  H     0.13002   0.72512   0.99719   0.00000  Uiso   1.00
O1308  O     0.40717   0.78263   0.04114   0.00000  Uiso   1.00
C1309  C     0.38861   0.75137   0.05480   0.00000  Uiso   1.00
H1310  H     0.40398   0.73735   0.07817   0.00000  Uiso   1.00
H1311  H     0.38266   0.73174   0.03094   0.00000  Uiso   1.00
H1312  H     0.36226   0.75991   0.06736   0.00000  Uiso   1.00
O1313  O     0.21705   0.59272   0.95887   0.00000  Uiso   1.00
C1314  C     0.24825   0.61140   0.94521   0.00000  Uiso   1.00
H1315  H     0.26233   0.59607   0.92185   0.00000  Uiso   1.00
H1316  H     0.26784   0.61744   0.96908   0.00000  Uiso   1.00
H1317  H     0.23960   0.63770   0.93263   0.00000  Uiso   1.00
O1318  O     0.29411   0.91059   0.04049   0.00000  Uiso   1.00
C1319  C     0.27055   0.88107   0.03246   0.00000  Uiso   1.00
H1320  H     0.24143   0.88844   0.03600   0.00000  Uiso   1.00
H1321  H     0.27641   0.85898   0.05345   0.00000  Uiso   1.00
H1322  H     0.27525   0.87003   0.00280   0.00000  Uiso   1.00
O1323  O     0.41096   0.79330   0.96161   0.00000  Uiso   1.00
C1324  C     0.37791   0.77360   0.96155   0.00000  Uiso   1.00
H1325  H     0.38161   0.74359   0.96052   0.00000  Uiso   1.00
H1326  H     0.36226   0.78137   0.93527   0.00000  Uiso   1.00
H1327  H     0.36105   0.78145   0.98690   0.00000  Uiso   1.00
O1328  O     0.08350   0.69332   0.03814   0.00000  Uiso   1.00
C1329  C     0.07785   0.65598   0.03046   0.00000  Uiso   1.00
H1330  H     0.05021   0.64697   0.03959   0.00000  Uiso   1.00
H1331  H     0.09785   0.64016   0.04754   0.00000  Uiso   1.00
H1332  H     0.08233   0.64930   0.99928   0.00000  Uiso   1.00
S1333  S     0.13243   0.92038   0.17247   0.00000  Uiso   1.00
O1334  O     0.17000   0.92302   0.15574   0.00000  Uiso   1.00
O1335  O     0.10699   0.90712   0.14127   0.00000  Uiso   1.00
O1336  O     0.11846   0.96206   0.18541   0.00000  Uiso   1.00
H1337  H     0.09493   0.95804   0.19876   0.00000  Uiso   1.00
S1338  S     0.33271   0.60767   0.82845   0.00000  Uiso   1.00
O1339  O     0.34116   0.57242   0.84847   0.00000  Uiso   1.00
O1340  O     0.33991   0.63861   0.85608   0.00000  Uiso   1.00
O1341  O     0.28834   0.60770   0.81677   0.00000  Uiso   1.00
H1342  H     0.28401   0.63208   0.80561   0.00000  Uiso   1.00
S1343  S     0.05010   0.60137   0.21467   0.00000  Uiso   1.00
O1344  O     0.03750   0.61820   0.17720   0.00000  Uiso   1.00
O1345  O     0.05211   0.56092   0.20928   0.00000  Uiso   1.00
O1346  O     0.01949   0.61009   0.24972   0.00000  Uiso   1.00
H1347  H     0.03031   0.60017   0.27387   0.00000  Uiso   1.00
S1348  S     0.42127   0.87038   0.82584   0.00000  Uiso   1.00
O1349  O     0.46083   0.88049   0.82479   0.00000  Uiso   1.00
O1350  O     0.40248   0.89399   0.85524   0.00000  Uiso   1.00
O1351  O     0.41703   0.82690   0.83998   0.00000  Uiso   1.00
H1352  H     0.39059   0.82182   0.83915   0.00000  Uiso   1.00
S1353  S     0.36798   0.57919   0.17273   0.00000  Uiso   1.00
O1354  O     0.33057   0.57641   0.15556   0.00000  Uiso   1.00
O1355  O     0.39367   0.59232   0.14178   0.00000  Uiso   1.00
O1356  O     0.38189   0.53759   0.18604   0.00000  Uiso   1.00
H1357  H     0.40528   0.54173   0.19967   0.00000  Uiso   1.00
S1358  S     0.16758   0.89250   0.82843   0.00000  Uiso   1.00
O1359  O     0.15891   0.92764   0.84859   0.00000  Uiso   1.00
O1360  O     0.16076   0.86145   0.85595   0.00000  Uiso   1.00
O1361  O     0.21192   0.89285   0.81667   0.00000  Uiso   1.00
H1362  H     0.21645   0.86844   0.80563   0.00000  Uiso   1.00
S1363  S     0.44971   0.89833   0.21404   0.00000  Uiso   1.00
O1364  O     0.46210   0.88083   0.17684   0.00000  Uiso   1.00
O1365  O     0.44770   0.93869   0.20794   0.00000  Uiso   1.00
O1366  O     0.48051   0.89018   0.24912   0.00000  Uiso   1.00
H1367  H     0.46985   0.90057   0.27313   0.00000  Uiso   1.00
S1368  S     0.07916   0.63011   0.82599   0.00000  Uiso   1.00
O1369  O     0.03956   0.62015   0.82524   0.00000  Uiso   1.00
O1370  O     0.09807   0.60666   0.85542   0.00000  Uiso   1.00
O1371  O     0.08369   0.67368   0.83976   0.00000  Uiso   1.00
H1372  H     0.11015   0.67864   0.83879   0.00000  Uiso   1.00
S1373  S     0.10165   0.55026   0.78588   0.00000  Uiso   1.00
O1374  O     0.11912   0.53785   0.82309   0.00000  Uiso   1.00
O1375  O     0.06129   0.55226   0.79194   0.00000  Uiso   1.00
O1376  O     0.10983   0.51949   0.75079   0.00000  Uiso   1.00
H1377  H     0.09945   0.53016   0.72678   0.00000  Uiso   1.00
S1378  S     0.36984   0.92080   0.17399   0.00000  Uiso   1.00
O1379  O     0.37980   0.96041   0.17471   0.00000  Uiso   1.00
O1380  O     0.39327   0.90188   0.14455   0.00000  Uiso   1.00
O1381  O     0.32626   0.91627   0.16025   0.00000  Uiso   1.00
H1382  H     0.32130   0.88981   0.16123   0.00000  Uiso   1.00
S1383  S     0.07966   0.86751   0.82757   0.00000  Uiso   1.00
O1384  O     0.07700   0.82991   0.84424   0.00000  Uiso   1.00
O1385  O     0.09294   0.89290   0.85880   0.00000  Uiso   1.00
O1386  O     0.03798   0.88152   0.81466   0.00000  Uiso   1.00
H1387  H     0.04200   0.90514   0.80151   0.00000  Uiso   1.00
S1388  S     0.39230   0.66730   0.17157   0.00000  Uiso   1.00
O1389  O     0.42755   0.65888   0.15154   0.00000  Uiso   1.00
O1390  O     0.36136   0.66010   0.14394   0.00000  Uiso   1.00
O1391  O     0.39225   0.71167   0.18326   0.00000  Uiso   1.00
H1392  H     0.36787   0.71599   0.19443   0.00000  Uiso   1.00
S1393  S     0.39866   0.94993   0.78523   0.00000  Uiso   1.00
O1394  O     0.38188   0.96256   0.82271   0.00000  Uiso   1.00
O1395  O     0.43912   0.94793   0.79055   0.00000  Uiso   1.00
O1396  O     0.38988   0.98052   0.75016   0.00000  Uiso   1.00
H1397  H     0.39978   0.96968   0.72601   0.00000  Uiso   1.00
S1398  S     0.12969   0.57878   0.17412   0.00000  Uiso   1.00
O1399  O     0.11958   0.53922   0.17513   0.00000  Uiso   1.00
O1400  O     0.10611   0.59759   0.14472   0.00000  Uiso   1.00
O1401  O     0.17318   0.58304   0.16004   0.00000  Uiso   1.00
H1402  H     0.17826   0.60948   0.16090   0.00000  Uiso   1.00
S1403  S     0.42082   0.63202   0.82727   0.00000  Uiso   1.00
O1404  O     0.42362   0.66944   0.84443   0.00000  Uiso   1.00
O1405  O     0.40769   0.60634   0.85824   0.00000  Uiso   1.00
O1406  O     0.46240   0.61809   0.81395   0.00000  Uiso   1.00
H1407  H     0.45829   0.59453   0.80066   0.00000  Uiso   1.00
S1408  S     0.10750   0.83245   0.17157   0.00000  Uiso   1.00
O1409  O     0.07234   0.84110   0.15143   0.00000  Uiso   1.00
O1410  O     0.13853   0.83931   0.14404   0.00000  Uiso   1.00
O1411  O     0.10719   0.78811   0.18332   0.00000  Uiso   1.00
H1412  H     0.13161   0.78359   0.19435   0.00000  Uiso   1.00
S1413  S     0.38247   0.67036   0.67245   0.00000  Uiso   1.00
O1414  O     0.42005   0.67302   0.65576   0.00000  Uiso   1.00
O1415  O     0.35706   0.65709   0.64122   0.00000  Uiso   1.00
O1416  O     0.36846   0.71203   0.68538   0.00000  Uiso   1.00
H1417  H     0.34481   0.70801   0.69848   0.00000  Uiso   1.00
S1418  S     0.08268   0.85768   0.32844   0.00000  Uiso   1.00
O1419  O     0.09114   0.82245   0.34848   0.00000  Uiso   1.00
O1420  O     0.08984   0.88864   0.35606   0.00000  Uiso   1.00
O1421  O     0.03831   0.85768   0.31674   0.00000  Uiso   1.00
H1422  H     0.03397   0.88206   0.30557   0.00000  Uiso   1.00
S1423  S     0.30007   0.85134   0.71479   0.00000  Uiso   1.00
O1424  O     0.28743   0.86811   0.67731   0.00000  Uiso   1.00
O1425  O     0.30207   0.81088   0.70947   0.00000  Uiso   1.00
O1426  O     0.26949   0.86012   0.74986   0.00000  Uiso   1.00
H1427  H     0.28033   0.85023   0.77401   0.00000  Uiso   1.00
S1428  S     0.17126   0.62037   0.32585   0.00000  Uiso   1.00
O1429  O     0.21083   0.63047   0.32480   0.00000  Uiso   1.00
O1430  O     0.15247   0.64397   0.35524   0.00000  Uiso   1.00
O1431  O     0.16700   0.57688   0.33997   0.00000  Uiso   1.00
H1432  H     0.14056   0.57181   0.33913   0.00000  Uiso   1.00
S1433  S     0.11798   0.82918   0.67273   0.00000  Uiso   1.00
O1434  O     0.08057   0.82639   0.65557   0.00000  Uiso   1.00
O1435  O     0.14367   0.84231   0.64177   0.00000  Uiso   1.00
O1436  O     0.13190   0.78760   0.68605   0.00000  Uiso   1.00
H1437  H     0.15533   0.79173   0.69960   0.00000  Uiso   1.00
S1438  S     0.41763   0.64247   0.32842   0.00000  Uiso   1.00
O1439  O     0.40894   0.67759   0.34861   0.00000  Uiso   1.00
O1440  O     0.41083   0.61140   0.35592   0.00000  Uiso   1.00
O1441  O     0.46195   0.64285   0.31663   0.00000  Uiso   1.00
H1442  H     0.46650   0.61845   0.30558   0.00000  Uiso   1.00
S1443  S     0.19974   0.64836   0.71414   0.00000  Uiso   1.00
O1444  O     0.21216   0.63090   0.67693   0.00000  Uiso   1.00
O1445  O     0.19774   0.68872   0.70809   0.00000  Uiso   1.00
O1446  O     0.23051   0.64017   0.74924   0.00000  Uiso   1.00
H1447  H     0.21983   0.65054   0.77325   0.00000  Uiso   1.00
S1448  S     0.32918   0.88013   0.32599   0.00000  Uiso   1.00
O1449  O     0.28957   0.87018   0.32527   0.00000  Uiso   1.00
O1450  O     0.34809   0.85669   0.35543   0.00000  Uiso   1.00
O1451  O     0.33373   0.92371   0.33975   0.00000  Uiso   1.00
H1452  H     0.36019   0.92866   0.33876   0.00000  Uiso   1.00
S1453  S     0.35166   0.80027   0.28593   0.00000  Uiso   1.00
O1454  O     0.36916   0.78789   0.32314   0.00000  Uiso   1.00
O1455  O     0.31131   0.80227   0.29202   0.00000  Uiso   1.00
O1456  O     0.35982   0.76948   0.25085   0.00000  Uiso   1.00
H1457  H     0.34944   0.78014   0.22684   0.00000  Uiso   1.00
S1458  S     0.11990   0.67084   0.67402   0.00000  Uiso   1.00
O1459  O     0.12986   0.71045   0.67477   0.00000  Uiso   1.00
O1460  O     0.14335   0.65194   0.64459   0.00000  Uiso   1.00
O1461  O     0.07633   0.66632   0.66023   0.00000  Uiso   1.00
H1462  H     0.07137   0.63986   0.66120   0.00000  Uiso   1.00
S1463  S     0.32971   0.61743   0.32760   0.00000  Uiso   1.00
O1464  O     0.32707   0.57982   0.34423   0.00000  Uiso   1.00
O1465  O     0.34301   0.64278   0.35887   0.00000  Uiso   1.00
O1466  O     0.28803   0.63146   0.31475   0.00000  Uiso   1.00
H1467  H     0.29202   0.65517   0.30177   0.00000  Uiso   1.00
S1468  S     0.14232   0.91729   0.67156   0.00000  Uiso   1.00
O1469  O     0.17757   0.90885   0.65154   0.00000  Uiso   1.00
O1470  O     0.11138   0.91010   0.64393   0.00000  Uiso   1.00
O1471  O     0.14228   0.96167   0.68324   0.00000  Uiso   1.00
H1472  H     0.11790   0.96599   0.69442   0.00000  Uiso   1.00
S1473  S     0.14864   0.69993   0.28526   0.00000  Uiso   1.00
O1474  O     0.13185   0.71254   0.32273   0.00000  Uiso   1.00
O1475  O     0.18910   0.69793   0.29061   0.00000  Uiso   1.00
O1476  O     0.13989   0.73053   0.25020   0.00000  Uiso   1.00
H1477  H     0.14979   0.71969   0.22604   0.00000  Uiso   1.00
S1478  S     0.37961   0.82873   0.67416   0.00000  Uiso   1.00
O1479  O     0.36951   0.78917   0.67521   0.00000  Uiso   1.00
O1480  O     0.35601   0.84752   0.64477   0.00000  Uiso   1.00
O1481  O     0.42310   0.83297   0.66001   0.00000  Uiso   1.00
H1482  H     0.42818   0.85941   0.66086   0.00000  Uiso   1.00
S1483  S     0.17078   0.88208   0.32730   0.00000  Uiso   1.00
O1484  O     0.17356   0.91951   0.34442   0.00000  Uiso   1.00
O1485  O     0.15763   0.85643   0.35829   0.00000  Uiso   1.00
O1486  O     0.21237   0.86814   0.31403   0.00000  Uiso   1.00
H1487  H     0.20827   0.84455   0.30079   0.00000  Uiso   1.00
S1488  S     0.35749   0.58243   0.67157   0.00000  Uiso   1.00
O1489  O     0.32234   0.59110   0.65141   0.00000  Uiso   1.00
O1490  O     0.38853   0.58927   0.64404   0.00000  Uiso   1.00
O1491  O     0.35716   0.53810   0.68332   0.00000  Uiso   1.00
H1492  H     0.38157   0.53357   0.69436   0.00000  Uiso   1.00
O1493  O     0.46378   0.80196   0.39738   0.00000  Uiso   1.00
C1494  C     0.42662   0.79300   0.40142   0.00000  Uiso   1.00
H1495  H     0.41753   0.79490   0.43223   0.00000  Uiso   1.00
H1496  H     0.42053   0.76538   0.38985   0.00000  Uiso   1.00
H1497  H     0.41051   0.81275   0.38436   0.00000  Uiso   1.00
O1498  O     0.02748   0.69093   0.60340   0.00000  Uiso   1.00
C1499  C     0.49847   0.66931   0.61749   0.00000  Uiso   1.00
H1500  H     0.47403   0.66938   0.59825   0.00000  Uiso   1.00
H1501  H     0.49105   0.67795   0.64738   0.00000  Uiso   1.00
H1502  H     0.00783   0.64081   0.61958   0.00000  Uiso   1.00
O1503  O     0.19019   0.52661   0.39738   0.00000  Uiso   1.00
C1504  C     0.16878   0.99809   0.38176   0.00000  Uiso   1.00
H1505  H     0.16663   0.97410   0.40147   0.00000  Uiso   1.00
H1506  H     0.17922   0.98984   0.35284   0.00000  Uiso   1.00
H1507  H     0.14088   0.50827   0.37689   0.00000  Uiso   1.00
O1508  O     0.30976   0.96991   0.60234   0.00000  Uiso   1.00
C1509  C     0.30542   0.93475   0.61836   0.00000  Uiso   1.00
H1510  H     0.28003   0.92020   0.60947   0.00000  Uiso   1.00
H1511  H     0.30663   0.93663   0.65053   0.00000  Uiso   1.00
H1512  H     0.32892   0.91787   0.60991   0.00000  Uiso   1.00
O1513  O     0.02992   0.69015   0.39763   0.00000  Uiso   1.00
C1514  C     0.06511   0.69443   0.38166   0.00000  Uiso   1.00
H1515  H     0.07973   0.71975   0.39064   0.00000  Uiso   1.00
H1516  H     0.06326   0.69330   0.34948   0.00000  Uiso   1.00
H1517  H     0.08191   0.67085   0.39007   0.00000  Uiso   1.00
O1518  O     0.47350   0.80986   0.60261   0.00000  Uiso   1.00
C1519  C     0.00202   0.83120   0.61832   0.00000  Uiso   1.00
H1520  H     0.02604   0.83333   0.59867   0.00000  Uiso   1.00
H1521  H     0.01019   0.82073   0.64725   0.00000  Uiso   1.00
H1522  H     0.49187   0.85911   0.62320   0.00000  Uiso   1.00
O1523  O     0.30902   0.97241   0.39661   0.00000  Uiso   1.00
C1524  C     0.33070   0.50141   0.38260   0.00000  Uiso   1.00
H1525  H     0.33068   0.52580   0.40190   0.00000  Uiso   1.00
H1526  H     0.32208   0.50890   0.35273   0.00000  Uiso   1.00
H1527  H     0.35918   0.99199   0.38050   0.00000  Uiso   1.00
O1528  O     0.19819   0.53645   0.60261   0.00000  Uiso   1.00
C1529  C     0.20732   0.57357   0.59856   0.00000  Uiso   1.00
H1530  H     0.20551   0.58266   0.56774   0.00000  Uiso   1.00
H1531  H     0.23494   0.57955   0.61018   0.00000  Uiso   1.00
H1532  H     0.18760   0.58977   0.61557   0.00000  Uiso   1.00
O1533  O     0.21362   0.55185   0.89738   0.00000  Uiso   1.00
C1534  C     0.17649   0.54277   0.90143   0.00000  Uiso   1.00
H1535  H     0.16740   0.54460   0.93225   0.00000  Uiso   1.00
H1536  H     0.17048   0.51515   0.88982   0.00000  Uiso   1.00
H1537  H     0.16031   0.56250   0.88441   0.00000  Uiso   1.00
O1538  O     0.27751   0.94094   0.10340   0.00000  Uiso   1.00
C1539  C     0.24848   0.91930   0.11740   0.00000  Uiso   1.00
H1540  H     0.22410   0.91933   0.09808   0.00000  Uiso   1.00
H1541  H     0.24097   0.92794   0.14726   0.00000  Uiso   1.00
H1542  H     0.25786   0.89081   0.11952   0.00000  Uiso   1.00
O1543  O     0.44014   0.77651   0.89739   0.00000  Uiso   1.00
C1544  C     0.41879   0.74799   0.88169   0.00000  Uiso   1.00
H1545  H     0.41667   0.72396   0.90134   0.00000  Uiso   1.00
H1546  H     0.42925   0.73982   0.85275   0.00000  Uiso   1.00
H1547  H     0.39088   0.75814   0.87682   0.00000  Uiso   1.00
O1548  O     0.05988   0.72014   0.10235   0.00000  Uiso   1.00
C1549  C     0.05565   0.68498   0.11840   0.00000  Uiso   1.00
H1550  H     0.03034   0.67032   0.10946   0.00000  Uiso   1.00
H1551  H     0.05680   0.68689   0.15057   0.00000  Uiso   1.00
H1552  H     0.07923   0.66819   0.11000   0.00000  Uiso   1.00
O1553  O     0.28003   0.94021   0.89766   0.00000  Uiso   1.00
C1554  C     0.31520   0.94453   0.88164   0.00000  Uiso   1.00
H1555  H     0.32977   0.96990   0.89056   0.00000  Uiso   1.00
H1556  H     0.31332   0.94334   0.84947   0.00000  Uiso   1.00
H1557  H     0.33206   0.92101   0.89008   0.00000  Uiso   1.00
O1558  O     0.22345   0.55984   0.10262   0.00000  Uiso   1.00
C1559  C     0.25199   0.58122   0.11825   0.00000  Uiso   1.00
H1560  H     0.27598   0.58334   0.09856   0.00000  Uiso   1.00
H1561  H     0.26021   0.57077   0.14718   0.00000  Uiso   1.00
H1562  H     0.24183   0.60912   0.12312   0.00000  Uiso   1.00
O1563  O     0.05906   0.72249   0.89660   0.00000  Uiso   1.00
C1564  C     0.08069   0.75151   0.88254   0.00000  Uiso   1.00
H1565  H     0.08064   0.77593   0.90180   0.00000  Uiso   1.00
H1566  H     0.07205   0.75895   0.85266   0.00000  Uiso   1.00
H1567  H     0.10919   0.74213   0.88044   0.00000  Uiso   1.00
O1568  O     0.44803   0.78621   0.10263   0.00000  Uiso   1.00
C1569  C     0.45699   0.82337   0.09860   0.00000  Uiso   1.00
H1570  H     0.45510   0.83247   0.06778   0.00000  Uiso   1.00
H1571  H     0.48461   0.82946   0.11017   0.00000  Uiso   1.00
H1572  H     0.43724   0.83947   0.11565   0.00000  Uiso   1.00
C1573  C     0.98409   0.77700   0.41816   0.00000  Uiso   1.00
C1574  C     0.51404   0.72002   0.58235   0.00000  Uiso   1.00
C1575  C     0.71915   0.51233   0.41804   0.00000  Uiso   1.00
C1576  C     0.77885   0.98030   0.58207   0.00000  Uiso   1.00
C1577  C     0.51959   0.72108   0.41793   0.00000  Uiso   1.00
C1578  C     0.98776   0.78089   0.58196   0.00000  Uiso   1.00
C1579  C     0.77993   0.98587   0.41766   0.00000  Uiso   1.00
C1580  C     0.72306   0.51602   0.58184   0.00000  Uiso   1.00
C1581  C     0.73401   0.52696   0.91816   0.00000  Uiso   1.00
C1582  C     0.76408   0.97005   0.08235   0.00000  Uiso   1.00
C1583  C     0.96911   0.76225   0.91804   0.00000  Uiso   1.00
C1584  C     0.52893   0.73042   0.08207   0.00000  Uiso   1.00
C1585  C     0.76966   0.97113   0.91793   0.00000  Uiso   1.00
C1586  C     0.73770   0.53087   0.08196   0.00000  Uiso   1.00
C1587  C     0.52996   0.73593   0.91766   0.00000  Uiso   1.00
C1588  C     0.97299   0.76590   0.08185   0.00000  Uiso   1.00
C1589  C     0.50088   0.74867   0.39808   0.00000  Uiso   1.00
C1590  C     0.50014   0.75020   0.60206   0.00000  Uiso   1.00
C1591  C     0.74980   0.99986   0.39794   0.00000  Uiso   1.00
C1592  C     0.75133   0.99912   0.60192   0.00000  Uiso   1.00
C1593  C     0.75088   0.99867   0.89808   0.00000  Uiso   1.00
C1594  C     0.75014   0.50020   0.10206   0.00000  Uiso   1.00
C1595  C     0.99979   0.74985   0.89794   0.00000  Uiso   1.00
C1596  C     0.50133   0.74912   0.10193   0.00000  Uiso   1.00
C1597  C     0.53695   0.69329   0.48045   0.00000  Uiso   1.00
C1598  C     0.97606   0.81190   0.51962   0.00000  Uiso   1.00
C1599  C     0.80885   0.96793   0.47912   0.00000  Uiso   1.00
C1600  C     0.68807   0.52210   0.52121   0.00000  Uiso   1.00
C1601  C     0.97819   0.81203   0.47877   0.00000  Uiso   1.00
C1602  C     0.53179   0.69100   0.52087   0.00000  Uiso   1.00
C1603  C     0.68821   0.52423   0.48037   0.00000  Uiso   1.00
C1604  C     0.80653   0.96278   0.51954   0.00000  Uiso   1.00
C1605  C     0.78714   0.94342   0.98046   0.00000  Uiso   1.00
C1606  C     0.72585   0.56182   0.01963   0.00000  Uiso   1.00
C1607  C     0.55897   0.71814   0.97913   0.00000  Uiso   1.00
C1608  C     0.93797   0.77183   0.02122   0.00000  Uiso   1.00
C1609  C     0.72798   0.56196   0.97878   0.00000  Uiso   1.00
C1610  C     0.78199   0.94111   0.02088   0.00000  Uiso   1.00
C1611  C     0.93811   0.77396   0.98038   0.00000  Uiso   1.00
C1612  C     0.55668   0.71300   0.01955   0.00000  Uiso   1.00
C1613  C     0.74990   0.50002   0.35569   0.00000  Uiso   1.00
C1614  C     0.75104   0.99990   0.64426   0.00000  Uiso   1.00
C1615  C     0.50010   0.74896   0.35574   0.00000  Uiso   1.00
C1616  C     0.99998   0.75010   0.64431   0.00000  Uiso   1.00
C1617  C     0.99990   0.75002   0.85569   0.00000  Uiso   1.00
C1618  C     0.50104   0.74990   0.14426   0.00000  Uiso   1.00
C1619  C     0.75010   0.99896   0.85574   0.00000  Uiso   1.00
C1620  C     0.74998   0.50010   0.14431   0.00000  Uiso   1.00
C1621  C     0.67990   0.57010   0.25000   0.00000  Uiso   1.00
C1622  C     0.82007   0.92993   0.75000   0.00000  Uiso   1.00
C1623  C     0.93017   0.68017   0.24998   0.00000  Uiso   1.00
C1624  C     0.57023   0.82022   0.75002   0.00000  Uiso   1.00
C1625  C     0.82009   0.92991   0.25000   0.00000  Uiso   1.00
C1626  C     0.67993   0.57007   0.75000   0.00000  Uiso   1.00
C1627  C     0.56983   0.81983   0.25002   0.00000  Uiso   1.00
C1628  C     0.92978   0.67977   0.74998   0.00000  Uiso   1.00
C1629  C     0.68017   0.93017   0.74998   0.00000  Uiso   1.00
C1630  C     0.82023   0.57022   0.25002   0.00000  Uiso   1.00
C1631  C     0.92990   0.82010   0.75000   0.00000  Uiso   1.00
C1632  C     0.57007   0.67993   0.25000   0.00000  Uiso   1.00
C1633  C     0.81983   0.56983   0.75002   0.00000  Uiso   1.00
C1634  C     0.67978   0.92977   0.24999   0.00000  Uiso   1.00
C1635  C     0.57009   0.67991   0.75000   0.00000  Uiso   1.00
C1636  C     0.92993   0.82007   0.25000   0.00000  Uiso   1.00
C1637  C     0.63301   0.89164   0.21460   0.00000  Uiso   1.00
C1638  C     0.85986   0.61207   0.78553   0.00000  Uiso   1.00
C1639  C     0.59349   0.61949   0.22802   0.00000  Uiso   1.00
C1640  C     0.90170   0.87592   0.77874   0.00000  Uiso   1.00
C1641  C     0.86704   0.60819   0.21469   0.00000  Uiso   1.00
C1642  C     0.64029   0.88793   0.78557   0.00000  Uiso   1.00
C1643  C     0.90640   0.88042   0.22789   0.00000  Uiso   1.00
C1644  C     0.59840   0.62422   0.77882   0.00000  Uiso   1.00
C1645  C     0.61957   0.59358   0.77208   0.00000  Uiso   1.00
C1646  C     0.87576   0.90158   0.22117   0.00000  Uiso   1.00
C1647  C     0.60838   0.86697   0.78542   0.00000  Uiso   1.00
C1648  C     0.88792   0.64014   0.21448   0.00000  Uiso   1.00
C1649  C     0.88052   0.90653   0.77195   0.00000  Uiso   1.00
C1650  C     0.62411   0.59832   0.22123   0.00000  Uiso   1.00
C1651  C     0.89181   0.63296   0.78532   0.00000  Uiso   1.00
C1652  C     0.61206   0.85972   0.21444   0.00000  Uiso   1.00
C1653  C     0.88302   0.64163   0.71459   0.00000  Uiso   1.00
C1654  C     0.60985   0.86208   0.28553   0.00000  Uiso   1.00
C1655  C     0.84347   0.86948   0.72806   0.00000  Uiso   1.00
C1656  C     0.65170   0.62592   0.27874   0.00000  Uiso   1.00
C1657  C     0.61704   0.85819   0.71469   0.00000  Uiso   1.00
C1658  C     0.89031   0.63792   0.28557   0.00000  Uiso   1.00
C1659  C     0.65642   0.63043   0.72792   0.00000  Uiso   1.00
C1660  C     0.84841   0.87422   0.27882   0.00000  Uiso   1.00
C1661  C     0.86957   0.84358   0.27209   0.00000  Uiso   1.00
C1662  C     0.62579   0.65160   0.72119   0.00000  Uiso   1.00
C1663  C     0.85840   0.61695   0.28543   0.00000  Uiso   1.00
C1664  C     0.63793   0.89014   0.71448   0.00000  Uiso   1.00
C1665  C     0.63052   0.65653   0.27195   0.00000  Uiso   1.00
C1666  C     0.87408   0.84830   0.72126   0.00000  Uiso   1.00
C1667  C     0.64179   0.88297   0.28533   0.00000  Uiso   1.00
C1668  C     0.86206   0.60971   0.71443   0.00000  Uiso   1.00
C1669  C     0.52062   0.72163   0.45910   0.00000  Uiso   1.00
C1670  C     0.98881   0.78148   0.54083   0.00000  Uiso   1.00
C1671  C     0.77929   0.98308   0.45857   0.00000  Uiso   1.00
C1672  C     0.71963   0.51095   0.54132   0.00000  Uiso   1.00
C1673  C     0.98918   0.78042   0.45867   0.00000  Uiso   1.00
C1674  C     0.51680   0.72064   0.54143   0.00000  Uiso   1.00
C1675  C     0.71857   0.51131   0.45916   0.00000  Uiso   1.00
C1676  C     0.77827   0.97926   0.54089   0.00000  Uiso   1.00
C1677  C     0.77071   0.97170   0.95911   0.00000  Uiso   1.00
C1678  C     0.73872   0.53144   0.04084   0.00000  Uiso   1.00
C1679  C     0.52935   0.73316   0.95857   0.00000  Uiso   1.00
C1680  C     0.96958   0.76082   0.04133   0.00000  Uiso   1.00
C1681  C     0.73909   0.53038   0.95868   0.00000  Uiso   1.00
C1682  C     0.76688   0.97068   0.04144   0.00000  Uiso   1.00
C1683  C     0.96852   0.76119   0.95917   0.00000  Uiso   1.00
C1684  C     0.52835   0.72937   0.04090   0.00000  Uiso   1.00
C1685  C     0.59765   0.84761   0.25000   0.00000  Uiso   1.00
C1686  C     0.90134   0.65127   0.74996   0.00000  Uiso   1.00
C1687  C     0.65177   0.59825   0.24999   0.00000  Uiso   1.00
C1688  C     0.84815   0.90185   0.75000   0.00000  Uiso   1.00
C1689  C     0.90240   0.65235   0.25001   0.00000  Uiso   1.00
C1690  C     0.59873   0.84866   0.75005   0.00000  Uiso   1.00
C1691  C     0.84823   0.90176   0.25000   0.00000  Uiso   1.00
C1692  C     0.65185   0.59815   0.75000   0.00000  Uiso   1.00
C1693  C     0.59823   0.65177   0.75000   0.00000  Uiso   1.00
C1694  C     0.90184   0.84815   0.24999   0.00000  Uiso   1.00
C1695  C     0.65240   0.90235   0.75001   0.00000  Uiso   1.00
C1696  C     0.84874   0.59865   0.25005   0.00000  Uiso   1.00
C1697  C     0.90176   0.84824   0.75000   0.00000  Uiso   1.00
C1698  C     0.59815   0.65186   0.24999   0.00000  Uiso   1.00
C1699  C     0.84765   0.59760   0.75000   0.00000  Uiso   1.00
C1700  C     0.65133   0.90129   0.24997   0.00000  Uiso   1.00
C1701  C     0.50480   0.75123   0.47948   0.00000  Uiso   1.00
C1702  C     0.50397   0.75136   0.52062   0.00000  Uiso   1.00
C1703  C     0.74861   0.99603   0.47937   0.00000  Uiso   1.00
C1704  C     0.74874   0.99521   0.52052   0.00000  Uiso   1.00
C1705  C     0.75479   0.50125   0.97948   0.00000  Uiso   1.00
C1706  C     0.75396   0.50138   0.02063   0.00000  Uiso   1.00
C1707  C     0.99863   0.74602   0.97938   0.00000  Uiso   1.00
C1708  C     0.99876   0.74519   0.02053   0.00000  Uiso   1.00
O1709  O     0.75000   0.50000   0.25000   0.00000  Uiso   1.00
O1710  O     0.75000   0.50000   0.75000   0.00000  Uiso   1.00
O1711  O     0.50000   0.75000   0.25000   0.00000  Uiso   1.00
O1712  O     0.50000   0.75000   0.75000   0.00000  Uiso   1.00
O1713  O     0.75000   0.96963   0.33755   0.00000  Uiso   1.00
O1714  O     0.75000   0.53036   0.66245   0.00000  Uiso   1.00
O1715  O     0.53036   0.75000   0.33755   0.00000  Uiso   1.00
O1716  O     0.96963   0.75000   0.66245   0.00000  Uiso   1.00
O1717  O     0.75000   0.53036   0.33755   0.00000  Uiso   1.00
O1718  O     0.75000   0.96963   0.66245   0.00000  Uiso   1.00
O1719  O     0.96963   0.75000   0.33755   0.00000  Uiso   1.00
O1720  O     0.53036   0.75000   0.66245   0.00000  Uiso   1.00
O1721  O     0.50000   0.71963   0.83755   0.00000  Uiso   1.00
O1722  O     0.50000   0.78036   0.16245   0.00000  Uiso   1.00
O1723  O     0.78036   0.50000   0.83755   0.00000  Uiso   1.00
O1724  O     0.71963   0.50000   0.16245   0.00000  Uiso   1.00
O1725  O     0.50000   0.78036   0.83755   0.00000  Uiso   1.00
O1726  O     0.50000   0.71963   0.16245   0.00000  Uiso   1.00
O1727  O     0.71963   0.50000   0.83755   0.00000  Uiso   1.00
O1728  O     0.78036   0.50000   0.16245   0.00000  Uiso   1.00
O1729  O     0.70724   0.57307   0.27302   0.00000  Uiso   1.00
O1730  O     0.79275   0.92692   0.72698   0.00000  Uiso   1.00
O1731  O     0.92692   0.70724   0.27302   0.00000  Uiso   1.00
O1732  O     0.57307   0.79275   0.72698   0.00000  Uiso   1.00
O1733  O     0.79275   0.92692   0.27302   0.00000  Uiso   1.00
O1734  O     0.70724   0.57307   0.72698   0.00000  Uiso   1.00
O1735  O     0.57307   0.79275   0.27302   0.00000  Uiso   1.00
O1736  O     0.92692   0.70724   0.72698   0.00000  Uiso   1.00
O1737  O     0.70724   0.92692   0.72698   0.00000  Uiso   1.00
O1738  O     0.79275   0.57307   0.27302   0.00000  Uiso   1.00
O1739  O     0.92692   0.79275   0.72698   0.00000  Uiso   1.00
O1740  O     0.57307   0.70724   0.27302   0.00000  Uiso   1.00
O1741  O     0.79275   0.57307   0.72698   0.00000  Uiso   1.00
O1742  O     0.70724   0.92692   0.27302   0.00000  Uiso   1.00
O1743  O     0.57307   0.70724   0.72698   0.00000  Uiso   1.00
O1744  O     0.92692   0.79275   0.27302   0.00000  Uiso   1.00
O1745  O     0.95724   0.82307   0.77302   0.00000  Uiso   1.00
O1746  O     0.54275   0.67692   0.22698   0.00000  Uiso   1.00
O1747  O     0.67692   0.95724   0.77302   0.00000  Uiso   1.00
O1748  O     0.82307   0.54275   0.22698   0.00000  Uiso   1.00
O1749  O     0.54275   0.67692   0.77302   0.00000  Uiso   1.00
O1750  O     0.95724   0.82307   0.22698   0.00000  Uiso   1.00
O1751  O     0.82307   0.54275   0.77302   0.00000  Uiso   1.00
O1752  O     0.67692   0.95724   0.22698   0.00000  Uiso   1.00
O1753  O     0.95724   0.67692   0.22698   0.00000  Uiso   1.00
O1754  O     0.54275   0.82307   0.77302   0.00000  Uiso   1.00
O1755  O     0.67692   0.54275   0.22698   0.00000  Uiso   1.00
O1756  O     0.82307   0.95724   0.77302   0.00000  Uiso   1.00
O1757  O     0.54275   0.82307   0.22698   0.00000  Uiso   1.00
O1758  O     0.95724   0.67692   0.77302   0.00000  Uiso   1.00
O1759  O     0.82307   0.95724   0.22698   0.00000  Uiso   1.00
O1760  O     0.67692   0.54275   0.77302   0.00000  Uiso   1.00
Zn1761 Zn    0.70659   0.50000   0.21735   0.00000  Uiso   1.00
Zn1762 Zn    0.79340   0.50000   0.78265   0.00000  Uiso   1.00
Zn1763 Zn    0.50000   0.70659   0.21735   0.00000  Uiso   1.00
Zn1764 Zn    0.50000   0.79340   0.78265   0.00000  Uiso   1.00
Zn1765 Zn    0.79340   0.50000   0.21735   0.00000  Uiso   1.00
Zn1766 Zn    0.70659   0.50000   0.78265   0.00000  Uiso   1.00
Zn1767 Zn    0.50000   0.79340   0.21735   0.00000  Uiso   1.00
Zn1768 Zn    0.50000   0.70659   0.78265   0.00000  Uiso   1.00
Zn1769 Zn    0.95659   0.75000   0.71735   0.00000  Uiso   1.00
Zn1770 Zn    0.54340   0.75000   0.28265   0.00000  Uiso   1.00
Zn1771 Zn    0.75000   0.95659   0.71735   0.00000  Uiso   1.00
Zn1772 Zn    0.75000   0.54340   0.28265   0.00000  Uiso   1.00
Zn1773 Zn    0.54340   0.75000   0.71735   0.00000  Uiso   1.00
Zn1774 Zn    0.95659   0.75000   0.28265   0.00000  Uiso   1.00
Zn1775 Zn    0.75000   0.54340   0.71735   0.00000  Uiso   1.00
Zn1776 Zn    0.75000   0.95659   0.28265   0.00000  Uiso   1.00
O1777  O     0.55660   0.66644   0.46186   0.00000  Uiso   1.00
C1778  C     0.59394   0.67198   0.46960   0.00000  Uiso   1.00
H1779  H     0.60303   0.69961   0.46052   0.00000  Uiso   1.00
H1780  H     0.60973   0.65196   0.45251   0.00000  Uiso   1.00
H1781  H     0.60058   0.66744   0.50078   0.00000  Uiso   1.00
O1782  O     0.95675   0.83907   0.53839   0.00000  Uiso   1.00
C1783  C     0.97648   0.87210   0.53844   0.00000  Uiso   1.00
H1784  H     0.50649   0.86838   0.53947   0.00000  Uiso   1.00
H1785  H     0.96873   0.88777   0.56472   0.00000  Uiso   1.00
H1786  H     0.96865   0.88896   0.51309   0.00000  Uiso   1.00
O1787  O     0.83935   0.95576   0.45951   0.00000  Uiso   1.00
C1788  C     0.86890   0.97928   0.46754   0.00000  Uiso   1.00
H1789  H     0.86157   0.50840   0.46398   0.00000  Uiso   1.00
H1790  H     0.89098   0.97337   0.44655   0.00000  Uiso   1.00
H1791  H     0.87993   0.97457   0.49720   0.00000  Uiso   1.00
O1792  O     0.65732   0.53307   0.54113   0.00000  Uiso   1.00
C1793  C     0.63860   0.50190   0.55479   0.00000  Uiso   1.00
H1794  H     0.65391   0.98779   0.57814   0.00000  Uiso   1.00
H1795  H     0.63252   0.98232   0.53092   0.00000  Uiso   1.00
H1796  H     0.61231   0.51058   0.56737   0.00000  Uiso   1.00
O1797  O     0.96739   0.84284   0.45885   0.00000  Uiso   1.00
C1798  C     0.99866   0.86138   0.44518   0.00000  Uiso   1.00
H1799  H     0.51265   0.84601   0.42179   0.00000  Uiso   1.00
H1800  H     0.51831   0.86730   0.46903   0.00000  Uiso   1.00
H1801  H     0.99014   0.88774   0.43265   0.00000  Uiso   1.00
O1802  O     0.54375   0.66041   0.54047   0.00000  Uiso   1.00
C1803  C     0.52002   0.63102   0.53245   0.00000  Uiso   1.00
H1804  H     0.99095   0.63855   0.53604   0.00000  Uiso   1.00
H1805  H     0.52579   0.60889   0.55342   0.00000  Uiso   1.00
H1806  H     0.52463   0.61998   0.50278   0.00000  Uiso   1.00
O1807  O     0.66118   0.54372   0.46160   0.00000  Uiso   1.00
C1808  C     0.62802   0.52421   0.46153   0.00000  Uiso   1.00
H1809  H     0.63154   0.99417   0.46051   0.00000  Uiso   1.00
H1810  H     0.61242   0.53206   0.43525   0.00000  Uiso   1.00
H1811  H     0.61120   0.53216   0.48688   0.00000  Uiso   1.00
O1812  O     0.83325   0.94296   0.53813   0.00000  Uiso   1.00
C1813  C     0.82742   0.90565   0.53042   0.00000  Uiso   1.00
H1814  H     0.79974   0.89677   0.53956   0.00000  Uiso   1.00
H1815  H     0.84736   0.88972   0.54748   0.00000  Uiso   1.00
H1816  H     0.83186   0.89896   0.49923   0.00000  Uiso   1.00
O1817  O     0.80692   0.91667   0.96187   0.00000  Uiso   1.00
C1818  C     0.84424   0.92243   0.96959   0.00000  Uiso   1.00
H1819  H     0.85317   0.95010   0.96046   0.00000  Uiso   1.00
H1820  H     0.86013   0.90248   0.95252   0.00000  Uiso   1.00
H1821  H     0.85091   0.91797   0.00077   0.00000  Uiso   1.00
O1822  O     0.70640   0.58888   0.03840   0.00000  Uiso   1.00
C1823  C     0.72597   0.62202   0.03846   0.00000  Uiso   1.00
H1824  H     0.75600   0.61844   0.03949   0.00000  Uiso   1.00
H1825  H     0.71814   0.63762   0.06475   0.00000  Uiso   1.00
H1826  H     0.71805   0.63884   0.01312   0.00000  Uiso   1.00
O1827  O     0.58952   0.70611   0.95952   0.00000  Uiso   1.00
C1828  C     0.61897   0.72977   0.96753   0.00000  Uiso   1.00
H1829  H     0.61150   0.75885   0.96396   0.00000  Uiso   1.00
H1830  H     0.64107   0.72396   0.94654   0.00000  Uiso   1.00
H1831  H     0.63002   0.72512   0.99719   0.00000  Uiso   1.00
O1832  O     0.90717   0.78263   0.04114   0.00000  Uiso   1.00
C1833  C     0.88861   0.75137   0.05480   0.00000  Uiso   1.00
H1834  H     0.90398   0.73735   0.07817   0.00000  Uiso   1.00
H1835  H     0.88266   0.73174   0.03094   0.00000  Uiso   1.00
H1836  H     0.86226   0.75991   0.06736   0.00000  Uiso   1.00
O1837  O     0.71705   0.59272   0.95887   0.00000  Uiso   1.00
C1838  C     0.74825   0.61140   0.94521   0.00000  Uiso   1.00
H1839  H     0.76233   0.59607   0.92185   0.00000  Uiso   1.00
H1840  H     0.76784   0.61744   0.96908   0.00000  Uiso   1.00
H1841  H     0.73960   0.63770   0.93263   0.00000  Uiso   1.00
O1842  O     0.79411   0.91059   0.04049   0.00000  Uiso   1.00
C1843  C     0.77055   0.88107   0.03246   0.00000  Uiso   1.00
H1844  H     0.74143   0.88844   0.03600   0.00000  Uiso   1.00
H1845  H     0.77641   0.85898   0.05345   0.00000  Uiso   1.00
H1846  H     0.77525   0.87003   0.00280   0.00000  Uiso   1.00
O1847  O     0.91096   0.79330   0.96161   0.00000  Uiso   1.00
C1848  C     0.87791   0.77360   0.96155   0.00000  Uiso   1.00
H1849  H     0.88161   0.74359   0.96052   0.00000  Uiso   1.00
H1850  H     0.86226   0.78137   0.93527   0.00000  Uiso   1.00
H1851  H     0.86105   0.78145   0.98690   0.00000  Uiso   1.00
O1852  O     0.58350   0.69332   0.03814   0.00000  Uiso   1.00
C1853  C     0.57785   0.65598   0.03046   0.00000  Uiso   1.00
H1854  H     0.55021   0.64697   0.03959   0.00000  Uiso   1.00
H1855  H     0.59785   0.64016   0.04754   0.00000  Uiso   1.00
H1856  H     0.58233   0.64930   0.99928   0.00000  Uiso   1.00
S1857  S     0.63243   0.92038   0.17247   0.00000  Uiso   1.00
O1858  O     0.67000   0.92302   0.15574   0.00000  Uiso   1.00
O1859  O     0.60699   0.90712   0.14127   0.00000  Uiso   1.00
O1860  O     0.61846   0.96206   0.18541   0.00000  Uiso   1.00
H1861  H     0.59493   0.95804   0.19876   0.00000  Uiso   1.00
S1862  S     0.83271   0.60767   0.82845   0.00000  Uiso   1.00
O1863  O     0.84116   0.57242   0.84847   0.00000  Uiso   1.00
O1864  O     0.83991   0.63861   0.85608   0.00000  Uiso   1.00
O1865  O     0.78834   0.60770   0.81677   0.00000  Uiso   1.00
H1866  H     0.78401   0.63208   0.80561   0.00000  Uiso   1.00
S1867  S     0.55010   0.60137   0.21467   0.00000  Uiso   1.00
O1868  O     0.53750   0.61820   0.17720   0.00000  Uiso   1.00
O1869  O     0.55211   0.56092   0.20928   0.00000  Uiso   1.00
O1870  O     0.51949   0.61009   0.24972   0.00000  Uiso   1.00
H1871  H     0.53031   0.60017   0.27387   0.00000  Uiso   1.00
S1872  S     0.92127   0.87038   0.82584   0.00000  Uiso   1.00
O1873  O     0.96083   0.88049   0.82479   0.00000  Uiso   1.00
O1874  O     0.90248   0.89399   0.85524   0.00000  Uiso   1.00
O1875  O     0.91703   0.82690   0.83998   0.00000  Uiso   1.00
H1876  H     0.89059   0.82182   0.83915   0.00000  Uiso   1.00
S1877  S     0.86798   0.57919   0.17273   0.00000  Uiso   1.00
O1878  O     0.83057   0.57641   0.15556   0.00000  Uiso   1.00
O1879  O     0.89367   0.59232   0.14178   0.00000  Uiso   1.00
O1880  O     0.88189   0.53759   0.18604   0.00000  Uiso   1.00
H1881  H     0.90528   0.54173   0.19967   0.00000  Uiso   1.00
S1882  S     0.66758   0.89250   0.82843   0.00000  Uiso   1.00
O1883  O     0.65891   0.92764   0.84859   0.00000  Uiso   1.00
O1884  O     0.66076   0.86145   0.85595   0.00000  Uiso   1.00
O1885  O     0.71192   0.89285   0.81667   0.00000  Uiso   1.00
H1886  H     0.71645   0.86844   0.80563   0.00000  Uiso   1.00
S1887  S     0.94971   0.89833   0.21404   0.00000  Uiso   1.00
O1888  O     0.96210   0.88083   0.17684   0.00000  Uiso   1.00
O1889  O     0.94770   0.93869   0.20794   0.00000  Uiso   1.00
O1890  O     0.98051   0.89018   0.24912   0.00000  Uiso   1.00
H1891  H     0.96985   0.90057   0.27313   0.00000  Uiso   1.00
S1892  S     0.57916   0.63011   0.82599   0.00000  Uiso   1.00
O1893  O     0.53956   0.62015   0.82524   0.00000  Uiso   1.00
O1894  O     0.59807   0.60666   0.85542   0.00000  Uiso   1.00
O1895  O     0.58369   0.67368   0.83976   0.00000  Uiso   1.00
H1896  H     0.61015   0.67864   0.83879   0.00000  Uiso   1.00
S1897  S     0.60165   0.55026   0.78588   0.00000  Uiso   1.00
O1898  O     0.61912   0.53785   0.82309   0.00000  Uiso   1.00
O1899  O     0.56129   0.55226   0.79194   0.00000  Uiso   1.00
O1900  O     0.60983   0.51949   0.75079   0.00000  Uiso   1.00
H1901  H     0.59945   0.53016   0.72678   0.00000  Uiso   1.00
S1902  S     0.86984   0.92080   0.17399   0.00000  Uiso   1.00
O1903  O     0.87980   0.96041   0.17471   0.00000  Uiso   1.00
O1904  O     0.89327   0.90188   0.14455   0.00000  Uiso   1.00
O1905  O     0.82626   0.91627   0.16025   0.00000  Uiso   1.00
H1906  H     0.82130   0.88981   0.16123   0.00000  Uiso   1.00
S1907  S     0.57966   0.86751   0.82757   0.00000  Uiso   1.00
O1908  O     0.57700   0.82991   0.84424   0.00000  Uiso   1.00
O1909  O     0.59294   0.89290   0.85880   0.00000  Uiso   1.00
O1910  O     0.53798   0.88152   0.81466   0.00000  Uiso   1.00
H1911  H     0.54200   0.90514   0.80151   0.00000  Uiso   1.00
S1912  S     0.89230   0.66730   0.17157   0.00000  Uiso   1.00
O1913  O     0.92755   0.65888   0.15154   0.00000  Uiso   1.00
O1914  O     0.86136   0.66010   0.14394   0.00000  Uiso   1.00
O1915  O     0.89225   0.71167   0.18326   0.00000  Uiso   1.00
H1916  H     0.86787   0.71599   0.19443   0.00000  Uiso   1.00
S1917  S     0.89866   0.94993   0.78523   0.00000  Uiso   1.00
O1918  O     0.88188   0.96256   0.82271   0.00000  Uiso   1.00
O1919  O     0.93912   0.94793   0.79055   0.00000  Uiso   1.00
O1920  O     0.88988   0.98052   0.75016   0.00000  Uiso   1.00
H1921  H     0.89978   0.96968   0.72601   0.00000  Uiso   1.00
S1922  S     0.62969   0.57878   0.17412   0.00000  Uiso   1.00
O1923  O     0.61958   0.53922   0.17513   0.00000  Uiso   1.00
O1924  O     0.60611   0.59759   0.14472   0.00000  Uiso   1.00
O1925  O     0.67318   0.58304   0.16004   0.00000  Uiso   1.00
H1926  H     0.67826   0.60948   0.16090   0.00000  Uiso   1.00
S1927  S     0.92082   0.63202   0.82727   0.00000  Uiso   1.00
O1928  O     0.92362   0.66944   0.84443   0.00000  Uiso   1.00
O1929  O     0.90769   0.60634   0.85824   0.00000  Uiso   1.00
O1930  O     0.96240   0.61809   0.81395   0.00000  Uiso   1.00
H1931  H     0.95829   0.59453   0.80066   0.00000  Uiso   1.00
S1932  S     0.60750   0.83245   0.17157   0.00000  Uiso   1.00
O1933  O     0.57234   0.84110   0.15143   0.00000  Uiso   1.00
O1934  O     0.63853   0.83931   0.14404   0.00000  Uiso   1.00
O1935  O     0.60719   0.78811   0.18332   0.00000  Uiso   1.00
H1936  H     0.63161   0.78359   0.19435   0.00000  Uiso   1.00
S1937  S     0.88247   0.67036   0.67245   0.00000  Uiso   1.00
O1938  O     0.92005   0.67302   0.65576   0.00000  Uiso   1.00
O1939  O     0.85706   0.65709   0.64122   0.00000  Uiso   1.00
O1940  O     0.86846   0.71203   0.68538   0.00000  Uiso   1.00
H1941  H     0.84481   0.70801   0.69848   0.00000  Uiso   1.00
S1942  S     0.58268   0.85768   0.32844   0.00000  Uiso   1.00
O1943  O     0.59114   0.82245   0.34848   0.00000  Uiso   1.00
O1944  O     0.58984   0.88864   0.35606   0.00000  Uiso   1.00
O1945  O     0.53831   0.85768   0.31674   0.00000  Uiso   1.00
H1946  H     0.53397   0.88206   0.30557   0.00000  Uiso   1.00
S1947  S     0.80007   0.85134   0.71479   0.00000  Uiso   1.00
O1948  O     0.78743   0.86811   0.67731   0.00000  Uiso   1.00
O1949  O     0.80207   0.81088   0.70947   0.00000  Uiso   1.00
O1950  O     0.76949   0.86012   0.74986   0.00000  Uiso   1.00
H1951  H     0.78033   0.85023   0.77401   0.00000  Uiso   1.00
S1952  S     0.67126   0.62037   0.32585   0.00000  Uiso   1.00
O1953  O     0.71083   0.63047   0.32480   0.00000  Uiso   1.00
O1954  O     0.65247   0.64397   0.35524   0.00000  Uiso   1.00
O1955  O     0.66700   0.57688   0.33997   0.00000  Uiso   1.00
H1956  H     0.64056   0.57181   0.33913   0.00000  Uiso   1.00
S1957  S     0.61798   0.82918   0.67273   0.00000  Uiso   1.00
O1958  O     0.58057   0.82639   0.65557   0.00000  Uiso   1.00
O1959  O     0.64367   0.84231   0.64177   0.00000  Uiso   1.00
O1960  O     0.63190   0.78760   0.68605   0.00000  Uiso   1.00
H1961  H     0.65533   0.79173   0.69960   0.00000  Uiso   1.00
S1962  S     0.91763   0.64247   0.32842   0.00000  Uiso   1.00
O1963  O     0.90894   0.67759   0.34861   0.00000  Uiso   1.00
O1964  O     0.91083   0.61140   0.35592   0.00000  Uiso   1.00
O1965  O     0.96195   0.64285   0.31663   0.00000  Uiso   1.00
H1966  H     0.96650   0.61845   0.30558   0.00000  Uiso   1.00
S1967  S     0.69974   0.64836   0.71414   0.00000  Uiso   1.00
O1968  O     0.71216   0.63090   0.67693   0.00000  Uiso   1.00
O1969  O     0.69774   0.68872   0.70809   0.00000  Uiso   1.00
O1970  O     0.73051   0.64017   0.74924   0.00000  Uiso   1.00
H1971  H     0.71983   0.65054   0.77325   0.00000  Uiso   1.00
S1972  S     0.82918   0.88013   0.32599   0.00000  Uiso   1.00
O1973  O     0.78957   0.87018   0.32527   0.00000  Uiso   1.00
O1974  O     0.84809   0.85669   0.35543   0.00000  Uiso   1.00
O1975  O     0.83373   0.92371   0.33975   0.00000  Uiso   1.00
H1976  H     0.86019   0.92866   0.33876   0.00000  Uiso   1.00
S1977  S     0.85166   0.80027   0.28593   0.00000  Uiso   1.00
O1978  O     0.86916   0.78789   0.32314   0.00000  Uiso   1.00
O1979  O     0.81131   0.80227   0.29202   0.00000  Uiso   1.00
O1980  O     0.85982   0.76948   0.25085   0.00000  Uiso   1.00
H1981  H     0.84944   0.78014   0.22684   0.00000  Uiso   1.00
S1982  S     0.61990   0.67084   0.67402   0.00000  Uiso   1.00
O1983  O     0.62986   0.71045   0.67477   0.00000  Uiso   1.00
O1984  O     0.64335   0.65194   0.64459   0.00000  Uiso   1.00
O1985  O     0.57633   0.66632   0.66023   0.00000  Uiso   1.00
H1986  H     0.57137   0.63986   0.66120   0.00000  Uiso   1.00
S1987  S     0.82971   0.61743   0.32760   0.00000  Uiso   1.00
O1988  O     0.82707   0.57982   0.34423   0.00000  Uiso   1.00
O1989  O     0.84301   0.64278   0.35887   0.00000  Uiso   1.00
O1990  O     0.78803   0.63146   0.31475   0.00000  Uiso   1.00
H1991  H     0.79202   0.65517   0.30177   0.00000  Uiso   1.00
S1992  S     0.64232   0.91729   0.67156   0.00000  Uiso   1.00
O1993  O     0.67757   0.90885   0.65154   0.00000  Uiso   1.00
O1994  O     0.61138   0.91010   0.64393   0.00000  Uiso   1.00
O1995  O     0.64228   0.96167   0.68324   0.00000  Uiso   1.00
H1996  H     0.61790   0.96599   0.69442   0.00000  Uiso   1.00
S1997  S     0.64864   0.69993   0.28526   0.00000  Uiso   1.00
O1998  O     0.63185   0.71254   0.32273   0.00000  Uiso   1.00
O1999  O     0.68910   0.69793   0.29061   0.00000  Uiso   1.00
O2000  O     0.63989   0.73053   0.25020   0.00000  Uiso   1.00
H2001  H     0.64979   0.71969   0.22604   0.00000  Uiso   1.00
S2002  S     0.87961   0.82873   0.67416   0.00000  Uiso   1.00
O2003  O     0.86951   0.78917   0.67521   0.00000  Uiso   1.00
O2004  O     0.85601   0.84752   0.64477   0.00000  Uiso   1.00
O2005  O     0.92310   0.83297   0.66001   0.00000  Uiso   1.00
H2006  H     0.92818   0.85941   0.66086   0.00000  Uiso   1.00
S2007  S     0.67078   0.88208   0.32730   0.00000  Uiso   1.00
O2008  O     0.67356   0.91951   0.34442   0.00000  Uiso   1.00
O2009  O     0.65763   0.85643   0.35829   0.00000  Uiso   1.00
O2010  O     0.71237   0.86814   0.31403   0.00000  Uiso   1.00
H2011  H     0.70827   0.84455   0.30079   0.00000  Uiso   1.00
S2012  S     0.85749   0.58243   0.67157   0.00000  Uiso   1.00
O2013  O     0.82234   0.59110   0.65141   0.00000  Uiso   1.00
O2014  O     0.88853   0.58927   0.64404   0.00000  Uiso   1.00
O2015  O     0.85716   0.53810   0.68332   0.00000  Uiso   1.00
H2016  H     0.88157   0.53357   0.69436   0.00000  Uiso   1.00
O2017  O     0.96378   0.80196   0.39738   0.00000  Uiso   1.00
C2018  C     0.92662   0.79300   0.40142   0.00000  Uiso   1.00
H2019  H     0.91753   0.79490   0.43223   0.00000  Uiso   1.00
H2020  H     0.92053   0.76538   0.38985   0.00000  Uiso   1.00
H2021  H     0.91051   0.81275   0.38436   0.00000  Uiso   1.00
O2022  O     0.52748   0.69093   0.60340   0.00000  Uiso   1.00
C2023  C     0.99847   0.66931   0.61749   0.00000  Uiso   1.00
H2024  H     0.97403   0.66938   0.59825   0.00000  Uiso   1.00
H2025  H     0.99105   0.67795   0.64738   0.00000  Uiso   1.00
H2026  H     0.50783   0.64081   0.61958   0.00000  Uiso   1.00
O2027  O     0.69019   0.52661   0.39738   0.00000  Uiso   1.00
C2028  C     0.66878   0.99809   0.38176   0.00000  Uiso   1.00
H2029  H     0.66663   0.97410   0.40147   0.00000  Uiso   1.00
H2030  H     0.67922   0.98984   0.35284   0.00000  Uiso   1.00
H2031  H     0.64088   0.50827   0.37689   0.00000  Uiso   1.00
O2032  O     0.80976   0.96991   0.60234   0.00000  Uiso   1.00
C2033  C     0.80542   0.93475   0.61836   0.00000  Uiso   1.00
H2034  H     0.78003   0.92020   0.60947   0.00000  Uiso   1.00
H2035  H     0.80663   0.93663   0.65053   0.00000  Uiso   1.00
H2036  H     0.82892   0.91787   0.60991   0.00000  Uiso   1.00
O2037  O     0.52992   0.69015   0.39763   0.00000  Uiso   1.00
C2038  C     0.56511   0.69443   0.38166   0.00000  Uiso   1.00
H2039  H     0.57973   0.71975   0.39064   0.00000  Uiso   1.00
H2040  H     0.56326   0.69330   0.34948   0.00000  Uiso   1.00
H2041  H     0.58191   0.67085   0.39007   0.00000  Uiso   1.00
O2042  O     0.97350   0.80986   0.60261   0.00000  Uiso   1.00
C2043  C     0.50202   0.83120   0.61832   0.00000  Uiso   1.00
H2044  H     0.52604   0.83333   0.59867   0.00000  Uiso   1.00
H2045  H     0.51019   0.82073   0.64725   0.00000  Uiso   1.00
H2046  H     0.99187   0.85911   0.62320   0.00000  Uiso   1.00
O2047  O     0.80902   0.97241   0.39661   0.00000  Uiso   1.00
C2048  C     0.83070   0.50141   0.38260   0.00000  Uiso   1.00
H2049  H     0.83068   0.52580   0.40190   0.00000  Uiso   1.00
H2050  H     0.82208   0.50890   0.35273   0.00000  Uiso   1.00
H2051  H     0.85918   0.99199   0.38050   0.00000  Uiso   1.00
O2052  O     0.69819   0.53645   0.60261   0.00000  Uiso   1.00
C2053  C     0.70732   0.57357   0.59856   0.00000  Uiso   1.00
H2054  H     0.70551   0.58266   0.56774   0.00000  Uiso   1.00
H2055  H     0.73494   0.57955   0.61018   0.00000  Uiso   1.00
H2056  H     0.68760   0.58977   0.61557   0.00000  Uiso   1.00
O2057  O     0.71362   0.55185   0.89738   0.00000  Uiso   1.00
C2058  C     0.67649   0.54277   0.90143   0.00000  Uiso   1.00
H2059  H     0.66740   0.54460   0.93225   0.00000  Uiso   1.00
H2060  H     0.67048   0.51515   0.88982   0.00000  Uiso   1.00
H2061  H     0.66031   0.56250   0.88441   0.00000  Uiso   1.00
O2062  O     0.77751   0.94094   0.10340   0.00000  Uiso   1.00
C2063  C     0.74848   0.91930   0.11740   0.00000  Uiso   1.00
H2064  H     0.72410   0.91933   0.09808   0.00000  Uiso   1.00
H2065  H     0.74097   0.92794   0.14726   0.00000  Uiso   1.00
H2066  H     0.75786   0.89081   0.11952   0.00000  Uiso   1.00
O2067  O     0.94014   0.77651   0.89739   0.00000  Uiso   1.00
C2068  C     0.91879   0.74799   0.88169   0.00000  Uiso   1.00
H2069  H     0.91667   0.72396   0.90134   0.00000  Uiso   1.00
H2070  H     0.92925   0.73982   0.85275   0.00000  Uiso   1.00
H2071  H     0.89088   0.75814   0.87682   0.00000  Uiso   1.00
O2072  O     0.55988   0.72014   0.10235   0.00000  Uiso   1.00
C2073  C     0.55565   0.68498   0.11840   0.00000  Uiso   1.00
H2074  H     0.53034   0.67032   0.10946   0.00000  Uiso   1.00
H2075  H     0.55680   0.68689   0.15057   0.00000  Uiso   1.00
H2076  H     0.57923   0.66819   0.11000   0.00000  Uiso   1.00
O2077  O     0.78003   0.94021   0.89766   0.00000  Uiso   1.00
C2078  C     0.81520   0.94453   0.88164   0.00000  Uiso   1.00
H2079  H     0.82977   0.96990   0.89056   0.00000  Uiso   1.00
H2080  H     0.81332   0.94334   0.84947   0.00000  Uiso   1.00
H2081  H     0.83206   0.92101   0.89008   0.00000  Uiso   1.00
O2082  O     0.72345   0.55984   0.10262   0.00000  Uiso   1.00
C2083  C     0.75199   0.58122   0.11825   0.00000  Uiso   1.00
H2084  H     0.77598   0.58334   0.09856   0.00000  Uiso   1.00
H2085  H     0.76021   0.57077   0.14718   0.00000  Uiso   1.00
H2086  H     0.74183   0.60912   0.12312   0.00000  Uiso   1.00
O2087  O     0.55906   0.72249   0.89660   0.00000  Uiso   1.00
C2088  C     0.58069   0.75151   0.88254   0.00000  Uiso   1.00
H2089  H     0.58064   0.77593   0.90180   0.00000  Uiso   1.00
H2090  H     0.57205   0.75895   0.85266   0.00000  Uiso   1.00
H2091  H     0.60919   0.74213   0.88044   0.00000  Uiso   1.00
O2092  O     0.94803   0.78621   0.10263   0.00000  Uiso   1.00
C2093  C     0.95699   0.82337   0.09860   0.00000  Uiso   1.00
H2094  H     0.95510   0.83247   0.06778   0.00000  Uiso   1.00
H2095  H     0.98461   0.82946   0.11017   0.00000  Uiso   1.00
H2096  H     0.93724   0.83947   0.11565   0.00000  Uiso   1.00
loop_
_geom_bond_atom_site_label_1
_geom_bond_atom_site_label_2
_geom_bond_distance
_geom_bond_site_symmetry_2
_ccdc_geom_bond_type
C1     C101    1.409   .     A
C1     O445    1.386   .     S
C1     C541    1.397   .     S
C2     C102    1.408   .     A
C2     C18     1.400   .     A
C2     O450    1.387   .     S
C3     C103    1.412   .     A
C3     O455    1.387   .     S
C3     C1067   1.403   1_545 S
C4     C104    1.414   .     A
C4     C20     1.407   .     A
C4     O460    1.390   .     S
C5     O465    1.390   .     S
C5     C17     1.407   .     A
C5     C97     1.414   .     A
C6     O470    1.387   .     S
C6     C98     1.412   .     A
C6     C542    1.403   .     S
C7     C99     1.408   .     A
C7     C19     1.400   .     A
C7     O475    1.386   .     S
C8     C100    1.409   .     A
C8     O480    1.386   .     S
C8     C1068   1.398   1_545 S
C9     O485    1.386   .     S
C9     C109    1.409   .     A
C9     C1069   1.398   1_545 S
C10    C110    1.408   .     A
C10    O490    1.386   .     S
C10    C1070   1.400   .     S
C11    O495    1.387   .     S
C11    C23     1.403   .     A
C11    C111    1.412   .     A
C12    C112    1.414   .     A
C12    C24     1.407   .     A
C12    O500    1.390   .     S
C13    C21     1.407   .     A
C13    C105    1.414   .     A
C13    O505    1.390   .     S
C14    O510    1.387   .     S
C14    C22     1.403   .     A
C14    C106    1.412   .     A
C15    O515    1.387   .     S
C15    C107    1.408   .     A
C15    C547    1.400   1_455 S
C16    O520    1.386   .     S
C16    C108    1.409   .     A
C16    C548    1.397   .     S
C17    C43     1.454   .     S
C17    C525    1.397   1_455 S
C18    C530    1.403   1_455 S
C18    C568    1.450   1_455 S
C19    C1051   1.403   .     S
C19    C1089   1.450   .     S
C20    C42     1.454   .     S
C20    C1056   1.398   .     S
C21    C47     1.454   .     S
C21    C1057   1.398   .     S
C22    C48     1.450   .     S
C22    C1058   1.400   1_545 S
C23    C45     1.450   .     S
C23    C539    1.400   .     S
C24    C46     1.454   .     S
C24    C540    1.397   1_455 S
C25    C97     1.413   .     A
C25    O205    1.384   .     S
C25    C30     1.403   .     A
C26    O210    1.389   .     S
C26    C98     1.419   .     A
C26    C29     1.404   .     A
C27    C99     1.414   .     A
C27    O215    1.386   .     S
C27    C32     1.403   .     A
C28    O220    1.385   .     S
C28    C31     1.404   .     A
C28    C100    1.414   .     A
C29    C101    1.414   .     A
C29    O225    1.385   .     S
C30    C102    1.414   .     A
C30    O230    1.386   .     S
C31    C103    1.419   .     A
C31    O235    1.389   .     S
C32    C104    1.413   .     A
C32    O240    1.384   .     S
C33    O245    1.384   .     S
C33    C105    1.413   .     A
C33    C38     1.403   1_556 S
C34    C106    1.419   .     A
C34    O250    1.389   .     S
C34    C37     1.404   1_554 S
C35    C107    1.414   .     A
C35    O255    1.386   .     S
C35    C40     1.403   1_556 S
C36    C108    1.414   .     A
C36    O260    1.385   .     S
C36    C39     1.404   1_554 S
C37    C109    1.414   .     A
C37    O265    1.385   .     S
C37    C34     1.404   1_556 S
C38    C110    1.414   .     A
C38    O270    1.386   .     S
C38    C33     1.403   1_554 S
C39    C111    1.419   .     A
C39    O275    1.389   .     S
C39    C36     1.404   1_556 S
C40    C112    1.413   .     A
C40    O280    1.384   .     S
C40    C35     1.403   1_554 S
C41    O145    1.280   .     A
C41    C1067   1.450   1_545 S
C41    O1189   1.280   1_545 S
C42    O146    1.278   .     A
C42    O1190   1.284   .     S
C43    O143    1.278   .     A
C43    O671    1.284   1_455 S
C44    O144    1.280   .     A
C44    C542    1.450   .     S
C44    O672    1.280   .     S
C45    O673    1.280   .     S
C45    O677    1.280   .     S
C46    O154    1.278   .     A
C46    O150    1.284   .     A
C47    O1199   1.278   .     A
C47    O1203   1.284   .     A
C48    O156    1.280   .     A
C48    O152    1.280   .     A
C49    C115    1.470   .     S
C49    O157    1.283   .     A
C49    O183    1.283   .     A
C50    O184    1.283   .     A
C50    O158    1.283   .     A
C50    C116    1.466   .     S
C51    O181    1.278   .     A
C51    C117    1.443   .     S
C51    O159    1.278   .     A
C52    O182    1.289   .     A
C52    O160    1.288   .     A
C52    C118    1.477   .     S
C53    C119    1.470   .     S
C53    O187    1.284   .     A
C53    O161    1.284   .     A
C54    O162    1.284   .     A
C54    O188    1.284   .     A
C54    C120    1.467   .     S
C55    O163    1.278   .     A
C55    C113    1.443   .     S
C55    O185    1.278   .     A
C56    O164    1.289   .     A
C56    O186    1.288   .     A
C56    C114    1.477   .     S
C57    C123    1.443   .     S
C57    O175    1.278   .     A
C57    O165    1.278   .     A
C58    O166    1.289   .     A
C58    O176    1.288   .     A
C58    C124    1.477   .     S
C59    O167    1.283   .     A
C59    C125    1.470   .     S
C59    O173    1.283   .     A
C60    O174    1.283   .     A
C60    O168    1.283   .     A
C60    C126    1.466   .     S
C61    O179    1.278   .     A
C61    O169    1.278   .     A
C61    C127    1.443   .     S
C62    O170    1.288   .     A
C62    O180    1.289   .     A
C62    C128    1.477   .     S
C63    O171    1.284   .     A
C63    C121    1.470   .     S
C63    O177    1.284   .     A
C64    O172    1.284   .     A
C64    O178    1.284   .     A
C64    C122    1.467   .     S
C65    S285    1.793   .     S
C65    C128    1.432   .     A
C65    C80     1.402   .     A
C66    C79     1.401   .     A
C66    C127    1.403   .     A
C66    S290    1.788   .     S
C67    C126    1.419   .     A
C67    S295    1.786   .     S
C67    C78     1.394   .     A
C68    C77     1.394   .     A
C68    S300    1.782   .     S
C68    C125    1.418   .     A
C69    C124    1.432   .     A
C69    S305    1.793   .     S
C69    C76     1.401   .     A
C70    C75     1.402   .     A
C70    S310    1.788   .     S
C70    C123    1.403   .     A
C71    C122    1.419   .     A
C71    C74     1.394   .     A
C71    S315    1.787   .     S
C72    C73     1.394   .     A
C72    S320    1.782   .     S
C72    C121    1.417   .     A
C73    S325    1.787   .     S
C73    C120    1.419   .     A
C74    S330    1.782   .     S
C74    C119    1.417   .     A
C75    C118    1.432   .     A
C75    S335    1.793   .     S
C76    C117    1.403   .     A
C76    S340    1.788   .     S
C77    S345    1.786   .     S
C77    C116    1.419   .     A
C78    C115    1.418   .     A
C78    S350    1.782   .     S
C79    S355    1.793   .     S
C79    C114    1.432   .     A
C80    S360    1.788   .     S
C80    C113    1.403   .     A
C81    C114    1.432   .     A
C81    C96     1.402   .     A
C81    S365    1.793   .     S
C82    C95     1.401   .     A
C82    C113    1.403   .     A
C82    S370    1.788   .     S
C83    C94     1.394   .     A
C83    S375    1.786   .     S
C83    C116    1.419   .     A
C84    C93     1.394   .     A
C84    S380    1.782   .     S
C84    C115    1.418   .     A
C85    C92     1.401   .     A
C85    S385    1.793   .     S
C85    C118    1.432   .     A
C86    C117    1.403   .     A
C86    S390    1.788   .     S
C86    C91     1.402   .     A
C87    S395    1.787   .     S
C87    C90     1.394   .     A
C87    C120    1.419   .     A
C88    C89     1.394   .     A
C88    S400    1.782   .     S
C88    C119    1.417   .     A
C89    S405    1.787   .     S
C89    C122    1.419   .     A
C90    S410    1.782   .     S
C90    C121    1.417   .     A
C91    S415    1.793   .     S
C91    C124    1.432   .     A
C92    C123    1.403   .     A
C92    S420    1.788   .     S
C93    C126    1.419   .     A
C93    S425    1.786   .     S
C94    S430    1.782   .     S
C94    C125    1.418   .     A
C95    C128    1.432   .     A
C95    S435    1.793   .     S
C96    C127    1.403   .     A
C96    S440    1.788   .     S
C97    C129    1.422   .     A
C98    C654    1.424   .     S
C99    C131    1.422   .     A
C100   C1180   1.416   1_545 S
C101   C653    1.416   .     S
C102   C130    1.422   .     A
C103   C1179   1.424   1_545 S
C104   C132    1.422   .     A
C105   C1181   1.422   .     S
C106   C134    1.424   .     A
C107   C659    1.422   1_455 S
C108   C136    1.416   .     A
C109   C133    1.416   .     A
C110   C1182   1.422   .     S
C111   C135    1.424   .     A
C112   C660    1.422   1_455 S
C129   C130    1.413   .     A
C129   C625    1.416   1_455 S
C130   C622    1.424   1_455 S
C131   C132    1.413   .     A
C131   C1151   1.424   .     S
C132   C1148   1.416   .     S
C133   C1153   1.422   1_545 S
C133   C134    1.413   1_556 S
C134   C1158   1.422   1_545 S
C134   C133    1.413   1_554 S
C135   C631    1.422   .     S
C135   C136    1.413   1_556 S
C136   C636    1.422   .     S
C136   C135    1.413   1_554 S
O137   Zn193   1.953   .     S
O137   Zn200   1.951   .     S
O137   Zn189   1.951   .     S
O137   Zn1252  1.953   1_545 S
O138   Zn1247  1.951   1_545 S
O138   Zn190   1.951   .     S
O138   Zn194   1.953   .     S
O138   Zn203   1.953   .     S
O139   Zn726   1.953   1_455 S
O139   Zn191   1.951   .     S
O139   Zn195   1.953   .     S
O139   Zn198   1.951   .     S
O140   Zn201   1.953   .     S
O140   Zn192   1.951   .     S
O140   Zn196   1.953   .     S
O140   Zn721   1.951   1_455 S
O141   Zn204   1.944   .     S
O141   C1089   1.280   .     S
O142   Zn203   1.944   .     S
O142   C1090   1.284   1_545 S
O143   Zn198   1.945   .     S
O144   Zn197   1.945   .     S
O145   Zn200   1.945   .     S
O146   Zn199   1.945   .     S
O147   Zn202   1.944   .     S
O147   C567    1.284   .     S
O148   Zn201   1.944   .     S
O148   C568    1.280   1_455 S
O149   C569    1.280   1_455 S
O149   Zn196   1.944   .     S
O150   Zn195   1.944   .     S
O151   C1095   1.278   1_545 A
O151   Zn190   1.945   .     S
O152   Zn189   1.945   .     S
O153   Zn192   1.945   .     S
O153   C569    1.280   1_455 S
O154   Zn191   1.945   .     S
O155   C1095   1.284   1_545 A
O155   Zn194   1.944   .     S
O156   Zn193   1.944   .     S
O157   Zn200   1.950   .     S
O158   Zn199   1.950   .     S
O159   Zn202   1.938   .     S
O160   Zn201   1.938   .     S
O161   Zn204   1.950   .     S
O162   Zn203   1.950   .     S
O163   Zn198   1.939   .     S
O164   Zn197   1.939   .     S
O165   Zn199   1.939   .     S
O166   Zn200   1.939   .     S
O167   Zn197   1.950   .     S
O168   Zn198   1.950   .     S
O169   Zn203   1.938   .     S
O170   Zn204   1.938   .     S
O171   Zn201   1.950   .     S
O172   Zn202   1.950   .     S
O173   Zn716   1.950   .     S
O174   Zn191   1.950   .     S
O175   Zn1242  1.938   .     S
O176   Zn193   1.938   .     S
O177   Zn196   1.950   .     S
O178   Zn719   1.950   .     S
O179   Zn190   1.939   .     S
O180   Zn1237  1.939   .     S
O181   Zn715   1.939   .     S
O182   Zn192   1.939   .     S
O183   Zn189   1.950   .     S
O184   Zn1238  1.950   .     S
O185   Zn195   1.938   .     S
O186   Zn720   1.938   .     S
O187   Zn1241  1.950   .     S
O188   Zn194   1.950   .     S
Zn189  O1228   1.939   1_545 S
Zn190  O1232   1.950   1_545 S
Zn191  O705    1.939   1_455 S
Zn192  O697    1.950   1_455 S
Zn193  O1235   1.950   1_545 S
Zn194  O1223   1.938   1_545 S
Zn195  O702    1.950   1_455 S
Zn196  O710    1.938   1_455 S
Zn197  O664    1.951   .     S
Zn199  O1186   1.951   .     S
Zn202  O663    1.953   .     S
Zn204  O1185   1.953   .     S
O205   C206    1.414   .     S
C206   H207    1.114   .     S
C206   H208    1.109   .     S
C206   H209    1.111   .     S
O210   C211    1.413   .     S
C211   H213    1.109   .     S
C211   H214    1.108   .     S
C211   H736    1.115   .     S
H212   C735    1.115   1_455 S
O215   C216    1.413   .     S
C216   H219    1.110   .     S
C216   H218    1.109   .     S
C216   H1265   1.114   .     S
H217   C1264   1.114   1_545 S
O220   C221    1.415   .     S
C221   H224    1.109   .     S
C221   H1270   1.111   1_545 S
C221   H1271   1.113   1_545 S
H222   C1269   1.111   .     S
H223   C1269   1.113   .     S
O225   C226    1.415   .     S
C226   H229    1.109   .     S
C226   H751    1.111   .     S
C226   H752    1.113   .     S
H227   C750    1.111   1_455 S
H228   C750    1.113   1_455 S
O230   C231    1.413   .     S
C231   H233    1.109   .     S
C231   H234    1.110   .     S
C231   H756    1.114   1_455 S
H232   C755    1.114   .     S
O235   C236    1.413   .     S
C236   H239    1.108   .     S
C236   H238    1.109   .     S
C236   H1285   1.115   1_545 S
H237   C1284   1.115   .     S
O240   C241    1.414   .     S
C241   H242    1.114   .     S
C241   H244    1.111   .     S
C241   H243    1.109   .     S
O245   C246    1.414   .     S
C246   H247    1.114   .     S
C246   H248    1.109   .     S
C246   H249    1.111   1_556 S
H249   C246    1.111   1_554 S
O250   C251    1.413   .     S
C251   H252    1.115   .     S
C251   H254    1.108   .     S
C251   H253    1.109   .     S
O255   C256    1.413   .     S
C256   H259    1.110   .     S
C256   H258    1.109   .     S
C256   H257    1.114   .     S
O260   C261    1.415   .     S
C261   H262    1.111   .     S
C261   H264    1.109   .     S
C261   H263    1.113   .     S
O265   C266    1.415   .     S
C266   H268    1.113   .     S
C266   H269    1.109   .     S
C266   H267    1.111   .     S
O270   C271    1.413   .     S
C271   H272    1.114   .     S
C271   H274    1.110   .     S
C271   H273    1.109   .     S
O275   C276    1.413   .     S
C276   H279    1.108   .     S
C276   H277    1.115   .     S
C276   H278    1.109   .     S
O280   C281    1.414   .     S
C281   H283    1.109   .     S
C281   H282    1.114   .     S
C281   H284    1.111   1_554 S
H284   C281    1.111   1_556 S
S285   O287    1.501   .     D
S285   O286    1.501   .     D
S285   O288    1.681   .     S
O288   H289    0.991   .     S
S290   O293    1.682   .     S
S290   O291    1.503   .     D
S290   O292    1.504   .     D
O293   H294    0.990   .     S
S295   O297    1.503   .     D
S295   O296    1.502   .     D
S295   O298    1.682   .     S
O298   H299    0.991   .     S
S300   O301    1.501   .     D
S300   O303    1.680   .     S
S300   O302    1.503   .     D
O303   H304    0.991   .     S
S305   O307    1.501   .     D
S305   O306    1.501   .     D
S305   O308    1.681   .     S
O308   H309    0.991   .     S
S310   O312    1.504   .     D
S310   O311    1.503   .     D
S310   O313    1.682   .     S
O313   H314    0.990   .     S
S315   O318    1.682   .     S
S315   O316    1.502   .     D
S315   O317    1.503   .     D
O318   H319    0.991   .     S
S320   O323    1.679   .     S
S320   O322    1.503   .     D
S320   O321    1.502   .     D
O323   H324    0.991   .     S
S325   O327    1.503   .     D
S325   O326    1.502   .     D
S325   O328    1.682   .     S
O328   H329    0.991   .     S
S330   O331    1.502   .     D
S330   O332    1.503   .     D
S330   O333    1.679   .     S
O333   H334    0.991   .     S
S335   O337    1.501   .     D
S335   O336    1.501   .     D
S335   O338    1.681   .     S
O338   H339    0.991   .     S
S340   O341    1.503   .     D
S340   O343    1.682   .     S
S340   O342    1.504   .     D
O343   H344    0.990   .     S
S345   O348    1.682   .     S
S345   O347    1.503   .     D
S345   O346    1.502   .     D
O348   H349    0.991   .     S
S350   O351    1.501   .     D
S350   O353    1.680   .     S
S350   O352    1.503   .     D
O353   H354    0.991   .     S
S355   O356    1.501   .     D
S355   O357    1.501   .     D
S355   O358    1.681   .     S
O358   H359    0.991   .     S
S360   O361    1.503   .     D
S360   O363    1.682   .     S
S360   O362    1.504   .     D
O363   H364    0.990   .     S
S365   O368    1.681   .     S
S365   O366    1.501   .     D
S365   O367    1.501   .     D
O368   H369    0.991   .     S
S370   O371    1.503   .     D
S370   O372    1.504   .     D
S370   O373    1.682   .     S
O373   H374    0.990   .     S
S375   O376    1.502   .     D
S375   O378    1.682   .     S
S375   O377    1.503   .     D
O378   H379    0.991   .     S
S380   O381    1.501   .     D
S380   O383    1.680   .     S
S380   O382    1.503   .     D
O383   H384    0.991   .     S
S385   O387    1.501   .     D
S385   O386    1.501   .     D
S385   O388    1.681   .     S
O388   H389    0.991   .     S
S390   O392    1.504   .     D
S390   O391    1.503   .     D
S390   O393    1.682   .     S
O393   H394    0.990   .     S
S395   O398    1.682   .     S
S395   O396    1.502   .     D
S395   O397    1.503   .     D
O398   H399    0.991   .     S
S400   O402    1.503   .     D
S400   O403    1.679   .     S
S400   O401    1.502   .     D
O403   H404    0.991   .     S
S405   O406    1.502   .     D
S405   O408    1.682   .     S
S405   O407    1.503   .     D
O408   H409    0.991   .     S
S410   O411    1.502   .     D
S410   O413    1.679   .     S
S410   O412    1.503   .     D
O413   H414    0.991   .     S
S415   O417    1.501   .     D
S415   O416    1.501   .     D
S415   O418    1.681   .     S
O418   H419    0.991   .     S
S420   O421    1.503   .     D
S420   O423    1.682   .     S
S420   O422    1.504   .     D
O423   H424    0.990   .     S
S425   O426    1.502   .     D
S425   O428    1.682   .     S
S425   O427    1.503   .     D
O428   H429    0.991   .     S
S430   O432    1.503   .     D
S430   O433    1.680   .     S
S430   O431    1.501   .     D
O433   H434    0.991   .     S
S435   O437    1.501   .     D
S435   O438    1.681   .     S
S435   O436    1.501   .     D
O438   H439    0.991   .     S
S440   O441    1.503   .     D
S440   O443    1.682   .     S
S440   O442    1.504   .     D
O443   H444    0.990   .     S
O445   C446    1.412   .     S
C446   H449    1.109   .     S
C446   H448    1.113   .     S
C446   H447    1.112   .     S
O450   C975    1.414   1_455 S
C451   H452    1.116   .     S
C451   H453    1.109   .     S
C451   O974    1.414   .     S
C451   H978    1.109   .     S
H454   C975    1.109   1_455 S
O455   C1504   1.414   1_545 S
C456   H458    1.108   .     S
C456   H457    1.115   .     S
C456   O1503   1.414   .     S
C456   H1507   1.108   .     S
H459   C1504   1.108   1_545 S
O460   C461    1.415   .     S
C461   H462    1.116   .     S
C461   H464    1.107   .     S
C461   H463    1.107   .     S
O465   C466    1.415   .     S
C466   H467    1.116   .     S
C466   H468    1.107   .     S
C466   H469    1.107   .     S
O470   C995    1.414   .     S
C471   H473    1.108   .     S
C471   H472    1.115   .     S
C471   O994    1.414   1_455 S
C471   H998    1.108   1_455 S
H474   C995    1.108   .     S
O475   C1524   1.414   .     S
C476   H478    1.109   .     S
C476   H477    1.116   .     S
C476   O1523   1.414   1_545 S
C476   H1527   1.109   1_545 S
H479   C1524   1.109   .     S
O480   C481    1.412   .     S
C481   H482    1.112   .     S
C481   H484    1.109   .     S
C481   H483    1.113   .     S
O485   C486    1.412   .     S
C486   H489    1.109   .     S
C486   H487    1.112   .     S
C486   H488    1.113   .     S
O490   C491    1.414   .     S
C491   H493    1.109   .     S
C491   H494    1.109   .     S
C491   H492    1.116   .     S
O495   C496    1.414   .     S
C496   H499    1.108   .     S
C496   H498    1.108   .     S
C496   H497    1.115   .     S
O500   C501    1.415   .     S
C501   H502    1.116   .     S
C501   H504    1.107   .     S
C501   H503    1.107   .     S
O505   C506    1.415   .     S
C506   H507    1.116   .     S
C506   H508    1.107   .     S
C506   H509    1.107   .     S
O510   C511    1.414   .     S
C511   H514    1.108   .     S
C511   H512    1.115   .     S
C511   H513    1.108   .     S
O515   C516    1.414   .     S
C516   H517    1.116   .     S
C516   H519    1.109   .     S
C516   H518    1.109   .     S
O520   C521    1.412   .     S
C521   H523    1.113   .     S
C521   H522    1.112   .     S
C521   H524    1.109   .     S
C525   C625    1.409   .     A
C525   O969    1.386   .     S
C525   C17     1.397   1_655 S
C526   C626    1.408   .     A
C526   C542    1.400   .     A
C526   O974    1.387   .     S
C527   C627    1.412   .     A
C527   O979    1.387   .     S
C527   C1591   1.403   1_545 S
C528   C628    1.414   .     A
C528   C544    1.407   .     A
C528   O984    1.390   .     S
C529   O989    1.390   .     S
C529   C541    1.407   .     A
C529   C621    1.414   .     A
C530   O994    1.387   .     S
C530   C622    1.412   .     A
C530   C18     1.403   1_655 S
C531   C623    1.408   .     A
C531   C543    1.400   .     A
C531   O999    1.386   .     S
C532   C624    1.409   .     A
C532   O1004   1.386   .     S
C532   C1592   1.398   1_545 S
C533   O1009   1.386   .     S
C533   C633    1.409   .     A
C533   C1593   1.398   1_545 S
C534   C634    1.408   .     A
C534   O1014   1.386   .     S
C534   C1594   1.400   .     S
C535   O1019   1.387   .     S
C535   C547    1.403   .     A
C535   C635    1.412   .     A
C536   C636    1.414   .     A
C536   C548    1.407   .     A
C536   O1024   1.390   .     S
C537   C545    1.407   .     A
C537   C629    1.414   .     A
C537   O1029   1.390   .     S
C538   O1034   1.387   .     S
C538   C546    1.403   .     A
C538   C630    1.412   .     A
C539   O1039   1.387   .     S
C539   C631    1.408   .     A
C540   O1044   1.386   .     S
C540   C632    1.409   .     A
C540   C24     1.397   1_655 S
C541   C567    1.454   .     S
C543   C1575   1.403   .     S
C543   C1613   1.450   .     S
C544   C566    1.454   .     S
C544   C1580   1.398   .     S
C545   C571    1.454   .     S
C545   C1581   1.398   .     S
C546   C572    1.450   .     S
C546   C1582   1.400   1_545 S
C547   C569    1.450   .     S
C547   C15     1.400   1_655 S
C548   C570    1.454   .     S
C549   C621    1.413   .     A
C549   O729    1.384   .     S
C549   C554    1.403   .     A
C550   O734    1.389   .     S
C550   C622    1.419   .     A
C550   C553    1.404   .     A
C551   C623    1.414   .     A
C551   O739    1.386   .     S
C551   C556    1.403   .     A
C552   O744    1.385   .     S
C552   C555    1.404   .     A
C552   C624    1.414   .     A
C553   C625    1.414   .     A
C553   O749    1.385   .     S
C554   C626    1.414   .     A
C554   O754    1.386   .     S
C555   C627    1.419   .     A
C555   O759    1.389   .     S
C556   C628    1.413   .     A
C556   O764    1.384   .     S
C557   O769    1.384   .     S
C557   C629    1.413   .     A
C557   C562    1.403   1_556 S
C558   C630    1.419   .     A
C558   O774    1.389   .     S
C558   C561    1.404   1_554 S
C559   C631    1.414   .     A
C559   O779    1.386   .     S
C559   C564    1.403   1_556 S
C560   C632    1.414   .     A
C560   O784    1.385   .     S
C560   C563    1.404   1_554 S
C561   C633    1.414   .     A
C561   O789    1.385   .     S
C561   C558    1.404   1_556 S
C562   C634    1.414   .     A
C562   O794    1.386   .     S
C562   C557    1.403   1_554 S
C563   C635    1.419   .     A
C563   O799    1.389   .     S
C563   C560    1.404   1_556 S
C564   C636    1.413   .     A
C564   O804    1.384   .     S
C564   C559    1.403   1_554 S
C565   O669    1.280   .     A
C565   C1591   1.450   1_545 S
C565   O1713   1.280   1_545 S
C566   O670    1.278   .     A
C566   O1714   1.284   .     S
C567   O667    1.278   .     A
C568   O668    1.280   .     A
C568   C18     1.450   1_655 S
C568   O148    1.280   1_655 S
C569   O149    1.280   1_655 S
C569   O153    1.280   1_655 S
C570   O678    1.278   .     A
C570   O674    1.284   .     A
C571   O1723   1.278   .     A
C571   O1727   1.284   .     A
C572   O680    1.280   .     A
C572   O676    1.280   .     A
C573   C639    1.470   .     S
C573   O681    1.283   .     A
C573   O707    1.283   .     A
C574   O708    1.283   .     A
C574   O682    1.283   .     A
C574   C640    1.466   .     S
C575   O705    1.278   .     A
C575   C641    1.443   .     S
C575   O683    1.278   .     A
C576   O706    1.289   .     A
C576   O684    1.288   .     A
C576   C642    1.477   .     S
C577   C643    1.470   .     S
C577   O711    1.284   .     A
C577   O685    1.284   .     A
C578   O686    1.284   .     A
C578   O712    1.284   .     A
C578   C644    1.467   .     S
C579   O687    1.278   .     A
C579   C637    1.443   .     S
C579   O709    1.278   .     A
C580   O688    1.289   .     A
C580   O710    1.288   .     A
C580   C638    1.477   .     S
C581   C647    1.443   .     S
C581   O699    1.278   .     A
C581   O689    1.278   .     A
C582   O690    1.289   .     A
C582   O700    1.288   .     A
C582   C648    1.477   .     S
C583   O691    1.283   .     A
C583   C649    1.470   .     S
C583   O697    1.283   .     A
C584   O698    1.283   .     A
C584   O692    1.283   .     A
C584   C650    1.466   .     S
C585   O703    1.278   .     A
C585   O693    1.278   .     A
C585   C651    1.443   .     S
C586   O694    1.288   .     A
C586   O704    1.289   .     A
C586   C652    1.477   .     S
C587   O695    1.284   .     A
C587   C645    1.470   .     S
C587   O701    1.284   .     A
C588   O696    1.284   .     A
C588   O702    1.284   .     A
C588   C646    1.467   .     S
C589   S809    1.793   .     S
C589   C652    1.432   .     A
C589   C604    1.402   .     A
C590   C603    1.401   .     A
C590   C651    1.403   .     A
C590   S814    1.788   .     S
C591   C650    1.419   .     A
C591   S819    1.786   .     S
C591   C602    1.394   .     A
C592   C601    1.394   .     A
C592   S824    1.782   .     S
C592   C649    1.418   .     A
C593   C648    1.432   .     A
C593   S829    1.793   .     S
C593   C600    1.401   .     A
C594   C599    1.402   .     A
C594   S834    1.788   .     S
C594   C647    1.403   .     A
C595   C646    1.419   .     A
C595   C598    1.394   .     A
C595   S839    1.787   .     S
C596   C597    1.394   .     A
C596   S844    1.782   .     S
C596   C645    1.417   .     A
C597   S849    1.787   .     S
C597   C644    1.419   .     A
C598   S854    1.782   .     S
C598   C643    1.417   .     A
C599   C642    1.432   .     A
C599   S859    1.793   .     S
C600   C641    1.403   .     A
C600   S864    1.788   .     S
C601   S869    1.786   .     S
C601   C640    1.419   .     A
C602   C639    1.418   .     A
C602   S874    1.782   .     S
C603   S879    1.793   .     S
C603   C638    1.432   .     A
C604   S884    1.788   .     S
C604   C637    1.403   .     A
C605   C638    1.432   .     A
C605   C620    1.402   .     A
C605   S889    1.793   .     S
C606   C619    1.401   .     A
C606   C637    1.403   .     A
C606   S894    1.788   .     S
C607   C618    1.394   .     A
C607   S899    1.786   .     S
C607   C640    1.419   .     A
C608   C617    1.394   .     A
C608   S904    1.782   .     S
C608   C639    1.418   .     A
C609   C616    1.401   .     A
C609   S909    1.793   .     S
C609   C642    1.432   .     A
C610   C641    1.403   .     A
C610   S914    1.788   .     S
C610   C615    1.402   .     A
C611   S919    1.787   .     S
C611   C614    1.394   .     A
C611   C644    1.419   .     A
C612   C613    1.394   .     A
C612   S924    1.782   .     S
C612   C643    1.417   .     A
C613   S929    1.787   .     S
C613   C646    1.419   .     A
C614   S934    1.782   .     S
C614   C645    1.417   .     A
C615   S939    1.793   .     S
C615   C648    1.432   .     A
C616   C647    1.403   .     A
C616   S944    1.788   .     S
C617   C650    1.419   .     A
C617   S949    1.786   .     S
C618   S954    1.782   .     S
C618   C649    1.418   .     A
C619   C652    1.432   .     A
C619   S959    1.793   .     S
C620   C651    1.403   .     A
C620   S964    1.788   .     S
C621   C653    1.422   .     A
C622   C130    1.424   1_655 S
C623   C655    1.422   .     A
C624   C1704   1.416   1_545 S
C625   C129    1.416   1_655 S
C626   C654    1.422   .     A
C627   C1703   1.424   1_545 S
C628   C656    1.422   .     A
C629   C1705   1.422   .     S
C630   C658    1.424   .     A
C632   C660    1.416   .     A
C633   C657    1.416   .     A
C634   C1706   1.422   .     S
C635   C659    1.424   .     A
C653   C654    1.413   .     A
C655   C656    1.413   .     A
C655   C1675   1.424   .     S
C656   C1672   1.416   .     S
C657   C1677   1.422   1_545 S
C657   C658    1.413   1_556 S
C658   C1682   1.422   1_545 S
C658   C657    1.413   1_554 S
C659   C107    1.422   1_655 S
C659   C660    1.413   1_556 S
C660   C112    1.422   1_655 S
C660   C659    1.413   1_554 S
O661   Zn717   1.953   .     S
O661   Zn724   1.951   .     S
O661   Zn713   1.951   .     S
O661   Zn1776  1.953   1_545 S
O662   Zn1771  1.951   1_545 S
O662   Zn714   1.951   .     S
O662   Zn718   1.953   .     S
O662   Zn727   1.953   .     S
O663   Zn715   1.951   .     S
O663   Zn719   1.953   .     S
O663   Zn722   1.951   .     S
O664   Zn725   1.953   .     S
O664   Zn716   1.951   .     S
O664   Zn720   1.953   .     S
O665   Zn728   1.944   .     S
O665   C1613   1.280   .     S
O666   Zn727   1.944   .     S
O666   C1614   1.284   1_545 S
O667   Zn722   1.945   .     S
O668   Zn721   1.945   .     S
O669   Zn724   1.945   .     S
O670   Zn723   1.945   .     S
O671   Zn726   1.944   .     S
O671   C43     1.284   1_655 S
O672   Zn725   1.944   .     S
O673   Zn720   1.944   .     S
O674   Zn719   1.944   .     S
O675   C1619   1.278   1_545 A
O675   Zn714   1.945   .     S
O676   Zn713   1.945   .     S
O677   Zn716   1.945   .     S
O678   Zn715   1.945   .     S
O679   C1619   1.284   1_545 A
O679   Zn718   1.944   .     S
O680   Zn717   1.944   .     S
O681   Zn724   1.950   .     S
O682   Zn723   1.950   .     S
O683   Zn726   1.938   .     S
O684   Zn725   1.938   .     S
O685   Zn728   1.950   .     S
O686   Zn727   1.950   .     S
O687   Zn722   1.939   .     S
O688   Zn721   1.939   .     S
O689   Zn723   1.939   .     S
O690   Zn724   1.939   .     S
O691   Zn721   1.950   .     S
O692   Zn722   1.950   .     S
O693   Zn727   1.938   .     S
O694   Zn728   1.938   .     S
O695   Zn725   1.950   .     S
O696   Zn726   1.950   .     S
O697   Zn192   1.950   1_655 S
O698   Zn715   1.950   .     S
O699   Zn1766  1.938   .     S
O700   Zn717   1.938   .     S
O701   Zn720   1.950   .     S
O702   Zn195   1.950   1_655 S
O703   Zn714   1.939   .     S
O704   Zn1761  1.939   .     S
O705   Zn191   1.939   1_655 S
O706   Zn716   1.939   .     S
O707   Zn713   1.950   .     S
O708   Zn1762  1.950   .     S
O709   Zn719   1.938   .     S
O710   Zn196   1.938   1_655 S
O711   Zn1765  1.950   .     S
O712   Zn718   1.950   .     S
Zn713  O1752   1.939   1_545 S
Zn714  O1756   1.950   1_545 S
Zn717  O1759   1.950   1_545 S
Zn718  O1747   1.938   1_545 S
Zn721  O140    1.951   1_655 S
Zn723  O1710   1.951   .     S
Zn726  O139    1.953   1_655 S
Zn728  O1709   1.953   .     S
O729   C730    1.414   .     S
C730   H731    1.114   .     S
C730   H732    1.109   .     S
C730   H733    1.111   .     S
O734   C735    1.413   .     S
C735   H737    1.109   .     S
C735   H738    1.108   .     S
C735   H212    1.115   1_655 S
O739   C740    1.413   .     S
C740   H743    1.110   .     S
C740   H742    1.109   .     S
C740   H1789   1.114   .     S
H741   C1788   1.114   1_545 S
O744   C745    1.415   .     S
C745   H748    1.109   .     S
C745   H1794   1.111   1_545 S
C745   H1795   1.113   1_545 S
H746   C1793   1.111   .     S
H747   C1793   1.113   .     S
O749   C750    1.415   .     S
C750   H753    1.109   .     S
C750   H227    1.111   1_655 S
C750   H228    1.113   1_655 S
O754   C755    1.413   .     S
C755   H757    1.109   .     S
C755   H758    1.110   .     S
H756   C231    1.114   1_655 S
O759   C760    1.413   .     S
C760   H763    1.108   .     S
C760   H762    1.109   .     S
C760   H1809   1.115   1_545 S
H761   C1808   1.115   .     S
O764   C765    1.414   .     S
C765   H766    1.114   .     S
C765   H768    1.111   .     S
C765   H767    1.109   .     S
O769   C770    1.414   .     S
C770   H771    1.114   .     S
C770   H772    1.109   .     S
C770   H773    1.111   1_556 S
H773   C770    1.111   1_554 S
O774   C775    1.413   .     S
C775   H776    1.115   .     S
C775   H778    1.108   .     S
C775   H777    1.109   .     S
O779   C780    1.413   .     S
C780   H783    1.110   .     S
C780   H782    1.109   .     S
C780   H781    1.114   .     S
O784   C785    1.415   .     S
C785   H786    1.111   .     S
C785   H788    1.109   .     S
C785   H787    1.113   .     S
O789   C790    1.415   .     S
C790   H792    1.113   .     S
C790   H793    1.109   .     S
C790   H791    1.111   .     S
O794   C795    1.413   .     S
C795   H796    1.114   .     S
C795   H798    1.110   .     S
C795   H797    1.109   .     S
O799   C800    1.413   .     S
C800   H803    1.108   .     S
C800   H801    1.115   .     S
C800   H802    1.109   .     S
O804   C805    1.414   .     S
C805   H807    1.109   .     S
C805   H806    1.114   .     S
C805   H808    1.111   1_554 S
H808   C805    1.111   1_556 S
S809   O811    1.501   .     D
S809   O810    1.501   .     D
S809   O812    1.681   .     S
O812   H813    0.991   .     S
S814   O817    1.682   .     S
S814   O815    1.503   .     D
S814   O816    1.504   .     D
O817   H818    0.990   .     S
S819   O821    1.503   .     D
S819   O820    1.502   .     D
S819   O822    1.682   .     S
O822   H823    0.991   .     S
S824   O825    1.501   .     D
S824   O827    1.680   .     S
S824   O826    1.503   .     D
O827   H828    0.991   .     S
S829   O831    1.501   .     D
S829   O830    1.501   .     D
S829   O832    1.681   .     S
O832   H833    0.991   .     S
S834   O836    1.504   .     D
S834   O835    1.503   .     D
S834   O837    1.682   .     S
O837   H838    0.990   .     S
S839   O842    1.682   .     S
S839   O840    1.502   .     D
S839   O841    1.503   .     D
O842   H843    0.991   .     S
S844   O847    1.679   .     S
S844   O846    1.503   .     D
S844   O845    1.502   .     D
O847   H848    0.991   .     S
S849   O851    1.503   .     D
S849   O850    1.502   .     D
S849   O852    1.682   .     S
O852   H853    0.991   .     S
S854   O855    1.502   .     D
S854   O856    1.503   .     D
S854   O857    1.679   .     S
O857   H858    0.991   .     S
S859   O861    1.501   .     D
S859   O860    1.501   .     D
S859   O862    1.681   .     S
O862   H863    0.991   .     S
S864   O865    1.503   .     D
S864   O867    1.682   .     S
S864   O866    1.504   .     D
O867   H868    0.990   .     S
S869   O872    1.682   .     S
S869   O871    1.503   .     D
S869   O870    1.502   .     D
O872   H873    0.991   .     S
S874   O875    1.501   .     D
S874   O877    1.680   .     S
S874   O876    1.503   .     D
O877   H878    0.991   .     S
S879   O880    1.501   .     D
S879   O881    1.501   .     D
S879   O882    1.681   .     S
O882   H883    0.991   .     S
S884   O885    1.503   .     D
S884   O887    1.682   .     S
S884   O886    1.504   .     D
O887   H888    0.990   .     S
S889   O892    1.681   .     S
S889   O890    1.501   .     D
S889   O891    1.501   .     D
O892   H893    0.991   .     S
S894   O895    1.503   .     D
S894   O896    1.504   .     D
S894   O897    1.682   .     S
O897   H898    0.990   .     S
S899   O900    1.502   .     D
S899   O902    1.682   .     S
S899   O901    1.503   .     D
O902   H903    0.991   .     S
S904   O905    1.501   .     D
S904   O907    1.680   .     S
S904   O906    1.503   .     D
O907   H908    0.991   .     S
S909   O911    1.501   .     D
S909   O910    1.501   .     D
S909   O912    1.681   .     S
O912   H913    0.991   .     S
S914   O916    1.504   .     D
S914   O915    1.503   .     D
S914   O917    1.682   .     S
O917   H918    0.990   .     S
S919   O922    1.682   .     S
S919   O920    1.502   .     D
S919   O921    1.503   .     D
O922   H923    0.991   .     S
S924   O926    1.503   .     D
S924   O927    1.679   .     S
S924   O925    1.502   .     D
O927   H928    0.991   .     S
S929   O930    1.502   .     D
S929   O932    1.682   .     S
S929   O931    1.503   .     D
O932   H933    0.991   .     S
S934   O935    1.502   .     D
S934   O937    1.679   .     S
S934   O936    1.503   .     D
O937   H938    0.991   .     S
S939   O941    1.501   .     D
S939   O940    1.501   .     D
S939   O942    1.681   .     S
O942   H943    0.991   .     S
S944   O945    1.503   .     D
S944   O947    1.682   .     S
S944   O946    1.504   .     D
O947   H948    0.990   .     S
S949   O950    1.502   .     D
S949   O952    1.682   .     S
S949   O951    1.503   .     D
O952   H953    0.991   .     S
S954   O956    1.503   .     D
S954   O957    1.680   .     S
S954   O955    1.501   .     D
O957   H958    0.991   .     S
S959   O961    1.501   .     D
S959   O962    1.681   .     S
S959   O960    1.501   .     D
O962   H963    0.991   .     S
S964   O965    1.503   .     D
S964   O967    1.682   .     S
S964   O966    1.504   .     D
O967   H968    0.990   .     S
O969   C970    1.412   .     S
C970   H973    1.109   .     S
C970   H972    1.113   .     S
C970   H971    1.112   .     S
C975   H976    1.116   .     S
C975   H977    1.109   .     S
C975   O450    1.414   1_655 S
C975   H454    1.109   1_655 S
O979   C2028   1.414   1_545 S
C980   H982    1.108   .     S
C980   H981    1.115   .     S
C980   O2027   1.414   .     S
C980   H2031   1.108   .     S
H983   C2028   1.108   1_545 S
O984   C985    1.415   .     S
C985   H986    1.116   .     S
C985   H988    1.107   .     S
C985   H987    1.107   .     S
O989   C990    1.415   .     S
C990   H991    1.116   .     S
C990   H992    1.107   .     S
C990   H993    1.107   .     S
O994   C471    1.414   1_655 S
C995   H997    1.108   .     S
C995   H996    1.115   .     S
H998   C471    1.108   1_655 S
O999   C2048   1.414   .     S
C1000  H1002   1.109   .     S
C1000  H1001   1.116   .     S
C1000  O2047   1.414   1_545 S
C1000  H2051   1.109   1_545 S
H1003  C2048   1.109   .     S
O1004  C1005   1.412   .     S
C1005  H1006   1.112   .     S
C1005  H1008   1.109   .     S
C1005  H1007   1.113   .     S
O1009  C1010   1.412   .     S
C1010  H1013   1.109   .     S
C1010  H1011   1.112   .     S
C1010  H1012   1.113   .     S
O1014  C1015   1.414   .     S
C1015  H1017   1.109   .     S
C1015  H1018   1.109   .     S
C1015  H1016   1.116   .     S
O1019  C1020   1.414   .     S
C1020  H1023   1.108   .     S
C1020  H1022   1.108   .     S
C1020  H1021   1.115   .     S
O1024  C1025   1.415   .     S
C1025  H1026   1.116   .     S
C1025  H1028   1.107   .     S
C1025  H1027   1.107   .     S
O1029  C1030   1.415   .     S
C1030  H1031   1.116   .     S
C1030  H1032   1.107   .     S
C1030  H1033   1.107   .     S
O1034  C1035   1.414   .     S
C1035  H1038   1.108   .     S
C1035  H1036   1.115   .     S
C1035  H1037   1.108   .     S
O1039  C1040   1.414   .     S
C1040  H1041   1.116   .     S
C1040  H1043   1.109   .     S
C1040  H1042   1.109   .     S
O1044  C1045   1.412   .     S
C1045  H1047   1.113   .     S
C1045  H1046   1.112   .     S
C1045  H1048   1.109   .     S
C1049  C1149   1.409   .     A
C1049  O1493   1.386   .     S
C1049  C1589   1.397   .     S
C1050  C1150   1.408   .     A
C1050  C1066   1.400   .     A
C1050  O1498   1.387   .     S
C1051  C1151   1.412   .     A
C1051  O1503   1.387   .     S
C1052  C1152   1.414   .     A
C1052  C1068   1.407   .     A
C1052  O1508   1.390   .     S
C1053  O1513   1.390   .     S
C1053  C1065   1.407   .     A
C1053  C1145   1.414   .     A
C1054  O1518   1.387   .     S
C1054  C1146   1.412   .     A
C1054  C1590   1.403   .     S
C1055  C1147   1.408   .     A
C1055  C1067   1.400   .     A
C1055  O1523   1.386   .     S
C1056  C1148   1.409   .     A
C1056  O1528   1.386   .     S
C1057  O1533   1.386   .     S
C1057  C1157   1.409   .     A
C1058  C1158   1.408   .     A
C1058  O1538   1.386   .     S
C1058  C22     1.400   1_565 S
C1059  O1543   1.387   .     S
C1059  C1071   1.403   .     A
C1059  C1159   1.412   .     A
C1060  C1160   1.414   .     A
C1060  C1072   1.407   .     A
C1060  O1548   1.390   .     S
C1061  C1069   1.407   .     A
C1061  C1153   1.414   .     A
C1061  O1553   1.390   .     S
C1062  O1558   1.387   .     S
C1062  C1070   1.403   .     A
C1062  C1154   1.412   .     A
C1063  O1563   1.387   .     S
C1063  C1155   1.408   .     A
C1063  C1595   1.400   1_455 S
C1064  O1568   1.386   .     S
C1064  C1156   1.409   .     A
C1064  C1596   1.397   .     S
C1065  C1091   1.454   .     S
C1065  C1573   1.397   1_455 S
C1066  C1578   1.403   1_455 S
C1066  C1616   1.450   1_455 S
C1067  C3      1.403   1_565 S
C1067  C41     1.450   1_565 S
C1068  C1090   1.454   .     S
C1068  C8      1.398   1_565 S
C1069  C1095   1.454   .     S
C1069  C9      1.398   1_565 S
C1070  C1096   1.450   .     S
C1071  C1093   1.450   .     S
C1071  C1587   1.400   .     S
C1072  C1094   1.454   .     S
C1072  C1588   1.397   1_455 S
C1073  C1145   1.413   .     A
C1073  O1253   1.384   .     S
C1073  C1078   1.403   .     A
C1074  O1258   1.389   .     S
C1074  C1146   1.419   .     A
C1074  C1077   1.404   .     A
C1075  C1147   1.414   .     A
C1075  O1263   1.386   .     S
C1075  C1080   1.403   .     A
C1076  O1268   1.385   .     S
C1076  C1079   1.404   .     A
C1076  C1148   1.414   .     A
C1077  C1149   1.414   .     A
C1077  O1273   1.385   .     S
C1078  C1150   1.414   .     A
C1078  O1278   1.386   .     S
C1079  C1151   1.419   .     A
C1079  O1283   1.389   .     S
C1080  C1152   1.413   .     A
C1080  O1288   1.384   .     S
C1081  O1293   1.384   .     S
C1081  C1153   1.413   .     A
C1081  C1086   1.403   1_556 S
C1082  C1154   1.419   .     A
C1082  O1298   1.389   .     S
C1082  C1085   1.404   1_554 S
C1083  C1155   1.414   .     A
C1083  O1303   1.386   .     S
C1083  C1088   1.403   1_556 S
C1084  C1156   1.414   .     A
C1084  O1308   1.385   .     S
C1084  C1087   1.404   1_554 S
C1085  C1157   1.414   .     A
C1085  O1313   1.385   .     S
C1085  C1082   1.404   1_556 S
C1086  C1158   1.414   .     A
C1086  O1318   1.386   .     S
C1086  C1081   1.403   1_554 S
C1087  C1159   1.419   .     A
C1087  O1323   1.389   .     S
C1087  C1084   1.404   1_556 S
C1088  C1160   1.413   .     A
C1088  O1328   1.384   .     S
C1088  C1083   1.403   1_554 S
C1089  O1193   1.280   .     A
C1090  O1194   1.278   .     A
C1090  O142    1.284   1_565 S
C1091  O1191   1.278   .     A
C1091  O1719   1.284   1_455 S
C1092  O1192   1.280   .     A
C1092  C1590   1.450   .     S
C1092  O1720   1.280   .     S
C1093  O1721   1.280   .     S
C1093  O1725   1.280   .     S
C1094  O1202   1.278   .     A
C1094  O1198   1.284   .     A
C1095  O151    1.278   1_565 A
C1095  O155    1.284   1_565 A
C1096  O1204   1.280   .     A
C1096  O1200   1.280   .     A
C1097  C1163   1.470   .     S
C1097  O1205   1.283   .     A
C1097  O1231   1.283   .     A
C1098  O1232   1.283   .     A
C1098  O1206   1.283   .     A
C1098  C1164   1.466   .     S
C1099  O1229   1.278   .     A
C1099  C1165   1.443   .     S
C1099  O1207   1.278   .     A
C1100  O1230   1.289   .     A
C1100  O1208   1.288   .     A
C1100  C1166   1.477   .     S
C1101  C1167   1.470   .     S
C1101  O1235   1.284   .     A
C1101  O1209   1.284   .     A
C1102  O1210   1.284   .     A
C1102  O1236   1.284   .     A
C1102  C1168   1.467   .     S
C1103  O1211   1.278   .     A
C1103  C1161   1.443   .     S
C1103  O1233   1.278   .     A
C1104  O1212   1.289   .     A
C1104  O1234   1.288   .     A
C1104  C1162   1.477   .     S
C1105  C1171   1.443   .     S
C1105  O1223   1.278   .     A
C1105  O1213   1.278   .     A
C1106  O1214   1.289   .     A
C1106  O1224   1.288   .     A
C1106  C1172   1.477   .     S
C1107  O1215   1.283   .     A
C1107  C1173   1.470   .     S
C1107  O1221   1.283   .     A
C1108  O1222   1.283   .     A
C1108  O1216   1.283   .     A
C1108  C1174   1.466   .     S
C1109  O1227   1.278   .     A
C1109  O1217   1.278   .     A
C1109  C1175   1.443   .     S
C1110  O1218   1.288   .     A
C1110  O1228   1.289   .     A
C1110  C1176   1.477   .     S
C1111  O1219   1.284   .     A
C1111  C1169   1.470   .     S
C1111  O1225   1.284   .     A
C1112  O1220   1.284   .     A
C1112  O1226   1.284   .     A
C1112  C1170   1.467   .     S
C1113  S1333   1.793   .     S
C1113  C1176   1.432   .     A
C1113  C1128   1.402   .     A
C1114  C1127   1.401   .     A
C1114  C1175   1.403   .     A
C1114  S1338   1.788   .     S
C1115  C1174   1.419   .     A
C1115  S1343   1.786   .     S
C1115  C1126   1.394   .     A
C1116  C1125   1.394   .     A
C1116  S1348   1.782   .     S
C1116  C1173   1.418   .     A
C1117  C1172   1.432   .     A
C1117  S1353   1.793   .     S
C1117  C1124   1.401   .     A
C1118  C1123   1.402   .     A
C1118  S1358   1.788   .     S
C1118  C1171   1.403   .     A
C1119  C1170   1.419   .     A
C1119  C1122   1.394   .     A
C1119  S1363   1.787   .     S
C1120  C1121   1.394   .     A
C1120  S1368   1.782   .     S
C1120  C1169   1.417   .     A
C1121  S1373   1.787   .     S
C1121  C1168   1.419   .     A
C1122  S1378   1.782   .     S
C1122  C1167   1.417   .     A
C1123  C1166   1.432   .     A
C1123  S1383   1.793   .     S
C1124  C1165   1.403   .     A
C1124  S1388   1.788   .     S
C1125  S1393   1.786   .     S
C1125  C1164   1.419   .     A
C1126  C1163   1.418   .     A
C1126  S1398   1.782   .     S
C1127  S1403   1.793   .     S
C1127  C1162   1.432   .     A
C1128  S1408   1.788   .     S
C1128  C1161   1.403   .     A
C1129  C1162   1.432   .     A
C1129  C1144   1.402   .     A
C1129  S1413   1.793   .     S
C1130  C1143   1.401   .     A
C1130  C1161   1.403   .     A
C1130  S1418   1.788   .     S
C1131  C1142   1.394   .     A
C1131  S1423   1.786   .     S
C1131  C1164   1.419   .     A
C1132  C1141   1.394   .     A
C1132  S1428   1.782   .     S
C1132  C1163   1.418   .     A
C1133  C1140   1.401   .     A
C1133  S1433   1.793   .     S
C1133  C1166   1.432   .     A
C1134  C1165   1.403   .     A
C1134  S1438   1.788   .     S
C1134  C1139   1.402   .     A
C1135  S1443   1.787   .     S
C1135  C1138   1.394   .     A
C1135  C1168   1.419   .     A
C1136  C1137   1.394   .     A
C1136  S1448   1.782   .     S
C1136  C1167   1.417   .     A
C1137  S1453   1.787   .     S
C1137  C1170   1.419   .     A
C1138  S1458   1.782   .     S
C1138  C1169   1.417   .     A
C1139  S1463   1.793   .     S
C1139  C1172   1.432   .     A
C1140  C1171   1.403   .     A
C1140  S1468   1.788   .     S
C1141  C1174   1.419   .     A
C1141  S1473   1.786   .     S
C1142  S1478   1.782   .     S
C1142  C1173   1.418   .     A
C1143  C1176   1.432   .     A
C1143  S1483   1.793   .     S
C1144  C1175   1.403   .     A
C1144  S1488   1.788   .     S
C1145  C1177   1.422   .     A
C1146  C1702   1.424   .     S
C1147  C1179   1.422   .     A
C1149  C1701   1.416   .     S
C1150  C1178   1.422   .     A
C1152  C1180   1.422   .     A
C1153  C133    1.422   1_565 S
C1154  C1182   1.424   .     A
C1155  C1707   1.422   1_455 S
C1156  C1184   1.416   .     A
C1157  C1181   1.416   .     A
C1158  C134    1.422   1_565 S
C1159  C1183   1.424   .     A
C1160  C1708   1.422   1_455 S
C1177  C1178   1.413   .     A
C1177  C1673   1.416   1_455 S
C1178  C1670   1.424   1_455 S
C1179  C1180   1.413   .     A
C1179  C103    1.424   1_565 S
C1180  C100    1.416   1_565 S
C1181  C1182   1.413   1_556 S
C1182  C1181   1.413   1_554 S
C1183  C1679   1.422   .     S
C1183  C1184   1.413   1_556 S
C1184  C1684   1.422   .     S
C1184  C1183   1.413   1_554 S
O1185  Zn1241  1.953   .     S
O1185  Zn1248  1.951   .     S
O1185  Zn1237  1.951   .     S
O1186  Zn1238  1.951   .     S
O1186  Zn1242  1.953   .     S
O1186  Zn1251  1.953   .     S
O1187  Zn1774  1.953   1_455 S
O1187  Zn1239  1.951   .     S
O1187  Zn1243  1.953   .     S
O1187  Zn1246  1.951   .     S
O1188  Zn1249  1.953   .     S
O1188  Zn1240  1.951   .     S
O1188  Zn1244  1.953   .     S
O1188  Zn1769  1.951   1_455 S
O1189  Zn1252  1.944   .     S
O1189  C41     1.280   1_565 S
O1190  Zn1251  1.944   .     S
O1191  Zn1246  1.945   .     S
O1192  Zn1245  1.945   .     S
O1193  Zn1248  1.945   .     S
O1194  Zn1247  1.945   .     S
O1195  Zn1250  1.944   .     S
O1195  C1615   1.284   .     S
O1196  Zn1249  1.944   .     S
O1196  C1616   1.280   1_455 S
O1197  C1617   1.280   1_455 S
O1197  Zn1244  1.944   .     S
O1198  Zn1243  1.944   .     S
O1199  Zn1238  1.945   .     S
O1200  Zn1237  1.945   .     S
O1201  Zn1240  1.945   .     S
O1201  C1617   1.280   1_455 S
O1202  Zn1239  1.945   .     S
O1203  Zn1242  1.944   .     S
O1204  Zn1241  1.944   .     S
O1205  Zn1248  1.950   .     S
O1206  Zn1247  1.950   .     S
O1207  Zn1250  1.938   .     S
O1208  Zn1249  1.938   .     S
O1209  Zn1252  1.950   .     S
O1210  Zn1251  1.950   .     S
O1211  Zn1246  1.939   .     S
O1212  Zn1245  1.939   .     S
O1213  Zn1247  1.939   .     S
O1214  Zn1248  1.939   .     S
O1215  Zn1245  1.950   .     S
O1216  Zn1246  1.950   .     S
O1217  Zn1251  1.938   .     S
O1218  Zn1252  1.938   .     S
O1219  Zn1249  1.950   .     S
O1220  Zn1250  1.950   .     S
O1221  Zn1764  1.950   .     S
O1222  Zn1239  1.950   .     S
O1223  Zn194   1.938   1_565 S
O1224  Zn1241  1.938   .     S
O1225  Zn1244  1.950   .     S
O1226  Zn1767  1.950   .     S
O1227  Zn1238  1.939   .     S
O1228  Zn189   1.939   1_565 S
O1229  Zn1763  1.939   .     S
O1230  Zn1240  1.939   .     S
O1231  Zn1237  1.950   .     S
O1232  Zn190   1.950   1_565 S
O1233  Zn1243  1.938   .     S
O1234  Zn1768  1.938   .     S
O1235  Zn193   1.950   1_565 S
O1236  Zn1242  1.950   .     S
Zn1239 O1753   1.939   1_455 S
Zn1240 O1745   1.950   1_455 S
Zn1243 O1750   1.950   1_455 S
Zn1244 O1758   1.938   1_455 S
Zn1245 O1712   1.951   .     S
Zn1247 O138    1.951   1_565 S
Zn1250 O1711   1.953   .     S
Zn1252 O137    1.953   1_565 S
O1253  C1254   1.414   .     S
C1254  H1255   1.114   .     S
C1254  H1256   1.109   .     S
C1254  H1257   1.111   .     S
O1258  C1259   1.413   .     S
C1259  H1261   1.109   .     S
C1259  H1262   1.108   .     S
C1259  H1784   1.115   .     S
H1260  C1783   1.115   1_455 S
O1263  C1264   1.413   .     S
C1264  H1267   1.110   .     S
C1264  H1266   1.109   .     S
C1264  H217    1.114   1_565 S
O1268  C1269   1.415   .     S
C1269  H1272   1.109   .     S
H1270  C221    1.111   1_565 S
H1271  C221    1.113   1_565 S
O1273  C1274   1.415   .     S
C1274  H1277   1.109   .     S
C1274  H1799   1.111   .     S
C1274  H1800   1.113   .     S
H1275  C1798   1.111   1_455 S
H1276  C1798   1.113   1_455 S
O1278  C1279   1.413   .     S
C1279  H1281   1.109   .     S
C1279  H1282   1.110   .     S
C1279  H1804   1.114   1_455 S
H1280  C1803   1.114   .     S
O1283  C1284   1.413   .     S
C1284  H1287   1.108   .     S
C1284  H1286   1.109   .     S
H1285  C236    1.115   1_565 S
O1288  C1289   1.414   .     S
C1289  H1290   1.114   .     S
C1289  H1292   1.111   .     S
C1289  H1291   1.109   .     S
O1293  C1294   1.414   .     S
C1294  H1295   1.114   .     S
C1294  H1296   1.109   .     S
C1294  H1297   1.111   1_556 S
H1297  C1294   1.111   1_554 S
O1298  C1299   1.413   .     S
C1299  H1300   1.115   .     S
C1299  H1302   1.108   .     S
C1299  H1301   1.109   .     S
O1303  C1304   1.413   .     S
C1304  H1307   1.110   .     S
C1304  H1306   1.109   .     S
C1304  H1305   1.114   .     S
O1308  C1309   1.415   .     S
C1309  H1310   1.111   .     S
C1309  H1312   1.109   .     S
C1309  H1311   1.113   .     S
O1313  C1314   1.415   .     S
C1314  H1316   1.113   .     S
C1314  H1317   1.109   .     S
C1314  H1315   1.111   .     S
O1318  C1319   1.413   .     S
C1319  H1320   1.114   .     S
C1319  H1322   1.110   .     S
C1319  H1321   1.109   .     S
O1323  C1324   1.413   .     S
C1324  H1327   1.108   .     S
C1324  H1325   1.115   .     S
C1324  H1326   1.109   .     S
O1328  C1329   1.414   .     S
C1329  H1331   1.109   .     S
C1329  H1330   1.114   .     S
C1329  H1332   1.111   1_554 S
H1332  C1329   1.111   1_556 S
S1333  O1335   1.501   .     D
S1333  O1334   1.501   .     D
S1333  O1336   1.681   .     S
O1336  H1337   0.991   .     S
S1338  O1341   1.682   .     S
S1338  O1339   1.503   .     D
S1338  O1340   1.504   .     D
O1341  H1342   0.990   .     S
S1343  O1345   1.503   .     D
S1343  O1344   1.502   .     D
S1343  O1346   1.682   .     S
O1346  H1347   0.991   .     S
S1348  O1349   1.501   .     D
S1348  O1351   1.680   .     S
S1348  O1350   1.503   .     D
O1351  H1352   0.991   .     S
S1353  O1355   1.501   .     D
S1353  O1354   1.501   .     D
S1353  O1356   1.681   .     S
O1356  H1357   0.991   .     S
S1358  O1360   1.504   .     D
S1358  O1359   1.503   .     D
S1358  O1361   1.682   .     S
O1361  H1362   0.990   .     S
S1363  O1366   1.682   .     S
S1363  O1364   1.502   .     D
S1363  O1365   1.503   .     D
O1366  H1367   0.991   .     S
S1368  O1371   1.679   .     S
S1368  O1370   1.503   .     D
S1368  O1369   1.502   .     D
O1371  H1372   0.991   .     S
S1373  O1375   1.503   .     D
S1373  O1374   1.502   .     D
S1373  O1376   1.682   .     S
O1376  H1377   0.991   .     S
S1378  O1379   1.502   .     D
S1378  O1380   1.503   .     D
S1378  O1381   1.679   .     S
O1381  H1382   0.991   .     S
S1383  O1385   1.501   .     D
S1383  O1384   1.501   .     D
S1383  O1386   1.681   .     S
O1386  H1387   0.991   .     S
S1388  O1389   1.503   .     D
S1388  O1391   1.682   .     S
S1388  O1390   1.504   .     D
O1391  H1392   0.990   .     S
S1393  O1396   1.682   .     S
S1393  O1395   1.503   .     D
S1393  O1394   1.502   .     D
O1396  H1397   0.991   .     S
S1398  O1399   1.501   .     D
S1398  O1401   1.680   .     S
S1398  O1400   1.503   .     D
O1401  H1402   0.991   .     S
S1403  O1404   1.501   .     D
S1403  O1405   1.501   .     D
S1403  O1406   1.681   .     S
O1406  H1407   0.991   .     S
S1408  O1409   1.503   .     D
S1408  O1411   1.682   .     S
S1408  O1410   1.504   .     D
O1411  H1412   0.990   .     S
S1413  O1416   1.681   .     S
S1413  O1414   1.501   .     D
S1413  O1415   1.501   .     D
O1416  H1417   0.991   .     S
S1418  O1419   1.503   .     D
S1418  O1420   1.504   .     D
S1418  O1421   1.682   .     S
O1421  H1422   0.990   .     S
S1423  O1424   1.502   .     D
S1423  O1426   1.682   .     S
S1423  O1425   1.503   .     D
O1426  H1427   0.991   .     S
S1428  O1429   1.501   .     D
S1428  O1431   1.680   .     S
S1428  O1430   1.503   .     D
O1431  H1432   0.991   .     S
S1433  O1435   1.501   .     D
S1433  O1434   1.501   .     D
S1433  O1436   1.681   .     S
O1436  H1437   0.991   .     S
S1438  O1440   1.504   .     D
S1438  O1439   1.503   .     D
S1438  O1441   1.682   .     S
O1441  H1442   0.990   .     S
S1443  O1446   1.682   .     S
S1443  O1444   1.502   .     D
S1443  O1445   1.503   .     D
O1446  H1447   0.991   .     S
S1448  O1450   1.503   .     D
S1448  O1451   1.679   .     S
S1448  O1449   1.502   .     D
O1451  H1452   0.991   .     S
S1453  O1454   1.502   .     D
S1453  O1456   1.682   .     S
S1453  O1455   1.503   .     D
O1456  H1457   0.991   .     S
S1458  O1459   1.502   .     D
S1458  O1461   1.679   .     S
S1458  O1460   1.503   .     D
O1461  H1462   0.991   .     S
S1463  O1465   1.501   .     D
S1463  O1464   1.501   .     D
S1463  O1466   1.681   .     S
O1466  H1467   0.991   .     S
S1468  O1469   1.503   .     D
S1468  O1471   1.682   .     S
S1468  O1470   1.504   .     D
O1471  H1472   0.990   .     S
S1473  O1474   1.502   .     D
S1473  O1476   1.682   .     S
S1473  O1475   1.503   .     D
O1476  H1477   0.991   .     S
S1478  O1480   1.503   .     D
S1478  O1481   1.680   .     S
S1478  O1479   1.501   .     D
O1481  H1482   0.991   .     S
S1483  O1485   1.501   .     D
S1483  O1486   1.681   .     S
S1483  O1484   1.501   .     D
O1486  H1487   0.991   .     S
S1488  O1489   1.503   .     D
S1488  O1491   1.682   .     S
S1488  O1490   1.504   .     D
O1491  H1492   0.990   .     S
O1493  C1494   1.412   .     S
C1494  H1497   1.109   .     S
C1494  H1496   1.113   .     S
C1494  H1495   1.112   .     S
O1498  C2023   1.414   1_455 S
C1499  H1500   1.116   .     S
C1499  H1501   1.109   .     S
C1499  O2022   1.414   .     S
C1499  H2026   1.109   .     S
H1502  C2023   1.109   1_455 S
C1504  H1506   1.108   .     S
C1504  H1505   1.115   .     S
C1504  O455    1.414   1_565 S
C1504  H459    1.108   1_565 S
O1508  C1509   1.415   .     S
C1509  H1510   1.116   .     S
C1509  H1512   1.107   .     S
C1509  H1511   1.107   .     S
O1513  C1514   1.415   .     S
C1514  H1515   1.116   .     S
C1514  H1516   1.107   .     S
C1514  H1517   1.107   .     S
O1518  C2043   1.414   .     S
C1519  H1521   1.108   .     S
C1519  H1520   1.115   .     S
C1519  O2042   1.414   1_455 S
C1519  H2046   1.108   1_455 S
H1522  C2043   1.108   .     S
O1523  C476    1.414   1_565 S
C1524  H1526   1.109   .     S
C1524  H1525   1.116   .     S
H1527  C476    1.109   1_565 S
O1528  C1529   1.412   .     S
C1529  H1530   1.112   .     S
C1529  H1532   1.109   .     S
C1529  H1531   1.113   .     S
O1533  C1534   1.412   .     S
C1534  H1537   1.109   .     S
C1534  H1535   1.112   .     S
C1534  H1536   1.113   .     S
O1538  C1539   1.414   .     S
C1539  H1541   1.109   .     S
C1539  H1542   1.109   .     S
C1539  H1540   1.116   .     S
O1543  C1544   1.414   .     S
C1544  H1547   1.108   .     S
C1544  H1546   1.108   .     S
C1544  H1545   1.115   .     S
O1548  C1549   1.415   .     S
C1549  H1550   1.116   .     S
C1549  H1552   1.107   .     S
C1549  H1551   1.107   .     S
O1553  C1554   1.415   .     S
C1554  H1555   1.116   .     S
C1554  H1556   1.107   .     S
C1554  H1557   1.107   .     S
O1558  C1559   1.414   .     S
C1559  H1562   1.108   .     S
C1559  H1560   1.115   .     S
C1559  H1561   1.108   .     S
O1563  C1564   1.414   .     S
C1564  H1565   1.116   .     S
C1564  H1567   1.109   .     S
C1564  H1566   1.109   .     S
O1568  C1569   1.412   .     S
C1569  H1571   1.113   .     S
C1569  H1570   1.112   .     S
C1569  H1572   1.109   .     S
C1573  C1673   1.409   .     A
C1573  O2017   1.386   .     S
C1573  C1065   1.397   1_655 S
C1574  C1674   1.408   .     A
C1574  C1590   1.400   .     A
C1574  O2022   1.387   .     S
C1575  C1675   1.412   .     A
C1575  O2027   1.387   .     S
C1576  C1676   1.414   .     A
C1576  C1592   1.407   .     A
C1576  O2032   1.390   .     S
C1577  O2037   1.390   .     S
C1577  C1589   1.407   .     A
C1577  C1669   1.414   .     A
C1578  O2042   1.387   .     S
C1578  C1670   1.412   .     A
C1578  C1066   1.403   1_655 S
C1579  C1671   1.408   .     A
C1579  C1591   1.400   .     A
C1579  O2047   1.386   .     S
C1580  C1672   1.409   .     A
C1580  O2052   1.386   .     S
C1581  O2057   1.386   .     S
C1581  C1681   1.409   .     A
C1582  C1682   1.408   .     A
C1582  O2062   1.386   .     S
C1582  C546    1.400   1_565 S
C1583  O2067   1.387   .     S
C1583  C1595   1.403   .     A
C1583  C1683   1.412   .     A
C1584  C1684   1.414   .     A
C1584  C1596   1.407   .     A
C1584  O2072   1.390   .     S
C1585  C1593   1.407   .     A
C1585  C1677   1.414   .     A
C1585  O2077   1.390   .     S
C1586  O2082   1.387   .     S
C1586  C1594   1.403   .     A
C1586  C1678   1.412   .     A
C1587  O2087   1.387   .     S
C1587  C1679   1.408   .     A
C1588  O2092   1.386   .     S
C1588  C1680   1.409   .     A
C1588  C1072   1.397   1_655 S
C1589  C1615   1.454   .     S
C1591  C527    1.403   1_565 S
C1591  C565    1.450   1_565 S
C1592  C1614   1.454   .     S
C1592  C532    1.398   1_565 S
C1593  C1619   1.454   .     S
C1593  C533    1.398   1_565 S
C1594  C1620   1.450   .     S
C1595  C1617   1.450   .     S
C1595  C1063   1.400   1_655 S
C1596  C1618   1.454   .     S
C1597  C1669   1.413   .     A
C1597  O1777   1.384   .     S
C1597  C1602   1.403   .     A
C1598  O1782   1.389   .     S
C1598  C1670   1.419   .     A
C1598  C1601   1.404   .     A
C1599  C1671   1.414   .     A
C1599  O1787   1.386   .     S
C1599  C1604   1.403   .     A
C1600  O1792   1.385   .     S
C1600  C1603   1.404   .     A
C1600  C1672   1.414   .     A
C1601  C1673   1.414   .     A
C1601  O1797   1.385   .     S
C1602  C1674   1.414   .     A
C1602  O1802   1.386   .     S
C1603  C1675   1.419   .     A
C1603  O1807   1.389   .     S
C1604  C1676   1.413   .     A
C1604  O1812   1.384   .     S
C1605  O1817   1.384   .     S
C1605  C1677   1.413   .     A
C1605  C1610   1.403   1_556 S
C1606  C1678   1.419   .     A
C1606  O1822   1.389   .     S
C1606  C1609   1.404   1_554 S
C1607  C1679   1.414   .     A
C1607  O1827   1.386   .     S
C1607  C1612   1.403   1_556 S
C1608  C1680   1.414   .     A
C1608  O1832   1.385   .     S
C1608  C1611   1.404   1_554 S
C1609  C1681   1.414   .     A
C1609  O1837   1.385   .     S
C1609  C1606   1.404   1_556 S
C1610  C1682   1.414   .     A
C1610  O1842   1.386   .     S
C1610  C1605   1.403   1_554 S
C1611  C1683   1.419   .     A
C1611  O1847   1.389   .     S
C1611  C1608   1.404   1_556 S
C1612  C1684   1.413   .     A
C1612  O1852   1.384   .     S
C1612  C1607   1.403   1_554 S
C1613  O1717   1.280   .     A
C1614  O1718   1.278   .     A
C1614  O666    1.284   1_565 S
C1615  O1715   1.278   .     A
C1616  O1716   1.280   .     A
C1616  C1066   1.450   1_655 S
C1616  O1196   1.280   1_655 S
C1617  O1197   1.280   1_655 S
C1617  O1201   1.280   1_655 S
C1618  O1726   1.278   .     A
C1618  O1722   1.284   .     A
C1619  O675    1.278   1_565 A
C1619  O679    1.284   1_565 A
C1620  O1728   1.280   .     A
C1620  O1724   1.280   .     A
C1621  C1687   1.470   .     S
C1621  O1729   1.283   .     A
C1621  O1755   1.283   .     A
C1622  O1756   1.283   .     A
C1622  O1730   1.283   .     A
C1622  C1688   1.466   .     S
C1623  O1753   1.278   .     A
C1623  C1689   1.443   .     S
C1623  O1731   1.278   .     A
C1624  O1754   1.289   .     A
C1624  O1732   1.288   .     A
C1624  C1690   1.477   .     S
C1625  C1691   1.470   .     S
C1625  O1759   1.284   .     A
C1625  O1733   1.284   .     A
C1626  O1734   1.284   .     A
C1626  O1760   1.284   .     A
C1626  C1692   1.467   .     S
C1627  O1735   1.278   .     A
C1627  C1685   1.443   .     S
C1627  O1757   1.278   .     A
C1628  O1736   1.289   .     A
C1628  O1758   1.288   .     A
C1628  C1686   1.477   .     S
C1629  C1695   1.443   .     S
C1629  O1747   1.278   .     A
C1629  O1737   1.278   .     A
C1630  O1738   1.289   .     A
C1630  O1748   1.288   .     A
C1630  C1696   1.477   .     S
C1631  O1739   1.283   .     A
C1631  C1697   1.470   .     S
C1631  O1745   1.283   .     A
C1632  O1746   1.283   .     A
C1632  O1740   1.283   .     A
C1632  C1698   1.466   .     S
C1633  O1751   1.278   .     A
C1633  O1741   1.278   .     A
C1633  C1699   1.443   .     S
C1634  O1742   1.288   .     A
C1634  O1752   1.289   .     A
C1634  C1700   1.477   .     S
C1635  O1743   1.284   .     A
C1635  C1693   1.470   .     S
C1635  O1749   1.284   .     A
C1636  O1744   1.284   .     A
C1636  O1750   1.284   .     A
C1636  C1694   1.467   .     S
C1637  S1857   1.793   .     S
C1637  C1700   1.432   .     A
C1637  C1652   1.402   .     A
C1638  C1651   1.401   .     A
C1638  C1699   1.403   .     A
C1638  S1862   1.788   .     S
C1639  C1698   1.419   .     A
C1639  S1867   1.786   .     S
C1639  C1650   1.394   .     A
C1640  C1649   1.394   .     A
C1640  S1872   1.782   .     S
C1640  C1697   1.418   .     A
C1641  C1696   1.432   .     A
C1641  S1877   1.793   .     S
C1641  C1648   1.401   .     A
C1642  C1647   1.402   .     A
C1642  S1882   1.788   .     S
C1642  C1695   1.403   .     A
C1643  C1694   1.419   .     A
C1643  C1646   1.394   .     A
C1643  S1887   1.787   .     S
C1644  C1645   1.394   .     A
C1644  S1892   1.782   .     S
C1644  C1693   1.417   .     A
C1645  S1897   1.787   .     S
C1645  C1692   1.419   .     A
C1646  S1902   1.782   .     S
C1646  C1691   1.417   .     A
C1647  C1690   1.432   .     A
C1647  S1907   1.793   .     S
C1648  C1689   1.403   .     A
C1648  S1912   1.788   .     S
C1649  S1917   1.786   .     S
C1649  C1688   1.419   .     A
C1650  C1687   1.418   .     A
C1650  S1922   1.782   .     S
C1651  S1927   1.793   .     S
C1651  C1686   1.432   .     A
C1652  S1932   1.788   .     S
C1652  C1685   1.403   .     A
C1653  C1686   1.432   .     A
C1653  C1668   1.402   .     A
C1653  S1937   1.793   .     S
C1654  C1667   1.401   .     A
C1654  C1685   1.403   .     A
C1654  S1942   1.788   .     S
C1655  C1666   1.394   .     A
C1655  S1947   1.786   .     S
C1655  C1688   1.419   .     A
C1656  C1665   1.394   .     A
C1656  S1952   1.782   .     S
C1656  C1687   1.418   .     A
C1657  C1664   1.401   .     A
C1657  S1957   1.793   .     S
C1657  C1690   1.432   .     A
C1658  C1689   1.403   .     A
C1658  S1962   1.788   .     S
C1658  C1663   1.402   .     A
C1659  S1967   1.787   .     S
C1659  C1662   1.394   .     A
C1659  C1692   1.419   .     A
C1660  C1661   1.394   .     A
C1660  S1972   1.782   .     S
C1660  C1691   1.417   .     A
C1661  S1977   1.787   .     S
C1661  C1694   1.419   .     A
C1662  S1982   1.782   .     S
C1662  C1693   1.417   .     A
C1663  S1987   1.793   .     S
C1663  C1696   1.432   .     A
C1664  C1695   1.403   .     A
C1664  S1992   1.788   .     S
C1665  C1698   1.419   .     A
C1665  S1997   1.786   .     S
C1666  S2002   1.782   .     S
C1666  C1697   1.418   .     A
C1667  C1700   1.432   .     A
C1667  S2007   1.793   .     S
C1668  C1699   1.403   .     A
C1668  S2012   1.788   .     S
C1669  C1701   1.422   .     A
C1670  C1178   1.424   1_655 S
C1671  C1703   1.422   .     A
C1673  C1177   1.416   1_655 S
C1674  C1702   1.422   .     A
C1676  C1704   1.422   .     A
C1677  C657    1.422   1_565 S
C1678  C1706   1.424   .     A
C1680  C1708   1.416   .     A
C1681  C1705   1.416   .     A
C1682  C658    1.422   1_565 S
C1683  C1707   1.424   .     A
C1701  C1702   1.413   .     A
C1703  C1704   1.413   .     A
C1703  C627    1.424   1_565 S
C1704  C624    1.416   1_565 S
C1705  C1706   1.413   1_556 S
C1706  C1705   1.413   1_554 S
C1707  C1155   1.422   1_655 S
C1707  C1708   1.413   1_556 S
C1708  C1160   1.422   1_655 S
C1708  C1707   1.413   1_554 S
O1709  Zn1765  1.953   .     S
O1709  Zn1772  1.951   .     S
O1709  Zn1761  1.951   .     S
O1710  Zn1762  1.951   .     S
O1710  Zn1766  1.953   .     S
O1710  Zn1775  1.953   .     S
O1711  Zn1763  1.951   .     S
O1711  Zn1767  1.953   .     S
O1711  Zn1770  1.951   .     S
O1712  Zn1773  1.953   .     S
O1712  Zn1764  1.951   .     S
O1712  Zn1768  1.953   .     S
O1713  Zn1776  1.944   .     S
O1713  C565    1.280   1_565 S
O1714  Zn1775  1.944   .     S
O1715  Zn1770  1.945   .     S
O1716  Zn1769  1.945   .     S
O1717  Zn1772  1.945   .     S
O1718  Zn1771  1.945   .     S
O1719  Zn1774  1.944   .     S
O1719  C1091   1.284   1_655 S
O1720  Zn1773  1.944   .     S
O1721  Zn1768  1.944   .     S
O1722  Zn1767  1.944   .     S
O1723  Zn1762  1.945   .     S
O1724  Zn1761  1.945   .     S
O1725  Zn1764  1.945   .     S
O1726  Zn1763  1.945   .     S
O1727  Zn1766  1.944   .     S
O1728  Zn1765  1.944   .     S
O1729  Zn1772  1.950   .     S
O1730  Zn1771  1.950   .     S
O1731  Zn1774  1.938   .     S
O1732  Zn1773  1.938   .     S
O1733  Zn1776  1.950   .     S
O1734  Zn1775  1.950   .     S
O1735  Zn1770  1.939   .     S
O1736  Zn1769  1.939   .     S
O1737  Zn1771  1.939   .     S
O1738  Zn1772  1.939   .     S
O1739  Zn1769  1.950   .     S
O1740  Zn1770  1.950   .     S
O1741  Zn1775  1.938   .     S
O1742  Zn1776  1.938   .     S
O1743  Zn1773  1.950   .     S
O1744  Zn1774  1.950   .     S
O1745  Zn1240  1.950   1_655 S
O1746  Zn1763  1.950   .     S
O1747  Zn718   1.938   1_565 S
O1748  Zn1765  1.938   .     S
O1749  Zn1768  1.950   .     S
O1750  Zn1243  1.950   1_655 S
O1751  Zn1762  1.939   .     S
O1752  Zn713   1.939   1_565 S
O1753  Zn1239  1.939   1_655 S
O1754  Zn1764  1.939   .     S
O1755  Zn1761  1.950   .     S
O1756  Zn714   1.950   1_565 S
O1757  Zn1767  1.938   .     S
O1758  Zn1244  1.938   1_655 S
O1759  Zn717   1.950   1_565 S
O1760  Zn1766  1.950   .     S
Zn1769 O1188   1.951   1_655 S
Zn1771 O662    1.951   1_565 S
Zn1774 O1187   1.953   1_655 S
Zn1776 O661    1.953   1_565 S
O1777  C1778   1.414   .     S
C1778  H1779   1.114   .     S
C1778  H1780   1.109   .     S
C1778  H1781   1.111   .     S
O1782  C1783   1.413   .     S
C1783  H1785   1.109   .     S
C1783  H1786   1.108   .     S
C1783  H1260   1.115   1_655 S
O1787  C1788   1.413   .     S
C1788  H1791   1.110   .     S
C1788  H1790   1.109   .     S
C1788  H741    1.114   1_565 S
O1792  C1793   1.415   .     S
C1793  H1796   1.109   .     S
H1794  C745    1.111   1_565 S
H1795  C745    1.113   1_565 S
O1797  C1798   1.415   .     S
C1798  H1801   1.109   .     S
C1798  H1275   1.111   1_655 S
C1798  H1276   1.113   1_655 S
O1802  C1803   1.413   .     S
C1803  H1805   1.109   .     S
C1803  H1806   1.110   .     S
H1804  C1279   1.114   1_655 S
O1807  C1808   1.413   .     S
C1808  H1811   1.108   .     S
C1808  H1810   1.109   .     S
H1809  C760    1.115   1_565 S
O1812  C1813   1.414   .     S
C1813  H1814   1.114   .     S
C1813  H1816   1.111   .     S
C1813  H1815   1.109   .     S
O1817  C1818   1.414   .     S
C1818  H1819   1.114   .     S
C1818  H1820   1.109   .     S
C1818  H1821   1.111   1_556 S
H1821  C1818   1.111   1_554 S
O1822  C1823   1.413   .     S
C1823  H1824   1.115   .     S
C1823  H1826   1.108   .     S
C1823  H1825   1.109   .     S
O1827  C1828   1.413   .     S
C1828  H1831   1.110   .     S
C1828  H1830   1.109   .     S
C1828  H1829   1.114   .     S
O1832  C1833   1.415   .     S
C1833  H1834   1.111   .     S
C1833  H1836   1.109   .     S
C1833  H1835   1.113   .     S
O1837  C1838   1.415   .     S
C1838  H1840   1.113   .     S
C1838  H1841   1.109   .     S
C1838  H1839   1.111   .     S
O1842  C1843   1.413   .     S
C1843  H1844   1.114   .     S
C1843  H1846   1.110   .     S
C1843  H1845   1.109   .     S
O1847  C1848   1.413   .     S
C1848  H1851   1.108   .     S
C1848  H1849   1.115   .     S
C1848  H1850   1.109   .     S
O1852  C1853   1.414   .     S
C1853  H1855   1.109   .     S
C1853  H1854   1.114   .     S
C1853  H1856   1.111   1_554 S
H1856  C1853   1.111   1_556 S
S1857  O1859   1.501   .     D
S1857  O1858   1.501   .     D
S1857  O1860   1.681   .     S
O1860  H1861   0.991   .     S
S1862  O1865   1.682   .     S
S1862  O1863   1.503   .     D
S1862  O1864   1.504   .     D
O1865  H1866   0.990   .     S
S1867  O1869   1.503   .     D
S1867  O1868   1.502   .     D
S1867  O1870   1.682   .     S
O1870  H1871   0.991   .     S
S1872  O1873   1.501   .     D
S1872  O1875   1.680   .     S
S1872  O1874   1.503   .     D
O1875  H1876   0.991   .     S
S1877  O1879   1.501   .     D
S1877  O1878   1.501   .     D
S1877  O1880   1.681   .     S
O1880  H1881   0.991   .     S
S1882  O1884   1.504   .     D
S1882  O1883   1.503   .     D
S1882  O1885   1.682   .     S
O1885  H1886   0.990   .     S
S1887  O1890   1.682   .     S
S1887  O1888   1.502   .     D
S1887  O1889   1.503   .     D
O1890  H1891   0.991   .     S
S1892  O1895   1.679   .     S
S1892  O1894   1.503   .     D
S1892  O1893   1.502   .     D
O1895  H1896   0.991   .     S
S1897  O1899   1.503   .     D
S1897  O1898   1.502   .     D
S1897  O1900   1.682   .     S
O1900  H1901   0.991   .     S
S1902  O1903   1.502   .     D
S1902  O1904   1.503   .     D
S1902  O1905   1.679   .     S
O1905  H1906   0.991   .     S
S1907  O1909   1.501   .     D
S1907  O1908   1.501   .     D
S1907  O1910   1.681   .     S
O1910  H1911   0.991   .     S
S1912  O1913   1.503   .     D
S1912  O1915   1.682   .     S
S1912  O1914   1.504   .     D
O1915  H1916   0.990   .     S
S1917  O1920   1.682   .     S
S1917  O1919   1.503   .     D
S1917  O1918   1.502   .     D
O1920  H1921   0.991   .     S
S1922  O1923   1.501   .     D
S1922  O1925   1.680   .     S
S1922  O1924   1.503   .     D
O1925  H1926   0.991   .     S
S1927  O1928   1.501   .     D
S1927  O1929   1.501   .     D
S1927  O1930   1.681   .     S
O1930  H1931   0.991   .     S
S1932  O1933   1.503   .     D
S1932  O1935   1.682   .     S
S1932  O1934   1.504   .     D
O1935  H1936   0.990   .     S
S1937  O1940   1.681   .     S
S1937  O1938   1.501   .     D
S1937  O1939   1.501   .     D
O1940  H1941   0.991   .     S
S1942  O1943   1.503   .     D
S1942  O1944   1.504   .     D
S1942  O1945   1.682   .     S
O1945  H1946   0.990   .     S
S1947  O1948   1.502   .     D
S1947  O1950   1.682   .     S
S1947  O1949   1.503   .     D
O1950  H1951   0.991   .     S
S1952  O1953   1.501   .     D
S1952  O1955   1.680   .     S
S1952  O1954   1.503   .     D
O1955  H1956   0.991   .     S
S1957  O1959   1.501   .     D
S1957  O1958   1.501   .     D
S1957  O1960   1.681   .     S
O1960  H1961   0.991   .     S
S1962  O1964   1.504   .     D
S1962  O1963   1.503   .     D
S1962  O1965   1.682   .     S
O1965  H1966   0.990   .     S
S1967  O1970   1.682   .     S
S1967  O1968   1.502   .     D
S1967  O1969   1.503   .     D
O1970  H1971   0.991   .     S
S1972  O1974   1.503   .     D
S1972  O1975   1.679   .     S
S1972  O1973   1.502   .     D
O1975  H1976   0.991   .     S
S1977  O1978   1.502   .     D
S1977  O1980   1.682   .     S
S1977  O1979   1.503   .     D
O1980  H1981   0.991   .     S
S1982  O1983   1.502   .     D
S1982  O1985   1.679   .     S
S1982  O1984   1.503   .     D
O1985  H1986   0.991   .     S
S1987  O1989   1.501   .     D
S1987  O1988   1.501   .     D
S1987  O1990   1.681   .     S
O1990  H1991   0.991   .     S
S1992  O1993   1.503   .     D
S1992  O1995   1.682   .     S
S1992  O1994   1.504   .     D
O1995  H1996   0.990   .     S
S1997  O1998   1.502   .     D
S1997  O2000   1.682   .     S
S1997  O1999   1.503   .     D
O2000  H2001   0.991   .     S
S2002  O2004   1.503   .     D
S2002  O2005   1.680   .     S
S2002  O2003   1.501   .     D
O2005  H2006   0.991   .     S
S2007  O2009   1.501   .     D
S2007  O2010   1.681   .     S
S2007  O2008   1.501   .     D
O2010  H2011   0.991   .     S
S2012  O2013   1.503   .     D
S2012  O2015   1.682   .     S
S2012  O2014   1.504   .     D
O2015  H2016   0.990   .     S
O2017  C2018   1.412   .     S
C2018  H2021   1.109   .     S
C2018  H2020   1.113   .     S
C2018  H2019   1.112   .     S
C2023  H2024   1.116   .     S
C2023  H2025   1.109   .     S
C2023  O1498   1.414   1_655 S
C2023  H1502   1.109   1_655 S
C2028  H2030   1.108   .     S
C2028  H2029   1.115   .     S
C2028  O979    1.414   1_565 S
C2028  H983    1.108   1_565 S
O2032  C2033   1.415   .     S
C2033  H2034   1.116   .     S
C2033  H2036   1.107   .     S
C2033  H2035   1.107   .     S
O2037  C2038   1.415   .     S
C2038  H2039   1.116   .     S
C2038  H2040   1.107   .     S
C2038  H2041   1.107   .     S
O2042  C1519   1.414   1_655 S
C2043  H2045   1.108   .     S
C2043  H2044   1.115   .     S
H2046  C1519   1.108   1_655 S
O2047  C1000   1.414   1_565 S
C2048  H2050   1.109   .     S
C2048  H2049   1.116   .     S
H2051  C1000   1.109   1_565 S
O2052  C2053   1.412   .     S
C2053  H2054   1.112   .     S
C2053  H2056   1.109   .     S
C2053  H2055   1.113   .     S
O2057  C2058   1.412   .     S
C2058  H2061   1.109   .     S
C2058  H2059   1.112   .     S
C2058  H2060   1.113   .     S
O2062  C2063   1.414   .     S
C2063  H2065   1.109   .     S
C2063  H2066   1.109   .     S
C2063  H2064   1.116   .     S
O2067  C2068   1.414   .     S
C2068  H2071   1.108   .     S
C2068  H2070   1.108   .     S
C2068  H2069   1.115   .     S
O2072  C2073   1.415   .     S
C2073  H2074   1.116   .     S
C2073  H2076   1.107   .     S
C2073  H2075   1.107   .     S
O2077  C2078   1.415   .     S
C2078  H2079   1.116   .     S
C2078  H2080   1.107   .     S
C2078  H2081   1.107   .     S
O2082  C2083   1.414   .     S
C2083  H2086   1.108   .     S
C2083  H2084   1.115   .     S
C2083  H2085   1.108   .     S
O2087  C2088   1.414   .     S
C2088  H2089   1.116   .     S
C2088  H2091   1.109   .     S
C2088  H2090   1.109   .     S
O2092  C2093   1.412   .     S
C2093  H2095   1.113   .     S
C2093  H2094   1.112   .     S
C2093  H2096   1.109   .     S
