data_str_m3_o1_o16_pcu_sym.175
_audit_creation_date              2020-01-03
_audit_creation_method            'Materials Studio'
_symmetry_space_group_name_H-M    'P1'
_symmetry_Int_Tables_number       1
_symmetry_cell_setting            triclinic
loop_
_symmetry_equiv_pos_as_xyz
  x,y,z
_cell_length_a                    29.6169
_cell_length_b                    32.0218
_cell_length_c                    26.3022
_cell_angle_alpha                 89.9633
_cell_angle_beta                  71.7257
_cell_angle_gamma                 90.0968
loop_
_atom_site_label
_atom_site_type_symbol
_atom_site_fract_x
_atom_site_fract_y
_atom_site_fract_z
_atom_site_U_iso_or_equiv
_atom_site_adp_type
_atom_site_occupancy
C1     C     0.16725   0.24654   0.24800   0.00000  Uiso   1.00
C2     C     0.14975   0.13687   0.48796   0.00000  Uiso   1.00
C3     C     0.16355   0.13746   0.43164   0.00000  Uiso   1.00
C4     C     0.18530   0.14494   0.01251   0.00000  Uiso   1.00
C5     C     0.23248   0.15474   0.48036   0.00000  Uiso   1.00
C6     C     0.24646   0.14482   0.42622   0.00000  Uiso   1.00
C7     C     0.21246   0.13292   0.40311   0.00000  Uiso   1.00
C8     C     0.17473   0.14680   0.06769   0.00000  Uiso   1.00
C9     C     0.25190   0.17708   0.05880   0.00000  Uiso   1.00
C10    C     0.12837   0.14450   0.40619   0.00000  Uiso   1.00
C11    C     0.20687   0.31315   0.21407   0.00000  Uiso   1.00
C12    C     0.14144   0.16015   0.35072   0.00000  Uiso   1.00
C13    C     0.20584   0.02269   0.21866   0.00000  Uiso   1.00
C14    C     0.16593   0.04251   0.25304   0.00000  Uiso   1.00
C15    C     0.12620   0.02000   0.28490   0.00000  Uiso   1.00
C16    C     0.12744   0.31049   0.28065   0.00000  Uiso   1.00
C17    C     0.16738   0.29070   0.24643   0.00000  Uiso   1.00
C18    C     0.31831   0.14010   0.21762   0.00000  Uiso   1.00
C19    C     0.03288   0.14014   0.21760   0.00000  Uiso   1.00
C20    C     0.01529   0.19308   0.28241   0.00000  Uiso   1.00
C21    C     0.30088   0.19330   0.28247   0.00000  Uiso   1.00
C22    C     0.16612   0.08674   0.25181   0.00000  Uiso   1.00
C23    C     0.19254   0.16637   0.14834   0.00000  Uiso   1.00
C24    C     0.26435   0.17366   0.00341   0.00000  Uiso   1.00
C25    C     0.20747   0.16285   0.09070   0.00000  Uiso   1.00
C26    C     0.08050   0.13821   0.43524   0.00000  Uiso   1.00
C27    C     0.06701   0.13051   0.48998   0.00000  Uiso   1.00
C28    C     0.10081   0.13163   0.01674   0.00000  Uiso   1.00
H29    H     0.27611   0.19192   0.07673   0.00000  Uiso   1.00
H30    H     0.23530   0.04101   0.19350   0.00000  Uiso   1.00
H31    H     0.09798   0.29218   0.30580   0.00000  Uiso   1.00
H32    H     0.30740   0.11887   0.19168   0.00000  Uiso   1.00
H33    H     0.05814   0.11893   0.19160   0.00000  Uiso   1.00
H34    H     0.02655   0.21416   0.30826   0.00000  Uiso   1.00
H35    H     0.28342   0.14601   0.40167   0.00000  Uiso   1.00
H36    H     0.14095   0.13600   0.09374   0.00000  Uiso   1.00
H37    H     0.05349   0.13964   0.41556   0.00000  Uiso   1.00
H38    H     0.08729   0.12888   0.05968   0.00000  Uiso   1.00
H39    H     0.02982   0.12600   0.01229   0.00000  Uiso   1.00
H40    H     0.22514   0.12177   0.36234   0.00000  Uiso   1.00
N41    N     0.04760   0.16668   0.25002   0.00000  Uiso   1.00
N42    N     0.28573   0.16665   0.25001   0.00000  Uiso   1.00
O43    O     0.12846   0.22775   0.25001   0.00000  Uiso   1.00
O44    O     0.20490   0.22774   0.25001   0.00000  Uiso   1.00
O45    O     0.10947   0.16666   0.32681   0.00000  Uiso   1.00
O46    O     0.18591   0.16665   0.32681   0.00000  Uiso   1.00
O47    O     0.12843   0.10559   0.25000   0.00000  Uiso   1.00
O48    O     0.20488   0.10558   0.25000   0.00000  Uiso   1.00
O49    O     0.14742   0.16668   0.17319   0.00000  Uiso   1.00
O50    O     0.22387   0.16667   0.17319   0.00000  Uiso   1.00
Zn51   Zn    0.11562   0.16667   0.25000   0.00000  Uiso   1.00
Zn52   Zn    0.21771   0.16666   0.25000   0.00000  Uiso   1.00
C53    C     0.08412   0.03938   0.32443   0.00000  Uiso   1.00
O54    O     0.08854   0.07094   0.34850   0.00000  Uiso   1.00
O55    O     0.03944   0.02050   0.33558   0.00000  Uiso   1.00
H56    H     0.01366   0.03632   0.36347   0.00000  Uiso   1.00
Br57   Br    0.25907   0.23232   0.32917   0.00000  Uiso   1.00
Br58   Br    0.31990   0.20307   0.46113   0.00000  Uiso   1.00
C59    C     0.24824   0.29355   0.17357   0.00000  Uiso   1.00
O60    O     0.24306   0.26187   0.15006   0.00000  Uiso   1.00
O61    O     0.29306   0.31239   0.16090   0.00000  Uiso   1.00
H62    H     0.31828   0.29647   0.13248   0.00000  Uiso   1.00
C63    C     0.50058   0.24654   0.24800   0.00000  Uiso   1.00
C64    C     0.48308   0.13687   0.48796   0.00000  Uiso   1.00
C65    C     0.49688   0.13746   0.43164   0.00000  Uiso   1.00
C66    C     0.51864   0.14494   0.01251   0.00000  Uiso   1.00
C67    C     0.56582   0.15474   0.48036   0.00000  Uiso   1.00
C68    C     0.57979   0.14482   0.42622   0.00000  Uiso   1.00
C69    C     0.54579   0.13292   0.40311   0.00000  Uiso   1.00
C70    C     0.50806   0.14680   0.06769   0.00000  Uiso   1.00
C71    C     0.58523   0.17708   0.05880   0.00000  Uiso   1.00
C72    C     0.46171   0.14450   0.40619   0.00000  Uiso   1.00
C73    C     0.54021   0.31315   0.21407   0.00000  Uiso   1.00
C74    C     0.47478   0.16015   0.35072   0.00000  Uiso   1.00
C75    C     0.53917   0.02269   0.21866   0.00000  Uiso   1.00
C76    C     0.49927   0.04251   0.25304   0.00000  Uiso   1.00
C77    C     0.45953   0.02000   0.28490   0.00000  Uiso   1.00
C78    C     0.46078   0.31049   0.28065   0.00000  Uiso   1.00
C79    C     0.50071   0.29070   0.24643   0.00000  Uiso   1.00
C80    C     0.65164   0.14010   0.21762   0.00000  Uiso   1.00
C81    C     0.36621   0.14014   0.21760   0.00000  Uiso   1.00
C82    C     0.34863   0.19308   0.28241   0.00000  Uiso   1.00
C83    C     0.63421   0.19330   0.28247   0.00000  Uiso   1.00
C84    C     0.49945   0.08674   0.25181   0.00000  Uiso   1.00
C85    C     0.52587   0.16637   0.14834   0.00000  Uiso   1.00
C86    C     0.59769   0.17366   0.00341   0.00000  Uiso   1.00
C87    C     0.54080   0.16285   0.09070   0.00000  Uiso   1.00
C88    C     0.41383   0.13821   0.43524   0.00000  Uiso   1.00
C89    C     0.40034   0.13051   0.48998   0.00000  Uiso   1.00
C90    C     0.43414   0.13163   0.01674   0.00000  Uiso   1.00
H91    H     0.60944   0.19192   0.07673   0.00000  Uiso   1.00
H92    H     0.56863   0.04101   0.19350   0.00000  Uiso   1.00
H93    H     0.43131   0.29218   0.30580   0.00000  Uiso   1.00
H94    H     0.64074   0.11887   0.19168   0.00000  Uiso   1.00
H95    H     0.39148   0.11893   0.19160   0.00000  Uiso   1.00
H96    H     0.35989   0.21416   0.30826   0.00000  Uiso   1.00
H97    H     0.61675   0.14601   0.40167   0.00000  Uiso   1.00
H98    H     0.47429   0.13600   0.09374   0.00000  Uiso   1.00
H99    H     0.38682   0.13964   0.41556   0.00000  Uiso   1.00
H100   H     0.42063   0.12888   0.05968   0.00000  Uiso   1.00
H101   H     0.36315   0.12600   0.01229   0.00000  Uiso   1.00
H102   H     0.55848   0.12177   0.36234   0.00000  Uiso   1.00
N103   N     0.38093   0.16668   0.25002   0.00000  Uiso   1.00
N104   N     0.61906   0.16665   0.25001   0.00000  Uiso   1.00
O105   O     0.46179   0.22775   0.25001   0.00000  Uiso   1.00
O106   O     0.53823   0.22774   0.25001   0.00000  Uiso   1.00
O107   O     0.44280   0.16666   0.32681   0.00000  Uiso   1.00
O108   O     0.51924   0.16665   0.32681   0.00000  Uiso   1.00
O109   O     0.46177   0.10559   0.25000   0.00000  Uiso   1.00
O110   O     0.53821   0.10558   0.25000   0.00000  Uiso   1.00
O111   O     0.48076   0.16668   0.17319   0.00000  Uiso   1.00
O112   O     0.55720   0.16667   0.17319   0.00000  Uiso   1.00
Zn113  Zn    0.44896   0.16667   0.25000   0.00000  Uiso   1.00
Zn114  Zn    0.55104   0.16666   0.25000   0.00000  Uiso   1.00
C115   C     0.41745   0.03938   0.32443   0.00000  Uiso   1.00
O116   O     0.42187   0.07094   0.34850   0.00000  Uiso   1.00
O117   O     0.37277   0.02050   0.33558   0.00000  Uiso   1.00
H118   H     0.34699   0.03632   0.36347   0.00000  Uiso   1.00
Br119  Br    0.59240   0.23232   0.32917   0.00000  Uiso   1.00
Br120  Br    0.65324   0.20307   0.46113   0.00000  Uiso   1.00
C121   C     0.58157   0.29355   0.17357   0.00000  Uiso   1.00
O122   O     0.57639   0.26187   0.15006   0.00000  Uiso   1.00
O123   O     0.62639   0.31239   0.16090   0.00000  Uiso   1.00
H124   H     0.65161   0.29647   0.13248   0.00000  Uiso   1.00
C125   C     0.83391   0.24654   0.24800   0.00000  Uiso   1.00
C126   C     0.81641   0.13687   0.48796   0.00000  Uiso   1.00
C127   C     0.83022   0.13746   0.43164   0.00000  Uiso   1.00
C128   C     0.85197   0.14494   0.01251   0.00000  Uiso   1.00
C129   C     0.89915   0.15474   0.48036   0.00000  Uiso   1.00
C130   C     0.91312   0.14482   0.42622   0.00000  Uiso   1.00
C131   C     0.87912   0.13292   0.40311   0.00000  Uiso   1.00
C132   C     0.84139   0.14680   0.06769   0.00000  Uiso   1.00
C133   C     0.91856   0.17708   0.05880   0.00000  Uiso   1.00
C134   C     0.79504   0.14450   0.40619   0.00000  Uiso   1.00
C135   C     0.87354   0.31315   0.21407   0.00000  Uiso   1.00
C136   C     0.80811   0.16015   0.35072   0.00000  Uiso   1.00
C137   C     0.87251   0.02269   0.21866   0.00000  Uiso   1.00
C138   C     0.83260   0.04251   0.25304   0.00000  Uiso   1.00
C139   C     0.79286   0.02000   0.28490   0.00000  Uiso   1.00
C140   C     0.79411   0.31049   0.28065   0.00000  Uiso   1.00
C141   C     0.83404   0.29070   0.24643   0.00000  Uiso   1.00
C142   C     0.98497   0.14010   0.21762   0.00000  Uiso   1.00
C143   C     0.69955   0.14014   0.21760   0.00000  Uiso   1.00
C144   C     0.68196   0.19308   0.28241   0.00000  Uiso   1.00
C145   C     0.96754   0.19330   0.28247   0.00000  Uiso   1.00
C146   C     0.83279   0.08674   0.25181   0.00000  Uiso   1.00
C147   C     0.85921   0.16637   0.14834   0.00000  Uiso   1.00
C148   C     0.93102   0.17366   0.00341   0.00000  Uiso   1.00
C149   C     0.87413   0.16285   0.09070   0.00000  Uiso   1.00
C150   C     0.74716   0.13821   0.43524   0.00000  Uiso   1.00
C151   C     0.73368   0.13051   0.48998   0.00000  Uiso   1.00
C152   C     0.76747   0.13163   0.01674   0.00000  Uiso   1.00
H153   H     0.94277   0.19192   0.07673   0.00000  Uiso   1.00
H154   H     0.90196   0.04101   0.19350   0.00000  Uiso   1.00
H155   H     0.76464   0.29218   0.30580   0.00000  Uiso   1.00
H156   H     0.97407   0.11887   0.19168   0.00000  Uiso   1.00
H157   H     0.72481   0.11893   0.19160   0.00000  Uiso   1.00
H158   H     0.69322   0.21416   0.30826   0.00000  Uiso   1.00
H159   H     0.95008   0.14601   0.40167   0.00000  Uiso   1.00
H160   H     0.80762   0.13600   0.09374   0.00000  Uiso   1.00
H161   H     0.72015   0.13964   0.41556   0.00000  Uiso   1.00
H162   H     0.75396   0.12888   0.05968   0.00000  Uiso   1.00
H163   H     0.69648   0.12600   0.01229   0.00000  Uiso   1.00
H164   H     0.89181   0.12177   0.36234   0.00000  Uiso   1.00
N165   N     0.71426   0.16668   0.25002   0.00000  Uiso   1.00
N166   N     0.95239   0.16665   0.25001   0.00000  Uiso   1.00
O167   O     0.79512   0.22775   0.25001   0.00000  Uiso   1.00
O168   O     0.87157   0.22774   0.25001   0.00000  Uiso   1.00
O169   O     0.77613   0.16666   0.32681   0.00000  Uiso   1.00
O170   O     0.85258   0.16665   0.32681   0.00000  Uiso   1.00
O171   O     0.79510   0.10559   0.25000   0.00000  Uiso   1.00
O172   O     0.87154   0.10558   0.25000   0.00000  Uiso   1.00
O173   O     0.81409   0.16668   0.17319   0.00000  Uiso   1.00
O174   O     0.89053   0.16667   0.17319   0.00000  Uiso   1.00
Zn175  Zn    0.78229   0.16667   0.25000   0.00000  Uiso   1.00
Zn176  Zn    0.88438   0.16666   0.25000   0.00000  Uiso   1.00
C177   C     0.75079   0.03938   0.32443   0.00000  Uiso   1.00
O178   O     0.75521   0.07094   0.34850   0.00000  Uiso   1.00
O179   O     0.70611   0.02050   0.33558   0.00000  Uiso   1.00
H180   H     0.68033   0.03632   0.36347   0.00000  Uiso   1.00
Br181  Br    0.92574   0.23232   0.32917   0.00000  Uiso   1.00
Br182  Br    0.98657   0.20307   0.46113   0.00000  Uiso   1.00
C183   C     0.91491   0.29355   0.17357   0.00000  Uiso   1.00
O184   O     0.90973   0.26187   0.15006   0.00000  Uiso   1.00
O185   O     0.95972   0.31239   0.16090   0.00000  Uiso   1.00
H186   H     0.98494   0.29647   0.13248   0.00000  Uiso   1.00
C187   C     0.16725   0.57987   0.24800   0.00000  Uiso   1.00
C188   C     0.14975   0.47020   0.48796   0.00000  Uiso   1.00
C189   C     0.16355   0.47079   0.43164   0.00000  Uiso   1.00
C190   C     0.18530   0.47827   0.01251   0.00000  Uiso   1.00
C191   C     0.23248   0.48807   0.48036   0.00000  Uiso   1.00
C192   C     0.24646   0.47815   0.42622   0.00000  Uiso   1.00
C193   C     0.21246   0.46625   0.40311   0.00000  Uiso   1.00
C194   C     0.17473   0.48014   0.06769   0.00000  Uiso   1.00
C195   C     0.25190   0.51041   0.05880   0.00000  Uiso   1.00
C196   C     0.12837   0.47784   0.40619   0.00000  Uiso   1.00
C197   C     0.20687   0.64648   0.21407   0.00000  Uiso   1.00
C198   C     0.14144   0.49348   0.35072   0.00000  Uiso   1.00
C199   C     0.20584   0.35603   0.21866   0.00000  Uiso   1.00
C200   C     0.16593   0.37585   0.25304   0.00000  Uiso   1.00
C201   C     0.12620   0.35333   0.28490   0.00000  Uiso   1.00
C202   C     0.12744   0.64382   0.28065   0.00000  Uiso   1.00
C203   C     0.16738   0.62403   0.24643   0.00000  Uiso   1.00
C204   C     0.31831   0.47344   0.21762   0.00000  Uiso   1.00
C205   C     0.03288   0.47348   0.21760   0.00000  Uiso   1.00
C206   C     0.01529   0.52641   0.28241   0.00000  Uiso   1.00
C207   C     0.30088   0.52663   0.28247   0.00000  Uiso   1.00
C208   C     0.16612   0.42007   0.25181   0.00000  Uiso   1.00
C209   C     0.19254   0.49970   0.14834   0.00000  Uiso   1.00
C210   C     0.26435   0.50699   0.00341   0.00000  Uiso   1.00
C211   C     0.20747   0.49618   0.09070   0.00000  Uiso   1.00
C212   C     0.08050   0.47154   0.43524   0.00000  Uiso   1.00
C213   C     0.06701   0.46384   0.48998   0.00000  Uiso   1.00
C214   C     0.10081   0.46496   0.01674   0.00000  Uiso   1.00
H215   H     0.27611   0.52525   0.07673   0.00000  Uiso   1.00
H216   H     0.23530   0.37434   0.19350   0.00000  Uiso   1.00
H217   H     0.09798   0.62551   0.30580   0.00000  Uiso   1.00
H218   H     0.30740   0.45220   0.19168   0.00000  Uiso   1.00
H219   H     0.05814   0.45226   0.19160   0.00000  Uiso   1.00
H220   H     0.02655   0.54750   0.30826   0.00000  Uiso   1.00
H221   H     0.28342   0.47934   0.40167   0.00000  Uiso   1.00
H222   H     0.14095   0.46933   0.09374   0.00000  Uiso   1.00
H223   H     0.05349   0.47297   0.41556   0.00000  Uiso   1.00
H224   H     0.08729   0.46222   0.05968   0.00000  Uiso   1.00
H225   H     0.02982   0.45934   0.01229   0.00000  Uiso   1.00
H226   H     0.22514   0.45511   0.36234   0.00000  Uiso   1.00
N227   N     0.04760   0.50001   0.25002   0.00000  Uiso   1.00
N228   N     0.28573   0.49998   0.25001   0.00000  Uiso   1.00
O229   O     0.12846   0.56108   0.25001   0.00000  Uiso   1.00
O230   O     0.20490   0.56107   0.25001   0.00000  Uiso   1.00
O231   O     0.10947   0.50000   0.32681   0.00000  Uiso   1.00
O232   O     0.18591   0.49999   0.32681   0.00000  Uiso   1.00
O233   O     0.12843   0.43893   0.25000   0.00000  Uiso   1.00
O234   O     0.20488   0.43892   0.25000   0.00000  Uiso   1.00
O235   O     0.14742   0.50001   0.17319   0.00000  Uiso   1.00
O236   O     0.22387   0.50000   0.17319   0.00000  Uiso   1.00
Zn237  Zn    0.11562   0.50001   0.25000   0.00000  Uiso   1.00
Zn238  Zn    0.21771   0.49999   0.25000   0.00000  Uiso   1.00
C239   C     0.08412   0.37272   0.32443   0.00000  Uiso   1.00
O240   O     0.08854   0.40427   0.34850   0.00000  Uiso   1.00
O241   O     0.03944   0.35383   0.33558   0.00000  Uiso   1.00
H242   H     0.01366   0.36966   0.36347   0.00000  Uiso   1.00
Br243  Br    0.25907   0.56566   0.32917   0.00000  Uiso   1.00
Br244  Br    0.31990   0.53641   0.46113   0.00000  Uiso   1.00
C245   C     0.24824   0.62689   0.17357   0.00000  Uiso   1.00
O246   O     0.24306   0.59521   0.15006   0.00000  Uiso   1.00
O247   O     0.29306   0.64572   0.16090   0.00000  Uiso   1.00
H248   H     0.31828   0.62980   0.13248   0.00000  Uiso   1.00
C249   C     0.50058   0.57987   0.24800   0.00000  Uiso   1.00
C250   C     0.48308   0.47020   0.48796   0.00000  Uiso   1.00
C251   C     0.49688   0.47079   0.43164   0.00000  Uiso   1.00
C252   C     0.51864   0.47827   0.01251   0.00000  Uiso   1.00
C253   C     0.56582   0.48807   0.48036   0.00000  Uiso   1.00
C254   C     0.57979   0.47815   0.42622   0.00000  Uiso   1.00
C255   C     0.54579   0.46625   0.40311   0.00000  Uiso   1.00
C256   C     0.50806   0.48014   0.06769   0.00000  Uiso   1.00
C257   C     0.58523   0.51041   0.05880   0.00000  Uiso   1.00
C258   C     0.46171   0.47784   0.40619   0.00000  Uiso   1.00
C259   C     0.54021   0.64648   0.21407   0.00000  Uiso   1.00
C260   C     0.47478   0.49348   0.35072   0.00000  Uiso   1.00
C261   C     0.53917   0.35603   0.21866   0.00000  Uiso   1.00
C262   C     0.49927   0.37585   0.25304   0.00000  Uiso   1.00
C263   C     0.45953   0.35333   0.28490   0.00000  Uiso   1.00
C264   C     0.46078   0.64382   0.28065   0.00000  Uiso   1.00
C265   C     0.50071   0.62403   0.24643   0.00000  Uiso   1.00
C266   C     0.65164   0.47344   0.21762   0.00000  Uiso   1.00
C267   C     0.36621   0.47348   0.21760   0.00000  Uiso   1.00
C268   C     0.34863   0.52641   0.28241   0.00000  Uiso   1.00
C269   C     0.63421   0.52663   0.28247   0.00000  Uiso   1.00
C270   C     0.49945   0.42007   0.25181   0.00000  Uiso   1.00
C271   C     0.52587   0.49970   0.14834   0.00000  Uiso   1.00
C272   C     0.59769   0.50699   0.00341   0.00000  Uiso   1.00
C273   C     0.54080   0.49618   0.09070   0.00000  Uiso   1.00
C274   C     0.41383   0.47154   0.43524   0.00000  Uiso   1.00
C275   C     0.40034   0.46384   0.48998   0.00000  Uiso   1.00
C276   C     0.43414   0.46496   0.01674   0.00000  Uiso   1.00
H277   H     0.60944   0.52525   0.07673   0.00000  Uiso   1.00
H278   H     0.56863   0.37434   0.19350   0.00000  Uiso   1.00
H279   H     0.43131   0.62551   0.30580   0.00000  Uiso   1.00
H280   H     0.64074   0.45220   0.19168   0.00000  Uiso   1.00
H281   H     0.39148   0.45226   0.19160   0.00000  Uiso   1.00
H282   H     0.35989   0.54750   0.30826   0.00000  Uiso   1.00
H283   H     0.61675   0.47934   0.40167   0.00000  Uiso   1.00
H284   H     0.47429   0.46933   0.09374   0.00000  Uiso   1.00
H285   H     0.38682   0.47297   0.41556   0.00000  Uiso   1.00
H286   H     0.42063   0.46222   0.05968   0.00000  Uiso   1.00
H287   H     0.36315   0.45934   0.01229   0.00000  Uiso   1.00
H288   H     0.55848   0.45511   0.36234   0.00000  Uiso   1.00
N289   N     0.38093   0.50001   0.25002   0.00000  Uiso   1.00
N290   N     0.61906   0.49998   0.25001   0.00000  Uiso   1.00
O291   O     0.46179   0.56108   0.25001   0.00000  Uiso   1.00
O292   O     0.53823   0.56107   0.25001   0.00000  Uiso   1.00
O293   O     0.44280   0.50000   0.32681   0.00000  Uiso   1.00
O294   O     0.51924   0.49999   0.32681   0.00000  Uiso   1.00
O295   O     0.46177   0.43893   0.25000   0.00000  Uiso   1.00
O296   O     0.53821   0.43892   0.25000   0.00000  Uiso   1.00
O297   O     0.48076   0.50001   0.17319   0.00000  Uiso   1.00
O298   O     0.55720   0.50000   0.17319   0.00000  Uiso   1.00
Zn299  Zn    0.44896   0.50001   0.25000   0.00000  Uiso   1.00
Zn300  Zn    0.55104   0.49999   0.25000   0.00000  Uiso   1.00
C301   C     0.41745   0.37272   0.32443   0.00000  Uiso   1.00
O302   O     0.42187   0.40427   0.34850   0.00000  Uiso   1.00
O303   O     0.37277   0.35383   0.33558   0.00000  Uiso   1.00
H304   H     0.34699   0.36966   0.36347   0.00000  Uiso   1.00
Br305  Br    0.59240   0.56566   0.32917   0.00000  Uiso   1.00
Br306  Br    0.65324   0.53641   0.46113   0.00000  Uiso   1.00
C307   C     0.58157   0.62689   0.17357   0.00000  Uiso   1.00
O308   O     0.57639   0.59521   0.15006   0.00000  Uiso   1.00
O309   O     0.62639   0.64572   0.16090   0.00000  Uiso   1.00
H310   H     0.65161   0.62980   0.13248   0.00000  Uiso   1.00
C311   C     0.83391   0.57987   0.24800   0.00000  Uiso   1.00
C312   C     0.81641   0.47020   0.48796   0.00000  Uiso   1.00
C313   C     0.83022   0.47079   0.43164   0.00000  Uiso   1.00
C314   C     0.85197   0.47827   0.01251   0.00000  Uiso   1.00
C315   C     0.89915   0.48807   0.48036   0.00000  Uiso   1.00
C316   C     0.91312   0.47815   0.42622   0.00000  Uiso   1.00
C317   C     0.87912   0.46625   0.40311   0.00000  Uiso   1.00
C318   C     0.84139   0.48014   0.06769   0.00000  Uiso   1.00
C319   C     0.91856   0.51041   0.05880   0.00000  Uiso   1.00
C320   C     0.79504   0.47784   0.40619   0.00000  Uiso   1.00
C321   C     0.87354   0.64648   0.21407   0.00000  Uiso   1.00
C322   C     0.80811   0.49348   0.35072   0.00000  Uiso   1.00
C323   C     0.87251   0.35603   0.21866   0.00000  Uiso   1.00
C324   C     0.83260   0.37585   0.25304   0.00000  Uiso   1.00
C325   C     0.79286   0.35333   0.28490   0.00000  Uiso   1.00
C326   C     0.79411   0.64382   0.28065   0.00000  Uiso   1.00
C327   C     0.83404   0.62403   0.24643   0.00000  Uiso   1.00
C328   C     0.98497   0.47344   0.21762   0.00000  Uiso   1.00
C329   C     0.69955   0.47348   0.21760   0.00000  Uiso   1.00
C330   C     0.68196   0.52641   0.28241   0.00000  Uiso   1.00
C331   C     0.96754   0.52663   0.28247   0.00000  Uiso   1.00
C332   C     0.83279   0.42007   0.25181   0.00000  Uiso   1.00
C333   C     0.85921   0.49970   0.14834   0.00000  Uiso   1.00
C334   C     0.93102   0.50699   0.00341   0.00000  Uiso   1.00
C335   C     0.87413   0.49618   0.09070   0.00000  Uiso   1.00
C336   C     0.74716   0.47154   0.43524   0.00000  Uiso   1.00
C337   C     0.73368   0.46384   0.48998   0.00000  Uiso   1.00
C338   C     0.76747   0.46496   0.01674   0.00000  Uiso   1.00
H339   H     0.94277   0.52525   0.07673   0.00000  Uiso   1.00
H340   H     0.90196   0.37434   0.19350   0.00000  Uiso   1.00
H341   H     0.76464   0.62551   0.30580   0.00000  Uiso   1.00
H342   H     0.97407   0.45220   0.19168   0.00000  Uiso   1.00
H343   H     0.72481   0.45226   0.19160   0.00000  Uiso   1.00
H344   H     0.69322   0.54750   0.30826   0.00000  Uiso   1.00
H345   H     0.95008   0.47934   0.40167   0.00000  Uiso   1.00
H346   H     0.80762   0.46933   0.09374   0.00000  Uiso   1.00
H347   H     0.72015   0.47297   0.41556   0.00000  Uiso   1.00
H348   H     0.75396   0.46222   0.05968   0.00000  Uiso   1.00
H349   H     0.69648   0.45934   0.01229   0.00000  Uiso   1.00
H350   H     0.89181   0.45511   0.36234   0.00000  Uiso   1.00
N351   N     0.71426   0.50001   0.25002   0.00000  Uiso   1.00
N352   N     0.95239   0.49998   0.25001   0.00000  Uiso   1.00
O353   O     0.79512   0.56108   0.25001   0.00000  Uiso   1.00
O354   O     0.87157   0.56107   0.25001   0.00000  Uiso   1.00
O355   O     0.77613   0.50000   0.32681   0.00000  Uiso   1.00
O356   O     0.85258   0.49999   0.32681   0.00000  Uiso   1.00
O357   O     0.79510   0.43893   0.25000   0.00000  Uiso   1.00
O358   O     0.87154   0.43892   0.25000   0.00000  Uiso   1.00
O359   O     0.81409   0.50001   0.17319   0.00000  Uiso   1.00
O360   O     0.89053   0.50000   0.17319   0.00000  Uiso   1.00
Zn361  Zn    0.78229   0.50001   0.25000   0.00000  Uiso   1.00
Zn362  Zn    0.88438   0.49999   0.25000   0.00000  Uiso   1.00
C363   C     0.75079   0.37272   0.32443   0.00000  Uiso   1.00
O364   O     0.75521   0.40427   0.34850   0.00000  Uiso   1.00
O365   O     0.70611   0.35383   0.33558   0.00000  Uiso   1.00
H366   H     0.68033   0.36966   0.36347   0.00000  Uiso   1.00
Br367  Br    0.92574   0.56566   0.32917   0.00000  Uiso   1.00
Br368  Br    0.98657   0.53641   0.46113   0.00000  Uiso   1.00
C369   C     0.91491   0.62689   0.17357   0.00000  Uiso   1.00
O370   O     0.90973   0.59521   0.15006   0.00000  Uiso   1.00
O371   O     0.95972   0.64572   0.16090   0.00000  Uiso   1.00
H372   H     0.98494   0.62980   0.13248   0.00000  Uiso   1.00
C373   C     0.16725   0.91321   0.24800   0.00000  Uiso   1.00
C374   C     0.14975   0.80353   0.48796   0.00000  Uiso   1.00
C375   C     0.16355   0.80412   0.43164   0.00000  Uiso   1.00
C376   C     0.18530   0.81160   0.01251   0.00000  Uiso   1.00
C377   C     0.23248   0.82141   0.48036   0.00000  Uiso   1.00
C378   C     0.24646   0.81148   0.42622   0.00000  Uiso   1.00
C379   C     0.21246   0.79958   0.40311   0.00000  Uiso   1.00
C380   C     0.17473   0.81347   0.06769   0.00000  Uiso   1.00
C381   C     0.25190   0.84374   0.05880   0.00000  Uiso   1.00
C382   C     0.12837   0.81117   0.40619   0.00000  Uiso   1.00
C383   C     0.20687   0.97981   0.21407   0.00000  Uiso   1.00
C384   C     0.14144   0.82681   0.35072   0.00000  Uiso   1.00
C385   C     0.20584   0.68936   0.21866   0.00000  Uiso   1.00
C386   C     0.16593   0.70918   0.25304   0.00000  Uiso   1.00
C387   C     0.12620   0.68667   0.28490   0.00000  Uiso   1.00
C388   C     0.12744   0.97716   0.28065   0.00000  Uiso   1.00
C389   C     0.16738   0.95737   0.24643   0.00000  Uiso   1.00
C390   C     0.31831   0.80677   0.21762   0.00000  Uiso   1.00
C391   C     0.03288   0.80681   0.21760   0.00000  Uiso   1.00
C392   C     0.01529   0.85975   0.28241   0.00000  Uiso   1.00
C393   C     0.30088   0.85997   0.28247   0.00000  Uiso   1.00
C394   C     0.16612   0.75341   0.25181   0.00000  Uiso   1.00
C395   C     0.19254   0.83304   0.14834   0.00000  Uiso   1.00
C396   C     0.26435   0.84032   0.00341   0.00000  Uiso   1.00
C397   C     0.20747   0.82951   0.09070   0.00000  Uiso   1.00
C398   C     0.08050   0.80488   0.43524   0.00000  Uiso   1.00
C399   C     0.06701   0.79718   0.48998   0.00000  Uiso   1.00
C400   C     0.10081   0.79830   0.01674   0.00000  Uiso   1.00
H401   H     0.27611   0.85859   0.07673   0.00000  Uiso   1.00
H402   H     0.23530   0.70768   0.19350   0.00000  Uiso   1.00
H403   H     0.09798   0.95884   0.30580   0.00000  Uiso   1.00
H404   H     0.30740   0.78554   0.19168   0.00000  Uiso   1.00
H405   H     0.05814   0.78559   0.19160   0.00000  Uiso   1.00
H406   H     0.02655   0.88083   0.30826   0.00000  Uiso   1.00
H407   H     0.28342   0.81268   0.40167   0.00000  Uiso   1.00
H408   H     0.14095   0.80267   0.09374   0.00000  Uiso   1.00
H409   H     0.05349   0.80631   0.41556   0.00000  Uiso   1.00
H410   H     0.08729   0.79555   0.05968   0.00000  Uiso   1.00
H411   H     0.02982   0.79267   0.01229   0.00000  Uiso   1.00
H412   H     0.22514   0.78844   0.36234   0.00000  Uiso   1.00
N413   N     0.04760   0.83334   0.25002   0.00000  Uiso   1.00
N414   N     0.28573   0.83331   0.25001   0.00000  Uiso   1.00
O415   O     0.12846   0.89442   0.25001   0.00000  Uiso   1.00
O416   O     0.20490   0.89441   0.25001   0.00000  Uiso   1.00
O417   O     0.10947   0.83333   0.32681   0.00000  Uiso   1.00
O418   O     0.18591   0.83332   0.32681   0.00000  Uiso   1.00
O419   O     0.12843   0.77226   0.25000   0.00000  Uiso   1.00
O420   O     0.20488   0.77225   0.25000   0.00000  Uiso   1.00
O421   O     0.14742   0.83335   0.17319   0.00000  Uiso   1.00
O422   O     0.22387   0.83334   0.17319   0.00000  Uiso   1.00
Zn423  Zn    0.11562   0.83334   0.25000   0.00000  Uiso   1.00
Zn424  Zn    0.21771   0.83333   0.25000   0.00000  Uiso   1.00
C425   C     0.08412   0.70605   0.32443   0.00000  Uiso   1.00
O426   O     0.08854   0.73760   0.34850   0.00000  Uiso   1.00
O427   O     0.03944   0.68716   0.33558   0.00000  Uiso   1.00
H428   H     0.01366   0.70299   0.36347   0.00000  Uiso   1.00
Br429  Br    0.25907   0.89899   0.32917   0.00000  Uiso   1.00
Br430  Br    0.31990   0.86974   0.46113   0.00000  Uiso   1.00
C431   C     0.24824   0.96022   0.17357   0.00000  Uiso   1.00
O432   O     0.24306   0.92854   0.15006   0.00000  Uiso   1.00
O433   O     0.29306   0.97905   0.16090   0.00000  Uiso   1.00
H434   H     0.31828   0.96314   0.13248   0.00000  Uiso   1.00
C435   C     0.50058   0.91321   0.24800   0.00000  Uiso   1.00
C436   C     0.48308   0.80353   0.48796   0.00000  Uiso   1.00
C437   C     0.49688   0.80412   0.43164   0.00000  Uiso   1.00
C438   C     0.51864   0.81160   0.01251   0.00000  Uiso   1.00
C439   C     0.56582   0.82141   0.48036   0.00000  Uiso   1.00
C440   C     0.57979   0.81148   0.42622   0.00000  Uiso   1.00
C441   C     0.54579   0.79958   0.40311   0.00000  Uiso   1.00
C442   C     0.50806   0.81347   0.06769   0.00000  Uiso   1.00
C443   C     0.58523   0.84374   0.05880   0.00000  Uiso   1.00
C444   C     0.46171   0.81117   0.40619   0.00000  Uiso   1.00
C445   C     0.54021   0.97981   0.21407   0.00000  Uiso   1.00
C446   C     0.47478   0.82681   0.35072   0.00000  Uiso   1.00
C447   C     0.53917   0.68936   0.21866   0.00000  Uiso   1.00
C448   C     0.49927   0.70918   0.25304   0.00000  Uiso   1.00
C449   C     0.45953   0.68667   0.28490   0.00000  Uiso   1.00
C450   C     0.46078   0.97716   0.28065   0.00000  Uiso   1.00
C451   C     0.50071   0.95737   0.24643   0.00000  Uiso   1.00
C452   C     0.65164   0.80677   0.21762   0.00000  Uiso   1.00
C453   C     0.36621   0.80681   0.21760   0.00000  Uiso   1.00
C454   C     0.34863   0.85975   0.28241   0.00000  Uiso   1.00
C455   C     0.63421   0.85997   0.28247   0.00000  Uiso   1.00
C456   C     0.49945   0.75341   0.25181   0.00000  Uiso   1.00
C457   C     0.52587   0.83304   0.14834   0.00000  Uiso   1.00
C458   C     0.59769   0.84032   0.00341   0.00000  Uiso   1.00
C459   C     0.54080   0.82951   0.09070   0.00000  Uiso   1.00
C460   C     0.41383   0.80488   0.43524   0.00000  Uiso   1.00
C461   C     0.40034   0.79718   0.48998   0.00000  Uiso   1.00
C462   C     0.43414   0.79830   0.01674   0.00000  Uiso   1.00
H463   H     0.60944   0.85859   0.07673   0.00000  Uiso   1.00
H464   H     0.56863   0.70768   0.19350   0.00000  Uiso   1.00
H465   H     0.43131   0.95884   0.30580   0.00000  Uiso   1.00
H466   H     0.64074   0.78554   0.19168   0.00000  Uiso   1.00
H467   H     0.39148   0.78559   0.19160   0.00000  Uiso   1.00
H468   H     0.35989   0.88083   0.30826   0.00000  Uiso   1.00
H469   H     0.61675   0.81268   0.40167   0.00000  Uiso   1.00
H470   H     0.47429   0.80267   0.09374   0.00000  Uiso   1.00
H471   H     0.38682   0.80631   0.41556   0.00000  Uiso   1.00
H472   H     0.42063   0.79555   0.05968   0.00000  Uiso   1.00
H473   H     0.36315   0.79267   0.01229   0.00000  Uiso   1.00
H474   H     0.55848   0.78844   0.36234   0.00000  Uiso   1.00
N475   N     0.38093   0.83334   0.25002   0.00000  Uiso   1.00
N476   N     0.61906   0.83331   0.25001   0.00000  Uiso   1.00
O477   O     0.46179   0.89442   0.25001   0.00000  Uiso   1.00
O478   O     0.53823   0.89441   0.25001   0.00000  Uiso   1.00
O479   O     0.44280   0.83333   0.32681   0.00000  Uiso   1.00
O480   O     0.51924   0.83332   0.32681   0.00000  Uiso   1.00
O481   O     0.46177   0.77226   0.25000   0.00000  Uiso   1.00
O482   O     0.53821   0.77225   0.25000   0.00000  Uiso   1.00
O483   O     0.48076   0.83335   0.17319   0.00000  Uiso   1.00
O484   O     0.55720   0.83334   0.17319   0.00000  Uiso   1.00
Zn485  Zn    0.44896   0.83334   0.25000   0.00000  Uiso   1.00
Zn486  Zn    0.55104   0.83333   0.25000   0.00000  Uiso   1.00
C487   C     0.41745   0.70605   0.32443   0.00000  Uiso   1.00
O488   O     0.42187   0.73760   0.34850   0.00000  Uiso   1.00
O489   O     0.37277   0.68716   0.33558   0.00000  Uiso   1.00
H490   H     0.34699   0.70299   0.36347   0.00000  Uiso   1.00
Br491  Br    0.59240   0.89899   0.32917   0.00000  Uiso   1.00
Br492  Br    0.65324   0.86974   0.46113   0.00000  Uiso   1.00
C493   C     0.58157   0.96022   0.17357   0.00000  Uiso   1.00
O494   O     0.57639   0.92854   0.15006   0.00000  Uiso   1.00
O495   O     0.62639   0.97905   0.16090   0.00000  Uiso   1.00
H496   H     0.65161   0.96314   0.13248   0.00000  Uiso   1.00
C497   C     0.83391   0.91321   0.24800   0.00000  Uiso   1.00
C498   C     0.81641   0.80353   0.48796   0.00000  Uiso   1.00
C499   C     0.83022   0.80412   0.43164   0.00000  Uiso   1.00
C500   C     0.85197   0.81160   0.01251   0.00000  Uiso   1.00
C501   C     0.89915   0.82141   0.48036   0.00000  Uiso   1.00
C502   C     0.91312   0.81148   0.42622   0.00000  Uiso   1.00
C503   C     0.87912   0.79958   0.40311   0.00000  Uiso   1.00
C504   C     0.84139   0.81347   0.06769   0.00000  Uiso   1.00
C505   C     0.91856   0.84374   0.05880   0.00000  Uiso   1.00
C506   C     0.79504   0.81117   0.40619   0.00000  Uiso   1.00
C507   C     0.87354   0.97981   0.21407   0.00000  Uiso   1.00
C508   C     0.80811   0.82681   0.35072   0.00000  Uiso   1.00
C509   C     0.87251   0.68936   0.21866   0.00000  Uiso   1.00
C510   C     0.83260   0.70918   0.25304   0.00000  Uiso   1.00
C511   C     0.79286   0.68667   0.28490   0.00000  Uiso   1.00
C512   C     0.79411   0.97716   0.28065   0.00000  Uiso   1.00
C513   C     0.83404   0.95737   0.24643   0.00000  Uiso   1.00
C514   C     0.98497   0.80677   0.21762   0.00000  Uiso   1.00
C515   C     0.69955   0.80681   0.21760   0.00000  Uiso   1.00
C516   C     0.68196   0.85975   0.28241   0.00000  Uiso   1.00
C517   C     0.96754   0.85997   0.28247   0.00000  Uiso   1.00
C518   C     0.83279   0.75341   0.25181   0.00000  Uiso   1.00
C519   C     0.85921   0.83304   0.14834   0.00000  Uiso   1.00
C520   C     0.93102   0.84032   0.00341   0.00000  Uiso   1.00
C521   C     0.87413   0.82951   0.09070   0.00000  Uiso   1.00
C522   C     0.74716   0.80488   0.43524   0.00000  Uiso   1.00
C523   C     0.73368   0.79718   0.48998   0.00000  Uiso   1.00
C524   C     0.76747   0.79830   0.01674   0.00000  Uiso   1.00
H525   H     0.94277   0.85859   0.07673   0.00000  Uiso   1.00
H526   H     0.90196   0.70768   0.19350   0.00000  Uiso   1.00
H527   H     0.76464   0.95884   0.30580   0.00000  Uiso   1.00
H528   H     0.97407   0.78554   0.19168   0.00000  Uiso   1.00
H529   H     0.72481   0.78559   0.19160   0.00000  Uiso   1.00
H530   H     0.69322   0.88083   0.30826   0.00000  Uiso   1.00
H531   H     0.95008   0.81268   0.40167   0.00000  Uiso   1.00
H532   H     0.80762   0.80267   0.09374   0.00000  Uiso   1.00
H533   H     0.72015   0.80631   0.41556   0.00000  Uiso   1.00
H534   H     0.75396   0.79555   0.05968   0.00000  Uiso   1.00
H535   H     0.69648   0.79267   0.01229   0.00000  Uiso   1.00
H536   H     0.89181   0.78844   0.36234   0.00000  Uiso   1.00
N537   N     0.71426   0.83334   0.25002   0.00000  Uiso   1.00
N538   N     0.95239   0.83331   0.25001   0.00000  Uiso   1.00
O539   O     0.79512   0.89442   0.25001   0.00000  Uiso   1.00
O540   O     0.87157   0.89441   0.25001   0.00000  Uiso   1.00
O541   O     0.77613   0.83333   0.32681   0.00000  Uiso   1.00
O542   O     0.85258   0.83332   0.32681   0.00000  Uiso   1.00
O543   O     0.79510   0.77226   0.25000   0.00000  Uiso   1.00
O544   O     0.87154   0.77225   0.25000   0.00000  Uiso   1.00
O545   O     0.81409   0.83335   0.17319   0.00000  Uiso   1.00
O546   O     0.89053   0.83334   0.17319   0.00000  Uiso   1.00
Zn547  Zn    0.78229   0.83334   0.25000   0.00000  Uiso   1.00
Zn548  Zn    0.88438   0.83333   0.25000   0.00000  Uiso   1.00
C549   C     0.75079   0.70605   0.32443   0.00000  Uiso   1.00
O550   O     0.75521   0.73760   0.34850   0.00000  Uiso   1.00
O551   O     0.70611   0.68716   0.33558   0.00000  Uiso   1.00
H552   H     0.68033   0.70299   0.36347   0.00000  Uiso   1.00
Br553  Br    0.92574   0.89899   0.32917   0.00000  Uiso   1.00
Br554  Br    0.98657   0.86974   0.46113   0.00000  Uiso   1.00
C555   C     0.91491   0.96022   0.17357   0.00000  Uiso   1.00
O556   O     0.90973   0.92854   0.15006   0.00000  Uiso   1.00
O557   O     0.95972   0.97905   0.16090   0.00000  Uiso   1.00
H558   H     0.98494   0.96314   0.13248   0.00000  Uiso   1.00
C559   C     0.16725   0.24654   0.74800   0.00000  Uiso   1.00
C560   C     0.14975   0.13687   0.98796   0.00000  Uiso   1.00
C561   C     0.16355   0.13746   0.93164   0.00000  Uiso   1.00
C562   C     0.18530   0.14494   0.51251   0.00000  Uiso   1.00
C563   C     0.23248   0.15474   0.98036   0.00000  Uiso   1.00
C564   C     0.24646   0.14482   0.92622   0.00000  Uiso   1.00
C565   C     0.21246   0.13292   0.90311   0.00000  Uiso   1.00
C566   C     0.17473   0.14680   0.56769   0.00000  Uiso   1.00
C567   C     0.25190   0.17708   0.55880   0.00000  Uiso   1.00
C568   C     0.12837   0.14450   0.90619   0.00000  Uiso   1.00
C569   C     0.20687   0.31315   0.71407   0.00000  Uiso   1.00
C570   C     0.14144   0.16015   0.85072   0.00000  Uiso   1.00
C571   C     0.20584   0.02269   0.71866   0.00000  Uiso   1.00
C572   C     0.16593   0.04251   0.75304   0.00000  Uiso   1.00
C573   C     0.12620   0.02000   0.78490   0.00000  Uiso   1.00
C574   C     0.12744   0.31049   0.78065   0.00000  Uiso   1.00
C575   C     0.16738   0.29070   0.74643   0.00000  Uiso   1.00
C576   C     0.31831   0.14010   0.71762   0.00000  Uiso   1.00
C577   C     0.03288   0.14014   0.71760   0.00000  Uiso   1.00
C578   C     0.01529   0.19308   0.78241   0.00000  Uiso   1.00
C579   C     0.30088   0.19330   0.78247   0.00000  Uiso   1.00
C580   C     0.16612   0.08674   0.75181   0.00000  Uiso   1.00
C581   C     0.19254   0.16637   0.64834   0.00000  Uiso   1.00
C582   C     0.26435   0.17366   0.50341   0.00000  Uiso   1.00
C583   C     0.20747   0.16285   0.59070   0.00000  Uiso   1.00
C584   C     0.08050   0.13821   0.93524   0.00000  Uiso   1.00
C585   C     0.06701   0.13051   0.98998   0.00000  Uiso   1.00
C586   C     0.10081   0.13163   0.51674   0.00000  Uiso   1.00
H587   H     0.27611   0.19192   0.57673   0.00000  Uiso   1.00
H588   H     0.23530   0.04101   0.69350   0.00000  Uiso   1.00
H589   H     0.09798   0.29218   0.80580   0.00000  Uiso   1.00
H590   H     0.30740   0.11887   0.69168   0.00000  Uiso   1.00
H591   H     0.05814   0.11893   0.69160   0.00000  Uiso   1.00
H592   H     0.02655   0.21416   0.80826   0.00000  Uiso   1.00
H593   H     0.28342   0.14601   0.90167   0.00000  Uiso   1.00
H594   H     0.14095   0.13600   0.59374   0.00000  Uiso   1.00
H595   H     0.05349   0.13964   0.91556   0.00000  Uiso   1.00
H596   H     0.08729   0.12888   0.55968   0.00000  Uiso   1.00
H597   H     0.02982   0.12600   0.51229   0.00000  Uiso   1.00
H598   H     0.22514   0.12177   0.86234   0.00000  Uiso   1.00
N599   N     0.04760   0.16668   0.75002   0.00000  Uiso   1.00
N600   N     0.28573   0.16665   0.75001   0.00000  Uiso   1.00
O601   O     0.12846   0.22775   0.75001   0.00000  Uiso   1.00
O602   O     0.20490   0.22774   0.75001   0.00000  Uiso   1.00
O603   O     0.10947   0.16666   0.82681   0.00000  Uiso   1.00
O604   O     0.18591   0.16665   0.82681   0.00000  Uiso   1.00
O605   O     0.12843   0.10559   0.75000   0.00000  Uiso   1.00
O606   O     0.20488   0.10558   0.75000   0.00000  Uiso   1.00
O607   O     0.14742   0.16668   0.67319   0.00000  Uiso   1.00
O608   O     0.22387   0.16667   0.67319   0.00000  Uiso   1.00
Zn609  Zn    0.11562   0.16667   0.75000   0.00000  Uiso   1.00
Zn610  Zn    0.21771   0.16666   0.75000   0.00000  Uiso   1.00
C611   C     0.08412   0.03938   0.82443   0.00000  Uiso   1.00
O612   O     0.08854   0.07094   0.84850   0.00000  Uiso   1.00
O613   O     0.03944   0.02050   0.83558   0.00000  Uiso   1.00
H614   H     0.01366   0.03632   0.86347   0.00000  Uiso   1.00
Br615  Br    0.25907   0.23232   0.82917   0.00000  Uiso   1.00
Br616  Br    0.31990   0.20307   0.96113   0.00000  Uiso   1.00
C617   C     0.24824   0.29355   0.67357   0.00000  Uiso   1.00
O618   O     0.24306   0.26187   0.65006   0.00000  Uiso   1.00
O619   O     0.29306   0.31239   0.66090   0.00000  Uiso   1.00
H620   H     0.31828   0.29647   0.63248   0.00000  Uiso   1.00
C621   C     0.50058   0.24654   0.74800   0.00000  Uiso   1.00
C622   C     0.48308   0.13687   0.98796   0.00000  Uiso   1.00
C623   C     0.49688   0.13746   0.93164   0.00000  Uiso   1.00
C624   C     0.51864   0.14494   0.51251   0.00000  Uiso   1.00
C625   C     0.56582   0.15474   0.98036   0.00000  Uiso   1.00
C626   C     0.57979   0.14482   0.92622   0.00000  Uiso   1.00
C627   C     0.54579   0.13292   0.90311   0.00000  Uiso   1.00
C628   C     0.50806   0.14680   0.56769   0.00000  Uiso   1.00
C629   C     0.58523   0.17708   0.55880   0.00000  Uiso   1.00
C630   C     0.46171   0.14450   0.90619   0.00000  Uiso   1.00
C631   C     0.54021   0.31315   0.71407   0.00000  Uiso   1.00
C632   C     0.47478   0.16015   0.85072   0.00000  Uiso   1.00
C633   C     0.53917   0.02269   0.71866   0.00000  Uiso   1.00
C634   C     0.49927   0.04251   0.75304   0.00000  Uiso   1.00
C635   C     0.45953   0.02000   0.78490   0.00000  Uiso   1.00
C636   C     0.46078   0.31049   0.78065   0.00000  Uiso   1.00
C637   C     0.50071   0.29070   0.74643   0.00000  Uiso   1.00
C638   C     0.65164   0.14010   0.71762   0.00000  Uiso   1.00
C639   C     0.36621   0.14014   0.71760   0.00000  Uiso   1.00
C640   C     0.34863   0.19308   0.78241   0.00000  Uiso   1.00
C641   C     0.63421   0.19330   0.78247   0.00000  Uiso   1.00
C642   C     0.49945   0.08674   0.75181   0.00000  Uiso   1.00
C643   C     0.52587   0.16637   0.64834   0.00000  Uiso   1.00
C644   C     0.59769   0.17366   0.50341   0.00000  Uiso   1.00
C645   C     0.54080   0.16285   0.59070   0.00000  Uiso   1.00
C646   C     0.41383   0.13821   0.93524   0.00000  Uiso   1.00
C647   C     0.40034   0.13051   0.98998   0.00000  Uiso   1.00
C648   C     0.43414   0.13163   0.51674   0.00000  Uiso   1.00
H649   H     0.60944   0.19192   0.57673   0.00000  Uiso   1.00
H650   H     0.56863   0.04101   0.69350   0.00000  Uiso   1.00
H651   H     0.43131   0.29218   0.80580   0.00000  Uiso   1.00
H652   H     0.64074   0.11887   0.69168   0.00000  Uiso   1.00
H653   H     0.39148   0.11893   0.69160   0.00000  Uiso   1.00
H654   H     0.35989   0.21416   0.80826   0.00000  Uiso   1.00
H655   H     0.61675   0.14601   0.90167   0.00000  Uiso   1.00
H656   H     0.47429   0.13600   0.59374   0.00000  Uiso   1.00
H657   H     0.38682   0.13964   0.91556   0.00000  Uiso   1.00
H658   H     0.42063   0.12888   0.55968   0.00000  Uiso   1.00
H659   H     0.36315   0.12600   0.51229   0.00000  Uiso   1.00
H660   H     0.55848   0.12177   0.86234   0.00000  Uiso   1.00
N661   N     0.38093   0.16668   0.75002   0.00000  Uiso   1.00
N662   N     0.61906   0.16665   0.75001   0.00000  Uiso   1.00
O663   O     0.46179   0.22775   0.75001   0.00000  Uiso   1.00
O664   O     0.53823   0.22774   0.75001   0.00000  Uiso   1.00
O665   O     0.44280   0.16666   0.82681   0.00000  Uiso   1.00
O666   O     0.51924   0.16665   0.82681   0.00000  Uiso   1.00
O667   O     0.46177   0.10559   0.75000   0.00000  Uiso   1.00
O668   O     0.53821   0.10558   0.75000   0.00000  Uiso   1.00
O669   O     0.48076   0.16668   0.67319   0.00000  Uiso   1.00
O670   O     0.55720   0.16667   0.67319   0.00000  Uiso   1.00
Zn671  Zn    0.44896   0.16667   0.75000   0.00000  Uiso   1.00
Zn672  Zn    0.55104   0.16666   0.75000   0.00000  Uiso   1.00
C673   C     0.41745   0.03938   0.82443   0.00000  Uiso   1.00
O674   O     0.42187   0.07094   0.84850   0.00000  Uiso   1.00
O675   O     0.37277   0.02050   0.83558   0.00000  Uiso   1.00
H676   H     0.34699   0.03632   0.86347   0.00000  Uiso   1.00
Br677  Br    0.59240   0.23232   0.82917   0.00000  Uiso   1.00
Br678  Br    0.65324   0.20307   0.96113   0.00000  Uiso   1.00
C679   C     0.58157   0.29355   0.67357   0.00000  Uiso   1.00
O680   O     0.57639   0.26187   0.65006   0.00000  Uiso   1.00
O681   O     0.62639   0.31239   0.66090   0.00000  Uiso   1.00
H682   H     0.65161   0.29647   0.63248   0.00000  Uiso   1.00
C683   C     0.83391   0.24654   0.74800   0.00000  Uiso   1.00
C684   C     0.81641   0.13687   0.98796   0.00000  Uiso   1.00
C685   C     0.83022   0.13746   0.93164   0.00000  Uiso   1.00
C686   C     0.85197   0.14494   0.51251   0.00000  Uiso   1.00
C687   C     0.89915   0.15474   0.98036   0.00000  Uiso   1.00
C688   C     0.91312   0.14482   0.92622   0.00000  Uiso   1.00
C689   C     0.87912   0.13292   0.90311   0.00000  Uiso   1.00
C690   C     0.84139   0.14680   0.56769   0.00000  Uiso   1.00
C691   C     0.91856   0.17708   0.55880   0.00000  Uiso   1.00
C692   C     0.79504   0.14450   0.90619   0.00000  Uiso   1.00
C693   C     0.87354   0.31315   0.71407   0.00000  Uiso   1.00
C694   C     0.80811   0.16015   0.85072   0.00000  Uiso   1.00
C695   C     0.87251   0.02269   0.71866   0.00000  Uiso   1.00
C696   C     0.83260   0.04251   0.75304   0.00000  Uiso   1.00
C697   C     0.79286   0.02000   0.78490   0.00000  Uiso   1.00
C698   C     0.79411   0.31049   0.78065   0.00000  Uiso   1.00
C699   C     0.83404   0.29070   0.74643   0.00000  Uiso   1.00
C700   C     0.98497   0.14010   0.71762   0.00000  Uiso   1.00
C701   C     0.69955   0.14014   0.71760   0.00000  Uiso   1.00
C702   C     0.68196   0.19308   0.78241   0.00000  Uiso   1.00
C703   C     0.96754   0.19330   0.78247   0.00000  Uiso   1.00
C704   C     0.83279   0.08674   0.75181   0.00000  Uiso   1.00
C705   C     0.85921   0.16637   0.64834   0.00000  Uiso   1.00
C706   C     0.93102   0.17366   0.50341   0.00000  Uiso   1.00
C707   C     0.87413   0.16285   0.59070   0.00000  Uiso   1.00
C708   C     0.74716   0.13821   0.93524   0.00000  Uiso   1.00
C709   C     0.73368   0.13051   0.98998   0.00000  Uiso   1.00
C710   C     0.76747   0.13163   0.51674   0.00000  Uiso   1.00
H711   H     0.94277   0.19192   0.57673   0.00000  Uiso   1.00
H712   H     0.90196   0.04101   0.69350   0.00000  Uiso   1.00
H713   H     0.76464   0.29218   0.80580   0.00000  Uiso   1.00
H714   H     0.97407   0.11887   0.69168   0.00000  Uiso   1.00
H715   H     0.72481   0.11893   0.69160   0.00000  Uiso   1.00
H716   H     0.69322   0.21416   0.80826   0.00000  Uiso   1.00
H717   H     0.95008   0.14601   0.90167   0.00000  Uiso   1.00
H718   H     0.80762   0.13600   0.59374   0.00000  Uiso   1.00
H719   H     0.72015   0.13964   0.91556   0.00000  Uiso   1.00
H720   H     0.75396   0.12888   0.55968   0.00000  Uiso   1.00
H721   H     0.69648   0.12600   0.51229   0.00000  Uiso   1.00
H722   H     0.89181   0.12177   0.86234   0.00000  Uiso   1.00
N723   N     0.71426   0.16668   0.75002   0.00000  Uiso   1.00
N724   N     0.95239   0.16665   0.75001   0.00000  Uiso   1.00
O725   O     0.79512   0.22775   0.75001   0.00000  Uiso   1.00
O726   O     0.87157   0.22774   0.75001   0.00000  Uiso   1.00
O727   O     0.77613   0.16666   0.82681   0.00000  Uiso   1.00
O728   O     0.85258   0.16665   0.82681   0.00000  Uiso   1.00
O729   O     0.79510   0.10559   0.75000   0.00000  Uiso   1.00
O730   O     0.87154   0.10558   0.75000   0.00000  Uiso   1.00
O731   O     0.81409   0.16668   0.67319   0.00000  Uiso   1.00
O732   O     0.89053   0.16667   0.67319   0.00000  Uiso   1.00
Zn733  Zn    0.78229   0.16667   0.75000   0.00000  Uiso   1.00
Zn734  Zn    0.88438   0.16666   0.75000   0.00000  Uiso   1.00
C735   C     0.75079   0.03938   0.82443   0.00000  Uiso   1.00
O736   O     0.75521   0.07094   0.84850   0.00000  Uiso   1.00
O737   O     0.70611   0.02050   0.83558   0.00000  Uiso   1.00
H738   H     0.68033   0.03632   0.86347   0.00000  Uiso   1.00
Br739  Br    0.92574   0.23232   0.82917   0.00000  Uiso   1.00
Br740  Br    0.98657   0.20307   0.96113   0.00000  Uiso   1.00
C741   C     0.91491   0.29355   0.67357   0.00000  Uiso   1.00
O742   O     0.90973   0.26187   0.65006   0.00000  Uiso   1.00
O743   O     0.95972   0.31239   0.66090   0.00000  Uiso   1.00
H744   H     0.98494   0.29647   0.63248   0.00000  Uiso   1.00
C745   C     0.16725   0.57987   0.74800   0.00000  Uiso   1.00
C746   C     0.14975   0.47020   0.98796   0.00000  Uiso   1.00
C747   C     0.16355   0.47079   0.93164   0.00000  Uiso   1.00
C748   C     0.18530   0.47827   0.51251   0.00000  Uiso   1.00
C749   C     0.23248   0.48807   0.98036   0.00000  Uiso   1.00
C750   C     0.24646   0.47815   0.92622   0.00000  Uiso   1.00
C751   C     0.21246   0.46625   0.90311   0.00000  Uiso   1.00
C752   C     0.17473   0.48014   0.56769   0.00000  Uiso   1.00
C753   C     0.25190   0.51041   0.55880   0.00000  Uiso   1.00
C754   C     0.12837   0.47784   0.90619   0.00000  Uiso   1.00
C755   C     0.20687   0.64648   0.71407   0.00000  Uiso   1.00
C756   C     0.14144   0.49348   0.85072   0.00000  Uiso   1.00
C757   C     0.20584   0.35603   0.71866   0.00000  Uiso   1.00
C758   C     0.16593   0.37585   0.75304   0.00000  Uiso   1.00
C759   C     0.12620   0.35333   0.78490   0.00000  Uiso   1.00
C760   C     0.12744   0.64382   0.78065   0.00000  Uiso   1.00
C761   C     0.16738   0.62403   0.74643   0.00000  Uiso   1.00
C762   C     0.31831   0.47344   0.71762   0.00000  Uiso   1.00
C763   C     0.03288   0.47348   0.71760   0.00000  Uiso   1.00
C764   C     0.01529   0.52641   0.78241   0.00000  Uiso   1.00
C765   C     0.30088   0.52663   0.78247   0.00000  Uiso   1.00
C766   C     0.16612   0.42007   0.75181   0.00000  Uiso   1.00
C767   C     0.19254   0.49970   0.64834   0.00000  Uiso   1.00
C768   C     0.26435   0.50699   0.50341   0.00000  Uiso   1.00
C769   C     0.20747   0.49618   0.59070   0.00000  Uiso   1.00
C770   C     0.08050   0.47154   0.93524   0.00000  Uiso   1.00
C771   C     0.06701   0.46384   0.98998   0.00000  Uiso   1.00
C772   C     0.10081   0.46496   0.51674   0.00000  Uiso   1.00
H773   H     0.27611   0.52525   0.57673   0.00000  Uiso   1.00
H774   H     0.23530   0.37434   0.69350   0.00000  Uiso   1.00
H775   H     0.09798   0.62551   0.80580   0.00000  Uiso   1.00
H776   H     0.30740   0.45220   0.69168   0.00000  Uiso   1.00
H777   H     0.05814   0.45226   0.69160   0.00000  Uiso   1.00
H778   H     0.02655   0.54750   0.80826   0.00000  Uiso   1.00
H779   H     0.28342   0.47934   0.90167   0.00000  Uiso   1.00
H780   H     0.14095   0.46933   0.59374   0.00000  Uiso   1.00
H781   H     0.05349   0.47297   0.91556   0.00000  Uiso   1.00
H782   H     0.08729   0.46222   0.55968   0.00000  Uiso   1.00
H783   H     0.02982   0.45934   0.51229   0.00000  Uiso   1.00
H784   H     0.22514   0.45511   0.86234   0.00000  Uiso   1.00
N785   N     0.04760   0.50001   0.75002   0.00000  Uiso   1.00
N786   N     0.28573   0.49998   0.75001   0.00000  Uiso   1.00
O787   O     0.12846   0.56108   0.75001   0.00000  Uiso   1.00
O788   O     0.20490   0.56107   0.75001   0.00000  Uiso   1.00
O789   O     0.10947   0.50000   0.82681   0.00000  Uiso   1.00
O790   O     0.18591   0.49999   0.82681   0.00000  Uiso   1.00
O791   O     0.12843   0.43893   0.75000   0.00000  Uiso   1.00
O792   O     0.20488   0.43892   0.75000   0.00000  Uiso   1.00
O793   O     0.14742   0.50001   0.67319   0.00000  Uiso   1.00
O794   O     0.22387   0.50000   0.67319   0.00000  Uiso   1.00
Zn795  Zn    0.11562   0.50001   0.75000   0.00000  Uiso   1.00
Zn796  Zn    0.21771   0.49999   0.75000   0.00000  Uiso   1.00
C797   C     0.08412   0.37272   0.82443   0.00000  Uiso   1.00
O798   O     0.08854   0.40427   0.84850   0.00000  Uiso   1.00
O799   O     0.03944   0.35383   0.83558   0.00000  Uiso   1.00
H800   H     0.01366   0.36966   0.86347   0.00000  Uiso   1.00
Br801  Br    0.25907   0.56566   0.82917   0.00000  Uiso   1.00
Br802  Br    0.31990   0.53641   0.96113   0.00000  Uiso   1.00
C803   C     0.24824   0.62689   0.67357   0.00000  Uiso   1.00
O804   O     0.24306   0.59521   0.65006   0.00000  Uiso   1.00
O805   O     0.29306   0.64572   0.66090   0.00000  Uiso   1.00
H806   H     0.31828   0.62980   0.63248   0.00000  Uiso   1.00
C807   C     0.50058   0.57987   0.74800   0.00000  Uiso   1.00
C808   C     0.48308   0.47020   0.98796   0.00000  Uiso   1.00
C809   C     0.49688   0.47079   0.93164   0.00000  Uiso   1.00
C810   C     0.51864   0.47827   0.51251   0.00000  Uiso   1.00
C811   C     0.56582   0.48807   0.98036   0.00000  Uiso   1.00
C812   C     0.57979   0.47815   0.92622   0.00000  Uiso   1.00
C813   C     0.54579   0.46625   0.90311   0.00000  Uiso   1.00
C814   C     0.50806   0.48014   0.56769   0.00000  Uiso   1.00
C815   C     0.58523   0.51041   0.55880   0.00000  Uiso   1.00
C816   C     0.46171   0.47784   0.90619   0.00000  Uiso   1.00
C817   C     0.54021   0.64648   0.71407   0.00000  Uiso   1.00
C818   C     0.47478   0.49348   0.85072   0.00000  Uiso   1.00
C819   C     0.53917   0.35603   0.71866   0.00000  Uiso   1.00
C820   C     0.49927   0.37585   0.75304   0.00000  Uiso   1.00
C821   C     0.45953   0.35333   0.78490   0.00000  Uiso   1.00
C822   C     0.46078   0.64382   0.78065   0.00000  Uiso   1.00
C823   C     0.50071   0.62403   0.74643   0.00000  Uiso   1.00
C824   C     0.65164   0.47344   0.71762   0.00000  Uiso   1.00
C825   C     0.36621   0.47348   0.71760   0.00000  Uiso   1.00
C826   C     0.34863   0.52641   0.78241   0.00000  Uiso   1.00
C827   C     0.63421   0.52663   0.78247   0.00000  Uiso   1.00
C828   C     0.49945   0.42007   0.75181   0.00000  Uiso   1.00
C829   C     0.52587   0.49970   0.64834   0.00000  Uiso   1.00
C830   C     0.59769   0.50699   0.50341   0.00000  Uiso   1.00
C831   C     0.54080   0.49618   0.59070   0.00000  Uiso   1.00
C832   C     0.41383   0.47154   0.93524   0.00000  Uiso   1.00
C833   C     0.40034   0.46384   0.98998   0.00000  Uiso   1.00
C834   C     0.43414   0.46496   0.51674   0.00000  Uiso   1.00
H835   H     0.60944   0.52525   0.57673   0.00000  Uiso   1.00
H836   H     0.56863   0.37434   0.69350   0.00000  Uiso   1.00
H837   H     0.43131   0.62551   0.80580   0.00000  Uiso   1.00
H838   H     0.64074   0.45220   0.69168   0.00000  Uiso   1.00
H839   H     0.39148   0.45226   0.69160   0.00000  Uiso   1.00
H840   H     0.35989   0.54750   0.80826   0.00000  Uiso   1.00
H841   H     0.61675   0.47934   0.90167   0.00000  Uiso   1.00
H842   H     0.47429   0.46933   0.59374   0.00000  Uiso   1.00
H843   H     0.38682   0.47297   0.91556   0.00000  Uiso   1.00
H844   H     0.42063   0.46222   0.55968   0.00000  Uiso   1.00
H845   H     0.36315   0.45934   0.51229   0.00000  Uiso   1.00
H846   H     0.55848   0.45511   0.86234   0.00000  Uiso   1.00
N847   N     0.38093   0.50001   0.75002   0.00000  Uiso   1.00
N848   N     0.61906   0.49998   0.75001   0.00000  Uiso   1.00
O849   O     0.46179   0.56108   0.75001   0.00000  Uiso   1.00
O850   O     0.53823   0.56107   0.75001   0.00000  Uiso   1.00
O851   O     0.44280   0.50000   0.82681   0.00000  Uiso   1.00
O852   O     0.51924   0.49999   0.82681   0.00000  Uiso   1.00
O853   O     0.46177   0.43893   0.75000   0.00000  Uiso   1.00
O854   O     0.53821   0.43892   0.75000   0.00000  Uiso   1.00
O855   O     0.48076   0.50001   0.67319   0.00000  Uiso   1.00
O856   O     0.55720   0.50000   0.67319   0.00000  Uiso   1.00
Zn857  Zn    0.44896   0.50001   0.75000   0.00000  Uiso   1.00
Zn858  Zn    0.55104   0.49999   0.75000   0.00000  Uiso   1.00
C859   C     0.41745   0.37272   0.82443   0.00000  Uiso   1.00
O860   O     0.42187   0.40427   0.84850   0.00000  Uiso   1.00
O861   O     0.37277   0.35383   0.83558   0.00000  Uiso   1.00
H862   H     0.34699   0.36966   0.86347   0.00000  Uiso   1.00
Br863  Br    0.59240   0.56566   0.82917   0.00000  Uiso   1.00
Br864  Br    0.65324   0.53641   0.96113   0.00000  Uiso   1.00
C865   C     0.58157   0.62689   0.67357   0.00000  Uiso   1.00
O866   O     0.57639   0.59521   0.65006   0.00000  Uiso   1.00
O867   O     0.62639   0.64572   0.66090   0.00000  Uiso   1.00
H868   H     0.65161   0.62980   0.63248   0.00000  Uiso   1.00
C869   C     0.83391   0.57987   0.74800   0.00000  Uiso   1.00
C870   C     0.81641   0.47020   0.98796   0.00000  Uiso   1.00
C871   C     0.83022   0.47079   0.93164   0.00000  Uiso   1.00
C872   C     0.85197   0.47827   0.51251   0.00000  Uiso   1.00
C873   C     0.89915   0.48807   0.98036   0.00000  Uiso   1.00
C874   C     0.91312   0.47815   0.92622   0.00000  Uiso   1.00
C875   C     0.87912   0.46625   0.90311   0.00000  Uiso   1.00
C876   C     0.84139   0.48014   0.56769   0.00000  Uiso   1.00
C877   C     0.91856   0.51041   0.55880   0.00000  Uiso   1.00
C878   C     0.79504   0.47784   0.90619   0.00000  Uiso   1.00
C879   C     0.87354   0.64648   0.71407   0.00000  Uiso   1.00
C880   C     0.80811   0.49348   0.85072   0.00000  Uiso   1.00
C881   C     0.87251   0.35603   0.71866   0.00000  Uiso   1.00
C882   C     0.83260   0.37585   0.75304   0.00000  Uiso   1.00
C883   C     0.79286   0.35333   0.78490   0.00000  Uiso   1.00
C884   C     0.79411   0.64382   0.78065   0.00000  Uiso   1.00
C885   C     0.83404   0.62403   0.74643   0.00000  Uiso   1.00
C886   C     0.98497   0.47344   0.71762   0.00000  Uiso   1.00
C887   C     0.69955   0.47348   0.71760   0.00000  Uiso   1.00
C888   C     0.68196   0.52641   0.78241   0.00000  Uiso   1.00
C889   C     0.96754   0.52663   0.78247   0.00000  Uiso   1.00
C890   C     0.83279   0.42007   0.75181   0.00000  Uiso   1.00
C891   C     0.85921   0.49970   0.64834   0.00000  Uiso   1.00
C892   C     0.93102   0.50699   0.50341   0.00000  Uiso   1.00
C893   C     0.87413   0.49618   0.59070   0.00000  Uiso   1.00
C894   C     0.74716   0.47154   0.93524   0.00000  Uiso   1.00
C895   C     0.73368   0.46384   0.98998   0.00000  Uiso   1.00
C896   C     0.76747   0.46496   0.51674   0.00000  Uiso   1.00
H897   H     0.94277   0.52525   0.57673   0.00000  Uiso   1.00
H898   H     0.90196   0.37434   0.69350   0.00000  Uiso   1.00
H899   H     0.76464   0.62551   0.80580   0.00000  Uiso   1.00
H900   H     0.97407   0.45220   0.69168   0.00000  Uiso   1.00
H901   H     0.72481   0.45226   0.69160   0.00000  Uiso   1.00
H902   H     0.69322   0.54750   0.80826   0.00000  Uiso   1.00
H903   H     0.95008   0.47934   0.90167   0.00000  Uiso   1.00
H904   H     0.80762   0.46933   0.59374   0.00000  Uiso   1.00
H905   H     0.72015   0.47297   0.91556   0.00000  Uiso   1.00
H906   H     0.75396   0.46222   0.55968   0.00000  Uiso   1.00
H907   H     0.69648   0.45934   0.51229   0.00000  Uiso   1.00
H908   H     0.89181   0.45511   0.86234   0.00000  Uiso   1.00
N909   N     0.71426   0.50001   0.75002   0.00000  Uiso   1.00
N910   N     0.95239   0.49998   0.75001   0.00000  Uiso   1.00
O911   O     0.79512   0.56108   0.75001   0.00000  Uiso   1.00
O912   O     0.87157   0.56107   0.75001   0.00000  Uiso   1.00
O913   O     0.77613   0.50000   0.82681   0.00000  Uiso   1.00
O914   O     0.85258   0.49999   0.82681   0.00000  Uiso   1.00
O915   O     0.79510   0.43893   0.75000   0.00000  Uiso   1.00
O916   O     0.87154   0.43892   0.75000   0.00000  Uiso   1.00
O917   O     0.81409   0.50001   0.67319   0.00000  Uiso   1.00
O918   O     0.89053   0.50000   0.67319   0.00000  Uiso   1.00
Zn919  Zn    0.78229   0.50001   0.75000   0.00000  Uiso   1.00
Zn920  Zn    0.88438   0.49999   0.75000   0.00000  Uiso   1.00
C921   C     0.75079   0.37272   0.82443   0.00000  Uiso   1.00
O922   O     0.75521   0.40427   0.84850   0.00000  Uiso   1.00
O923   O     0.70611   0.35383   0.83558   0.00000  Uiso   1.00
H924   H     0.68033   0.36966   0.86347   0.00000  Uiso   1.00
Br925  Br    0.92574   0.56566   0.82917   0.00000  Uiso   1.00
Br926  Br    0.98657   0.53641   0.96113   0.00000  Uiso   1.00
C927   C     0.91491   0.62689   0.67357   0.00000  Uiso   1.00
O928   O     0.90973   0.59521   0.65006   0.00000  Uiso   1.00
O929   O     0.95972   0.64572   0.66090   0.00000  Uiso   1.00
H930   H     0.98494   0.62980   0.63248   0.00000  Uiso   1.00
C931   C     0.16725   0.91321   0.74800   0.00000  Uiso   1.00
C932   C     0.14975   0.80353   0.98796   0.00000  Uiso   1.00
C933   C     0.16355   0.80412   0.93164   0.00000  Uiso   1.00
C934   C     0.18530   0.81160   0.51251   0.00000  Uiso   1.00
C935   C     0.23248   0.82141   0.98036   0.00000  Uiso   1.00
C936   C     0.24646   0.81148   0.92622   0.00000  Uiso   1.00
C937   C     0.21246   0.79958   0.90311   0.00000  Uiso   1.00
C938   C     0.17473   0.81347   0.56769   0.00000  Uiso   1.00
C939   C     0.25190   0.84374   0.55880   0.00000  Uiso   1.00
C940   C     0.12837   0.81117   0.90619   0.00000  Uiso   1.00
C941   C     0.20687   0.97981   0.71407   0.00000  Uiso   1.00
C942   C     0.14144   0.82681   0.85072   0.00000  Uiso   1.00
C943   C     0.20584   0.68936   0.71866   0.00000  Uiso   1.00
C944   C     0.16593   0.70918   0.75304   0.00000  Uiso   1.00
C945   C     0.12620   0.68667   0.78490   0.00000  Uiso   1.00
C946   C     0.12744   0.97716   0.78065   0.00000  Uiso   1.00
C947   C     0.16738   0.95737   0.74643   0.00000  Uiso   1.00
C948   C     0.31831   0.80677   0.71762   0.00000  Uiso   1.00
C949   C     0.03288   0.80681   0.71760   0.00000  Uiso   1.00
C950   C     0.01529   0.85975   0.78241   0.00000  Uiso   1.00
C951   C     0.30088   0.85997   0.78247   0.00000  Uiso   1.00
C952   C     0.16612   0.75341   0.75181   0.00000  Uiso   1.00
C953   C     0.19254   0.83304   0.64834   0.00000  Uiso   1.00
C954   C     0.26435   0.84032   0.50341   0.00000  Uiso   1.00
C955   C     0.20747   0.82951   0.59070   0.00000  Uiso   1.00
C956   C     0.08050   0.80488   0.93524   0.00000  Uiso   1.00
C957   C     0.06701   0.79718   0.98998   0.00000  Uiso   1.00
C958   C     0.10081   0.79830   0.51674   0.00000  Uiso   1.00
H959   H     0.27611   0.85859   0.57673   0.00000  Uiso   1.00
H960   H     0.23530   0.70768   0.69350   0.00000  Uiso   1.00
H961   H     0.09798   0.95884   0.80580   0.00000  Uiso   1.00
H962   H     0.30740   0.78554   0.69168   0.00000  Uiso   1.00
H963   H     0.05814   0.78559   0.69160   0.00000  Uiso   1.00
H964   H     0.02655   0.88083   0.80826   0.00000  Uiso   1.00
H965   H     0.28342   0.81268   0.90167   0.00000  Uiso   1.00
H966   H     0.14095   0.80267   0.59374   0.00000  Uiso   1.00
H967   H     0.05349   0.80631   0.91556   0.00000  Uiso   1.00
H968   H     0.08729   0.79555   0.55968   0.00000  Uiso   1.00
H969   H     0.02982   0.79267   0.51229   0.00000  Uiso   1.00
H970   H     0.22514   0.78844   0.86234   0.00000  Uiso   1.00
N971   N     0.04760   0.83334   0.75002   0.00000  Uiso   1.00
N972   N     0.28573   0.83331   0.75001   0.00000  Uiso   1.00
O973   O     0.12846   0.89442   0.75001   0.00000  Uiso   1.00
O974   O     0.20490   0.89441   0.75001   0.00000  Uiso   1.00
O975   O     0.10947   0.83333   0.82681   0.00000  Uiso   1.00
O976   O     0.18591   0.83332   0.82681   0.00000  Uiso   1.00
O977   O     0.12843   0.77226   0.75000   0.00000  Uiso   1.00
O978   O     0.20488   0.77225   0.75000   0.00000  Uiso   1.00
O979   O     0.14742   0.83335   0.67319   0.00000  Uiso   1.00
O980   O     0.22387   0.83334   0.67319   0.00000  Uiso   1.00
Zn981  Zn    0.11562   0.83334   0.75000   0.00000  Uiso   1.00
Zn982  Zn    0.21771   0.83333   0.75000   0.00000  Uiso   1.00
C983   C     0.08412   0.70605   0.82443   0.00000  Uiso   1.00
O984   O     0.08854   0.73760   0.84850   0.00000  Uiso   1.00
O985   O     0.03944   0.68716   0.83558   0.00000  Uiso   1.00
H986   H     0.01366   0.70299   0.86347   0.00000  Uiso   1.00
Br987  Br    0.25907   0.89899   0.82917   0.00000  Uiso   1.00
Br988  Br    0.31990   0.86974   0.96113   0.00000  Uiso   1.00
C989   C     0.24824   0.96022   0.67357   0.00000  Uiso   1.00
O990   O     0.24306   0.92854   0.65006   0.00000  Uiso   1.00
O991   O     0.29306   0.97905   0.66090   0.00000  Uiso   1.00
H992   H     0.31828   0.96314   0.63248   0.00000  Uiso   1.00
C993   C     0.50058   0.91321   0.74800   0.00000  Uiso   1.00
C994   C     0.48308   0.80353   0.98796   0.00000  Uiso   1.00
C995   C     0.49688   0.80412   0.93164   0.00000  Uiso   1.00
C996   C     0.51864   0.81160   0.51251   0.00000  Uiso   1.00
C997   C     0.56582   0.82141   0.98036   0.00000  Uiso   1.00
C998   C     0.57979   0.81148   0.92622   0.00000  Uiso   1.00
C999   C     0.54579   0.79958   0.90311   0.00000  Uiso   1.00
C1000  C     0.50806   0.81347   0.56769   0.00000  Uiso   1.00
C1001  C     0.58523   0.84374   0.55880   0.00000  Uiso   1.00
C1002  C     0.46171   0.81117   0.90619   0.00000  Uiso   1.00
C1003  C     0.54021   0.97981   0.71407   0.00000  Uiso   1.00
C1004  C     0.47478   0.82681   0.85072   0.00000  Uiso   1.00
C1005  C     0.53917   0.68936   0.71866   0.00000  Uiso   1.00
C1006  C     0.49927   0.70918   0.75304   0.00000  Uiso   1.00
C1007  C     0.45953   0.68667   0.78490   0.00000  Uiso   1.00
C1008  C     0.46078   0.97716   0.78065   0.00000  Uiso   1.00
C1009  C     0.50071   0.95737   0.74643   0.00000  Uiso   1.00
C1010  C     0.65164   0.80677   0.71762   0.00000  Uiso   1.00
C1011  C     0.36621   0.80681   0.71760   0.00000  Uiso   1.00
C1012  C     0.34863   0.85975   0.78241   0.00000  Uiso   1.00
C1013  C     0.63421   0.85997   0.78247   0.00000  Uiso   1.00
C1014  C     0.49945   0.75341   0.75181   0.00000  Uiso   1.00
C1015  C     0.52587   0.83304   0.64834   0.00000  Uiso   1.00
C1016  C     0.59769   0.84032   0.50341   0.00000  Uiso   1.00
C1017  C     0.54080   0.82951   0.59070   0.00000  Uiso   1.00
C1018  C     0.41383   0.80488   0.93524   0.00000  Uiso   1.00
C1019  C     0.40034   0.79718   0.98998   0.00000  Uiso   1.00
C1020  C     0.43414   0.79830   0.51674   0.00000  Uiso   1.00
H1021  H     0.60944   0.85859   0.57673   0.00000  Uiso   1.00
H1022  H     0.56863   0.70768   0.69350   0.00000  Uiso   1.00
H1023  H     0.43131   0.95884   0.80580   0.00000  Uiso   1.00
H1024  H     0.64074   0.78554   0.69168   0.00000  Uiso   1.00
H1025  H     0.39148   0.78559   0.69160   0.00000  Uiso   1.00
H1026  H     0.35989   0.88083   0.80826   0.00000  Uiso   1.00
H1027  H     0.61675   0.81268   0.90167   0.00000  Uiso   1.00
H1028  H     0.47429   0.80267   0.59374   0.00000  Uiso   1.00
H1029  H     0.38682   0.80631   0.91556   0.00000  Uiso   1.00
H1030  H     0.42063   0.79555   0.55968   0.00000  Uiso   1.00
H1031  H     0.36315   0.79267   0.51229   0.00000  Uiso   1.00
H1032  H     0.55848   0.78844   0.86234   0.00000  Uiso   1.00
N1033  N     0.38093   0.83334   0.75002   0.00000  Uiso   1.00
N1034  N     0.61906   0.83331   0.75001   0.00000  Uiso   1.00
O1035  O     0.46179   0.89442   0.75001   0.00000  Uiso   1.00
O1036  O     0.53823   0.89441   0.75001   0.00000  Uiso   1.00
O1037  O     0.44280   0.83333   0.82681   0.00000  Uiso   1.00
O1038  O     0.51924   0.83332   0.82681   0.00000  Uiso   1.00
O1039  O     0.46177   0.77226   0.75000   0.00000  Uiso   1.00
O1040  O     0.53821   0.77225   0.75000   0.00000  Uiso   1.00
O1041  O     0.48076   0.83335   0.67319   0.00000  Uiso   1.00
O1042  O     0.55720   0.83334   0.67319   0.00000  Uiso   1.00
Zn1043 Zn    0.44896   0.83334   0.75000   0.00000  Uiso   1.00
Zn1044 Zn    0.55104   0.83333   0.75000   0.00000  Uiso   1.00
C1045  C     0.41745   0.70605   0.82443   0.00000  Uiso   1.00
O1046  O     0.42187   0.73760   0.84850   0.00000  Uiso   1.00
O1047  O     0.37277   0.68716   0.83558   0.00000  Uiso   1.00
H1048  H     0.34699   0.70299   0.86347   0.00000  Uiso   1.00
Br1049 Br    0.59240   0.89899   0.82917   0.00000  Uiso   1.00
Br1050 Br    0.65324   0.86974   0.96113   0.00000  Uiso   1.00
C1051  C     0.58157   0.96022   0.67357   0.00000  Uiso   1.00
O1052  O     0.57639   0.92854   0.65006   0.00000  Uiso   1.00
O1053  O     0.62639   0.97905   0.66090   0.00000  Uiso   1.00
H1054  H     0.65161   0.96314   0.63248   0.00000  Uiso   1.00
C1055  C     0.83391   0.91321   0.74800   0.00000  Uiso   1.00
C1056  C     0.81641   0.80353   0.98796   0.00000  Uiso   1.00
C1057  C     0.83022   0.80412   0.93164   0.00000  Uiso   1.00
C1058  C     0.85197   0.81160   0.51251   0.00000  Uiso   1.00
C1059  C     0.89915   0.82141   0.98036   0.00000  Uiso   1.00
C1060  C     0.91312   0.81148   0.92622   0.00000  Uiso   1.00
C1061  C     0.87912   0.79958   0.90311   0.00000  Uiso   1.00
C1062  C     0.84139   0.81347   0.56769   0.00000  Uiso   1.00
C1063  C     0.91856   0.84374   0.55880   0.00000  Uiso   1.00
C1064  C     0.79504   0.81117   0.90619   0.00000  Uiso   1.00
C1065  C     0.87354   0.97981   0.71407   0.00000  Uiso   1.00
C1066  C     0.80811   0.82681   0.85072   0.00000  Uiso   1.00
C1067  C     0.87251   0.68936   0.71866   0.00000  Uiso   1.00
C1068  C     0.83260   0.70918   0.75304   0.00000  Uiso   1.00
C1069  C     0.79286   0.68667   0.78490   0.00000  Uiso   1.00
C1070  C     0.79411   0.97716   0.78065   0.00000  Uiso   1.00
C1071  C     0.83404   0.95737   0.74643   0.00000  Uiso   1.00
C1072  C     0.98497   0.80677   0.71762   0.00000  Uiso   1.00
C1073  C     0.69955   0.80681   0.71760   0.00000  Uiso   1.00
C1074  C     0.68196   0.85975   0.78241   0.00000  Uiso   1.00
C1075  C     0.96754   0.85997   0.78247   0.00000  Uiso   1.00
C1076  C     0.83279   0.75341   0.75181   0.00000  Uiso   1.00
C1077  C     0.85921   0.83304   0.64834   0.00000  Uiso   1.00
C1078  C     0.93102   0.84032   0.50341   0.00000  Uiso   1.00
C1079  C     0.87413   0.82951   0.59070   0.00000  Uiso   1.00
C1080  C     0.74716   0.80488   0.93524   0.00000  Uiso   1.00
C1081  C     0.73368   0.79718   0.98998   0.00000  Uiso   1.00
C1082  C     0.76747   0.79830   0.51674   0.00000  Uiso   1.00
H1083  H     0.94277   0.85859   0.57673   0.00000  Uiso   1.00
H1084  H     0.90196   0.70768   0.69350   0.00000  Uiso   1.00
H1085  H     0.76464   0.95884   0.80580   0.00000  Uiso   1.00
H1086  H     0.97407   0.78554   0.69168   0.00000  Uiso   1.00
H1087  H     0.72481   0.78559   0.69160   0.00000  Uiso   1.00
H1088  H     0.69322   0.88083   0.80826   0.00000  Uiso   1.00
H1089  H     0.95008   0.81268   0.90167   0.00000  Uiso   1.00
H1090  H     0.80762   0.80267   0.59374   0.00000  Uiso   1.00
H1091  H     0.72015   0.80631   0.91556   0.00000  Uiso   1.00
H1092  H     0.75396   0.79555   0.55968   0.00000  Uiso   1.00
H1093  H     0.69648   0.79267   0.51229   0.00000  Uiso   1.00
H1094  H     0.89181   0.78844   0.86234   0.00000  Uiso   1.00
N1095  N     0.71426   0.83334   0.75002   0.00000  Uiso   1.00
N1096  N     0.95239   0.83331   0.75001   0.00000  Uiso   1.00
O1097  O     0.79512   0.89442   0.75001   0.00000  Uiso   1.00
O1098  O     0.87157   0.89441   0.75001   0.00000  Uiso   1.00
O1099  O     0.77613   0.83333   0.82681   0.00000  Uiso   1.00
O1100  O     0.85258   0.83332   0.82681   0.00000  Uiso   1.00
O1101  O     0.79510   0.77226   0.75000   0.00000  Uiso   1.00
O1102  O     0.87154   0.77225   0.75000   0.00000  Uiso   1.00
O1103  O     0.81409   0.83335   0.67319   0.00000  Uiso   1.00
O1104  O     0.89053   0.83334   0.67319   0.00000  Uiso   1.00
Zn1105 Zn    0.78229   0.83334   0.75000   0.00000  Uiso   1.00
Zn1106 Zn    0.88438   0.83333   0.75000   0.00000  Uiso   1.00
C1107  C     0.75079   0.70605   0.82443   0.00000  Uiso   1.00
O1108  O     0.75521   0.73760   0.84850   0.00000  Uiso   1.00
O1109  O     0.70611   0.68716   0.83558   0.00000  Uiso   1.00
H1110  H     0.68033   0.70299   0.86347   0.00000  Uiso   1.00
Br1111 Br    0.92574   0.89899   0.82917   0.00000  Uiso   1.00
Br1112 Br    0.98657   0.86974   0.96113   0.00000  Uiso   1.00
C1113  C     0.91491   0.96022   0.67357   0.00000  Uiso   1.00
O1114  O     0.90973   0.92854   0.65006   0.00000  Uiso   1.00
O1115  O     0.95972   0.97905   0.66090   0.00000  Uiso   1.00
H1116  H     0.98494   0.96314   0.63248   0.00000  Uiso   1.00
loop_
_geom_bond_atom_site_label_1
_geom_bond_atom_site_label_2
_geom_bond_distance
_geom_bond_site_symmetry_2
_ccdc_geom_bond_type
C1     O44     1.284   .     A
C1     C17     1.415   .     S
C1     O43     1.282   .     A
C2     C3      1.408   .     A
C2     C562    1.421   .     S
C2     C586    1.419   .     S
C3     C10     1.422   .     A
C3     C7      1.415   .     A
C4     C8      1.387   .     A
C4     C560    1.421   1_554 S
C4     C563    1.422   1_554 S
C5     C6      1.390   .     A
C5     C562    1.422   .     S
C5     C582    1.408   .     S
C6     C7      1.383   .     A
C6     H35     1.083   .     S
C7     H40     1.080   .     S
C8     C25     1.392   .     A
C8     H36     1.076   .     S
C9     H29     1.083   .     S
C9     C25     1.396   .     A
C9     C24     1.391   .     A
C10    C26     1.398   .     A
C10    C12     1.474   .     S
C11    C59     1.488   .     S
C11    C17     1.408   .     A
C11    C199    1.378   .     S
C12    O45     1.308   .     A
C12    O46     1.286   .     A
C13    C14     1.397   .     A
C13    H30     1.086   .     S
C13    C383    1.378   1_545 S
C14    C22     1.417   .     S
C14    C15     1.409   .     A
C15    C53     1.487   .     S
C15    C388    1.376   1_545 S
C16    H31     1.086   .     S
C16    C17     1.395   .     A
C16    C201    1.376   .     S
C18    N42     1.366   .     A
C18    H32     1.082   .     S
C18    C81     1.419   .     S
C19    H33     1.082   .     S
C19    N41     1.368   .     A
C19    C142    1.419   1_455 S
C20    H34     1.082   .     S
C20    N41     1.360   .     A
C20    C145    1.414   1_455 S
C21    Br57    1.912   .     S
C21    N42     1.378   .     A
C21    C82     1.414   .     S
C22    O48     1.283   .     A
C22    O47     1.284   .     A
C23    O49     1.290   .     A
C23    C25     1.444   .     S
C23    O50     1.292   .     A
C24    C563    1.408   1_554 S
C24    Br616   1.917   1_554 S
C26    H37     1.081   .     S
C26    C27     1.390   .     A
C27    C586    1.393   .     S
C27    H597    1.083   .     S
C28    H38     1.077   .     S
C28    C560    1.419   1_554 S
C28    C585    1.393   1_554 S
H39    C585    1.083   1_554 S
N41    Zn51    2.015   .     S
N42    Zn52    2.014   .     S
O43    Zn51    1.992   .     S
O44    Zn52    1.993   .     S
O45    Zn51    1.971   .     S
O46    Zn52    1.943   .     S
O47    Zn51    1.993   .     S
O48    Zn52    1.992   .     S
O49    Zn51    1.943   .     S
O50    Zn52    1.971   .     S
C53    O55     1.399   .     S
C53    O54     1.221   .     D
O55    H56     1.014   .     S
Br58   C582    1.917   .     S
C59    O60     1.223   .     D
C59    O61     1.399   .     S
O61    H62     1.014   .     S
C63    O106    1.284   .     A
C63    C79     1.415   .     S
C63    O105    1.282   .     A
C64    C65     1.408   .     A
C64    C624    1.421   .     S
C64    C648    1.419   .     S
C65    C72     1.422   .     A
C65    C69     1.415   .     A
C66    C70     1.387   .     A
C66    C622    1.421   1_554 S
C66    C625    1.422   1_554 S
C67    C68     1.390   .     A
C67    C624    1.422   .     S
C67    C644    1.408   .     S
C68    C69     1.383   .     A
C68    H97     1.083   .     S
C69    H102    1.080   .     S
C70    C87     1.392   .     A
C70    H98     1.076   .     S
C71    H91     1.083   .     S
C71    C87     1.396   .     A
C71    C86     1.391   .     A
C72    C88     1.398   .     A
C72    C74     1.474   .     S
C73    C121    1.488   .     S
C73    C79     1.408   .     A
C73    C261    1.378   .     S
C74    O107    1.308   .     A
C74    O108    1.286   .     A
C75    C76     1.397   .     A
C75    H92     1.086   .     S
C75    C445    1.378   1_545 S
C76    C84     1.417   .     S
C76    C77     1.409   .     A
C77    C115    1.487   .     S
C77    C450    1.376   1_545 S
C78    H93     1.086   .     S
C78    C79     1.395   .     A
C78    C263    1.376   .     S
C80    N104    1.366   .     A
C80    H94     1.082   .     S
C80    C143    1.419   .     S
C81    H95     1.082   .     S
C81    N103    1.368   .     A
C82    H96     1.082   .     S
C82    N103    1.360   .     A
C83    Br119   1.912   .     S
C83    N104    1.378   .     A
C83    C144    1.414   .     S
C84    O110    1.283   .     A
C84    O109    1.284   .     A
C85    O111    1.290   .     A
C85    C87     1.444   .     S
C85    O112    1.292   .     A
C86    C625    1.408   1_554 S
C86    Br678   1.917   1_554 S
C88    H99     1.081   .     S
C88    C89     1.390   .     A
C89    C648    1.393   .     S
C89    H659    1.083   .     S
C90    H100    1.077   .     S
C90    C622    1.419   1_554 S
C90    C647    1.393   1_554 S
H101   C647    1.083   1_554 S
N103   Zn113   2.015   .     S
N104   Zn114   2.014   .     S
O105   Zn113   1.992   .     S
O106   Zn114   1.993   .     S
O107   Zn113   1.971   .     S
O108   Zn114   1.943   .     S
O109   Zn113   1.993   .     S
O110   Zn114   1.992   .     S
O111   Zn113   1.943   .     S
O112   Zn114   1.971   .     S
C115   O117    1.399   .     S
C115   O116    1.221   .     D
O117   H118    1.014   .     S
Br120  C644    1.917   .     S
C121   O122    1.223   .     D
C121   O123    1.399   .     S
O123   H124    1.014   .     S
C125   O168    1.284   .     A
C125   C141    1.415   .     S
C125   O167    1.282   .     A
C126   C127    1.408   .     A
C126   C686    1.421   .     S
C126   C710    1.419   .     S
C127   C134    1.422   .     A
C127   C131    1.415   .     A
C128   C132    1.387   .     A
C128   C684    1.421   1_554 S
C128   C687    1.422   1_554 S
C129   C130    1.390   .     A
C129   C686    1.422   .     S
C129   C706    1.408   .     S
C130   C131    1.383   .     A
C130   H159    1.083   .     S
C131   H164    1.080   .     S
C132   C149    1.392   .     A
C132   H160    1.076   .     S
C133   H153    1.083   .     S
C133   C149    1.396   .     A
C133   C148    1.391   .     A
C134   C150    1.398   .     A
C134   C136    1.474   .     S
C135   C183    1.488   .     S
C135   C141    1.408   .     A
C135   C323    1.378   .     S
C136   O169    1.308   .     A
C136   O170    1.286   .     A
C137   C138    1.397   .     A
C137   H154    1.086   .     S
C137   C507    1.378   1_545 S
C138   C146    1.417   .     S
C138   C139    1.409   .     A
C139   C177    1.487   .     S
C139   C512    1.376   1_545 S
C140   H155    1.086   .     S
C140   C141    1.395   .     A
C140   C325    1.376   .     S
C142   N166    1.366   .     A
C142   H156    1.082   .     S
C142   C19     1.419   1_655 S
C143   H157    1.082   .     S
C143   N165    1.368   .     A
C144   H158    1.082   .     S
C144   N165    1.360   .     A
C145   Br181   1.912   .     S
C145   N166    1.378   .     A
C145   C20     1.414   1_655 S
C146   O172    1.283   .     A
C146   O171    1.284   .     A
C147   O173    1.290   .     A
C147   C149    1.444   .     S
C147   O174    1.292   .     A
C148   C687    1.408   1_554 S
C148   Br740   1.917   1_554 S
C150   H161    1.081   .     S
C150   C151    1.390   .     A
C151   C710    1.393   .     S
C151   H721    1.083   .     S
C152   H162    1.077   .     S
C152   C684    1.419   1_554 S
C152   C709    1.393   1_554 S
H163   C709    1.083   1_554 S
N165   Zn175   2.015   .     S
N166   Zn176   2.014   .     S
O167   Zn175   1.992   .     S
O168   Zn176   1.993   .     S
O169   Zn175   1.971   .     S
O170   Zn176   1.943   .     S
O171   Zn175   1.993   .     S
O172   Zn176   1.992   .     S
O173   Zn175   1.943   .     S
O174   Zn176   1.971   .     S
C177   O179    1.399   .     S
C177   O178    1.221   .     D
O179   H180    1.014   .     S
Br182  C706    1.917   .     S
C183   O184    1.223   .     D
C183   O185    1.399   .     S
O185   H186    1.014   .     S
C187   O230    1.284   .     A
C187   C203    1.415   .     S
C187   O229    1.282   .     A
C188   C189    1.408   .     A
C188   C748    1.421   .     S
C188   C772    1.419   .     S
C189   C196    1.422   .     A
C189   C193    1.415   .     A
C190   C194    1.387   .     A
C190   C746    1.421   1_554 S
C190   C749    1.422   1_554 S
C191   C192    1.390   .     A
C191   C748    1.422   .     S
C191   C768    1.408   .     S
C192   C193    1.383   .     A
C192   H221    1.083   .     S
C193   H226    1.080   .     S
C194   C211    1.392   .     A
C194   H222    1.076   .     S
C195   H215    1.083   .     S
C195   C211    1.396   .     A
C195   C210    1.391   .     A
C196   C212    1.398   .     A
C196   C198    1.474   .     S
C197   C245    1.488   .     S
C197   C203    1.408   .     A
C197   C385    1.378   .     S
C198   O231    1.308   .     A
C198   O232    1.286   .     A
C199   C200    1.397   .     A
C199   H216    1.086   .     S
C200   C208    1.417   .     S
C200   C201    1.409   .     A
C201   C239    1.487   .     S
C202   H217    1.086   .     S
C202   C203    1.395   .     A
C202   C387    1.376   .     S
C204   N228    1.366   .     A
C204   H218    1.082   .     S
C204   C267    1.419   .     S
C205   H219    1.082   .     S
C205   N227    1.368   .     A
C205   C328    1.419   1_455 S
C206   H220    1.082   .     S
C206   N227    1.360   .     A
C206   C331    1.414   1_455 S
C207   Br243   1.912   .     S
C207   N228    1.378   .     A
C207   C268    1.414   .     S
C208   O234    1.283   .     A
C208   O233    1.284   .     A
C209   O235    1.290   .     A
C209   C211    1.444   .     S
C209   O236    1.292   .     A
C210   C749    1.408   1_554 S
C210   Br802   1.917   1_554 S
C212   H223    1.081   .     S
C212   C213    1.390   .     A
C213   C772    1.393   .     S
C213   H783    1.083   .     S
C214   H224    1.077   .     S
C214   C746    1.419   1_554 S
C214   C771    1.393   1_554 S
H225   C771    1.083   1_554 S
N227   Zn237   2.015   .     S
N228   Zn238   2.014   .     S
O229   Zn237   1.992   .     S
O230   Zn238   1.993   .     S
O231   Zn237   1.971   .     S
O232   Zn238   1.943   .     S
O233   Zn237   1.993   .     S
O234   Zn238   1.992   .     S
O235   Zn237   1.943   .     S
O236   Zn238   1.971   .     S
C239   O241    1.399   .     S
C239   O240    1.221   .     D
O241   H242    1.014   .     S
Br244  C768    1.917   .     S
C245   O246    1.223   .     D
C245   O247    1.399   .     S
O247   H248    1.014   .     S
C249   O292    1.284   .     A
C249   C265    1.415   .     S
C249   O291    1.282   .     A
C250   C251    1.408   .     A
C250   C810    1.421   .     S
C250   C834    1.419   .     S
C251   C258    1.422   .     A
C251   C255    1.415   .     A
C252   C256    1.387   .     A
C252   C808    1.421   1_554 S
C252   C811    1.422   1_554 S
C253   C254    1.390   .     A
C253   C810    1.422   .     S
C253   C830    1.408   .     S
C254   C255    1.383   .     A
C254   H283    1.083   .     S
C255   H288    1.080   .     S
C256   C273    1.392   .     A
C256   H284    1.076   .     S
C257   H277    1.083   .     S
C257   C273    1.396   .     A
C257   C272    1.391   .     A
C258   C274    1.398   .     A
C258   C260    1.474   .     S
C259   C307    1.488   .     S
C259   C265    1.408   .     A
C259   C447    1.378   .     S
C260   O293    1.308   .     A
C260   O294    1.286   .     A
C261   C262    1.397   .     A
C261   H278    1.086   .     S
C262   C270    1.417   .     S
C262   C263    1.409   .     A
C263   C301    1.487   .     S
C264   H279    1.086   .     S
C264   C265    1.395   .     A
C264   C449    1.376   .     S
C266   N290    1.366   .     A
C266   H280    1.082   .     S
C266   C329    1.419   .     S
C267   H281    1.082   .     S
C267   N289    1.368   .     A
C268   H282    1.082   .     S
C268   N289    1.360   .     A
C269   Br305   1.912   .     S
C269   N290    1.378   .     A
C269   C330    1.414   .     S
C270   O296    1.283   .     A
C270   O295    1.284   .     A
C271   O297    1.290   .     A
C271   C273    1.444   .     S
C271   O298    1.292   .     A
C272   C811    1.408   1_554 S
C272   Br864   1.917   1_554 S
C274   H285    1.081   .     S
C274   C275    1.390   .     A
C275   C834    1.393   .     S
C275   H845    1.083   .     S
C276   H286    1.077   .     S
C276   C808    1.419   1_554 S
C276   C833    1.393   1_554 S
H287   C833    1.083   1_554 S
N289   Zn299   2.015   .     S
N290   Zn300   2.014   .     S
O291   Zn299   1.992   .     S
O292   Zn300   1.993   .     S
O293   Zn299   1.971   .     S
O294   Zn300   1.943   .     S
O295   Zn299   1.993   .     S
O296   Zn300   1.992   .     S
O297   Zn299   1.943   .     S
O298   Zn300   1.971   .     S
C301   O303    1.399   .     S
C301   O302    1.221   .     D
O303   H304    1.014   .     S
Br306  C830    1.917   .     S
C307   O308    1.223   .     D
C307   O309    1.399   .     S
O309   H310    1.014   .     S
C311   O354    1.284   .     A
C311   C327    1.415   .     S
C311   O353    1.282   .     A
C312   C313    1.408   .     A
C312   C872    1.421   .     S
C312   C896    1.419   .     S
C313   C320    1.422   .     A
C313   C317    1.415   .     A
C314   C318    1.387   .     A
C314   C870    1.421   1_554 S
C314   C873    1.422   1_554 S
C315   C316    1.390   .     A
C315   C872    1.422   .     S
C315   C892    1.408   .     S
C316   C317    1.383   .     A
C316   H345    1.083   .     S
C317   H350    1.080   .     S
C318   C335    1.392   .     A
C318   H346    1.076   .     S
C319   H339    1.083   .     S
C319   C335    1.396   .     A
C319   C334    1.391   .     A
C320   C336    1.398   .     A
C320   C322    1.474   .     S
C321   C369    1.488   .     S
C321   C327    1.408   .     A
C321   C509    1.378   .     S
C322   O355    1.308   .     A
C322   O356    1.286   .     A
C323   C324    1.397   .     A
C323   H340    1.086   .     S
C324   C332    1.417   .     S
C324   C325    1.409   .     A
C325   C363    1.487   .     S
C326   H341    1.086   .     S
C326   C327    1.395   .     A
C326   C511    1.376   .     S
C328   N352    1.366   .     A
C328   H342    1.082   .     S
C328   C205    1.419   1_655 S
C329   H343    1.082   .     S
C329   N351    1.368   .     A
C330   H344    1.082   .     S
C330   N351    1.360   .     A
C331   Br367   1.912   .     S
C331   N352    1.378   .     A
C331   C206    1.414   1_655 S
C332   O358    1.283   .     A
C332   O357    1.284   .     A
C333   O359    1.290   .     A
C333   C335    1.444   .     S
C333   O360    1.292   .     A
C334   C873    1.408   1_554 S
C334   Br926   1.917   1_554 S
C336   H347    1.081   .     S
C336   C337    1.390   .     A
C337   C896    1.393   .     S
C337   H907    1.083   .     S
C338   H348    1.077   .     S
C338   C870    1.419   1_554 S
C338   C895    1.393   1_554 S
H349   C895    1.083   1_554 S
N351   Zn361   2.015   .     S
N352   Zn362   2.014   .     S
O353   Zn361   1.992   .     S
O354   Zn362   1.993   .     S
O355   Zn361   1.971   .     S
O356   Zn362   1.943   .     S
O357   Zn361   1.993   .     S
O358   Zn362   1.992   .     S
O359   Zn361   1.943   .     S
O360   Zn362   1.971   .     S
C363   O365    1.399   .     S
C363   O364    1.221   .     D
O365   H366    1.014   .     S
Br368  C892    1.917   .     S
C369   O370    1.223   .     D
C369   O371    1.399   .     S
O371   H372    1.014   .     S
C373   O416    1.284   .     A
C373   C389    1.415   .     S
C373   O415    1.282   .     A
C374   C375    1.408   .     A
C374   C934    1.421   .     S
C374   C958    1.419   .     S
C375   C382    1.422   .     A
C375   C379    1.415   .     A
C376   C380    1.387   .     A
C376   C932    1.421   1_554 S
C376   C935    1.422   1_554 S
C377   C378    1.390   .     A
C377   C934    1.422   .     S
C377   C954    1.408   .     S
C378   C379    1.383   .     A
C378   H407    1.083   .     S
C379   H412    1.080   .     S
C380   C397    1.392   .     A
C380   H408    1.076   .     S
C381   H401    1.083   .     S
C381   C397    1.396   .     A
C381   C396    1.391   .     A
C382   C398    1.398   .     A
C382   C384    1.474   .     S
C383   C431    1.488   .     S
C383   C389    1.408   .     A
C383   C13     1.378   1_565 S
C384   O417    1.308   .     A
C384   O418    1.286   .     A
C385   C386    1.397   .     A
C385   H402    1.086   .     S
C386   C394    1.417   .     S
C386   C387    1.409   .     A
C387   C425    1.487   .     S
C388   H403    1.086   .     S
C388   C389    1.395   .     A
C388   C15     1.376   1_565 S
C390   N414    1.366   .     A
C390   H404    1.082   .     S
C390   C453    1.419   .     S
C391   H405    1.082   .     S
C391   N413    1.368   .     A
C391   C514    1.419   1_455 S
C392   H406    1.082   .     S
C392   N413    1.360   .     A
C392   C517    1.414   1_455 S
C393   Br429   1.912   .     S
C393   N414    1.378   .     A
C393   C454    1.414   .     S
C394   O420    1.283   .     A
C394   O419    1.284   .     A
C395   O421    1.290   .     A
C395   C397    1.444   .     S
C395   O422    1.292   .     A
C396   C935    1.408   1_554 S
C396   Br988   1.917   1_554 S
C398   H409    1.081   .     S
C398   C399    1.390   .     A
C399   C958    1.393   .     S
C399   H969    1.083   .     S
C400   H410    1.077   .     S
C400   C932    1.419   1_554 S
C400   C957    1.393   1_554 S
H411   C957    1.083   1_554 S
N413   Zn423   2.015   .     S
N414   Zn424   2.014   .     S
O415   Zn423   1.992   .     S
O416   Zn424   1.993   .     S
O417   Zn423   1.971   .     S
O418   Zn424   1.943   .     S
O419   Zn423   1.993   .     S
O420   Zn424   1.992   .     S
O421   Zn423   1.943   .     S
O422   Zn424   1.971   .     S
C425   O427    1.399   .     S
C425   O426    1.221   .     D
O427   H428    1.014   .     S
Br430  C954    1.917   .     S
C431   O432    1.223   .     D
C431   O433    1.399   .     S
O433   H434    1.014   .     S
C435   O478    1.284   .     A
C435   C451    1.415   .     S
C435   O477    1.282   .     A
C436   C437    1.408   .     A
C436   C996    1.421   .     S
C436   C1020   1.419   .     S
C437   C444    1.422   .     A
C437   C441    1.415   .     A
C438   C442    1.387   .     A
C438   C994    1.421   1_554 S
C438   C997    1.422   1_554 S
C439   C440    1.390   .     A
C439   C996    1.422   .     S
C439   C1016   1.408   .     S
C440   C441    1.383   .     A
C440   H469    1.083   .     S
C441   H474    1.080   .     S
C442   C459    1.392   .     A
C442   H470    1.076   .     S
C443   H463    1.083   .     S
C443   C459    1.396   .     A
C443   C458    1.391   .     A
C444   C460    1.398   .     A
C444   C446    1.474   .     S
C445   C493    1.488   .     S
C445   C451    1.408   .     A
C445   C75     1.378   1_565 S
C446   O479    1.308   .     A
C446   O480    1.286   .     A
C447   C448    1.397   .     A
C447   H464    1.086   .     S
C448   C456    1.417   .     S
C448   C449    1.409   .     A
C449   C487    1.487   .     S
C450   H465    1.086   .     S
C450   C451    1.395   .     A
C450   C77     1.376   1_565 S
C452   N476    1.366   .     A
C452   H466    1.082   .     S
C452   C515    1.419   .     S
C453   H467    1.082   .     S
C453   N475    1.368   .     A
C454   H468    1.082   .     S
C454   N475    1.360   .     A
C455   Br491   1.912   .     S
C455   N476    1.378   .     A
C455   C516    1.414   .     S
C456   O482    1.283   .     A
C456   O481    1.284   .     A
C457   O483    1.290   .     A
C457   C459    1.444   .     S
C457   O484    1.292   .     A
C458   C997    1.408   1_554 S
C458   Br1050  1.917   1_554 S
C460   H471    1.081   .     S
C460   C461    1.390   .     A
C461   C1020   1.393   .     S
C461   H1031   1.083   .     S
C462   H472    1.077   .     S
C462   C994    1.419   1_554 S
C462   C1019   1.393   1_554 S
H473   C1019   1.083   1_554 S
N475   Zn485   2.015   .     S
N476   Zn486   2.014   .     S
O477   Zn485   1.992   .     S
O478   Zn486   1.993   .     S
O479   Zn485   1.971   .     S
O480   Zn486   1.943   .     S
O481   Zn485   1.993   .     S
O482   Zn486   1.992   .     S
O483   Zn485   1.943   .     S
O484   Zn486   1.971   .     S
C487   O489    1.399   .     S
C487   O488    1.221   .     D
O489   H490    1.014   .     S
Br492  C1016   1.917   .     S
C493   O494    1.223   .     D
C493   O495    1.399   .     S
O495   H496    1.014   .     S
C497   O540    1.284   .     A
C497   C513    1.415   .     S
C497   O539    1.282   .     A
C498   C499    1.408   .     A
C498   C1058   1.421   .     S
C498   C1082   1.419   .     S
C499   C506    1.422   .     A
C499   C503    1.415   .     A
C500   C504    1.387   .     A
C500   C1056   1.421   1_554 S
C500   C1059   1.422   1_554 S
C501   C502    1.390   .     A
C501   C1058   1.422   .     S
C501   C1078   1.408   .     S
C502   C503    1.383   .     A
C502   H531    1.083   .     S
C503   H536    1.080   .     S
C504   C521    1.392   .     A
C504   H532    1.076   .     S
C505   H525    1.083   .     S
C505   C521    1.396   .     A
C505   C520    1.391   .     A
C506   C522    1.398   .     A
C506   C508    1.474   .     S
C507   C555    1.488   .     S
C507   C513    1.408   .     A
C507   C137    1.378   1_565 S
C508   O541    1.308   .     A
C508   O542    1.286   .     A
C509   C510    1.397   .     A
C509   H526    1.086   .     S
C510   C518    1.417   .     S
C510   C511    1.409   .     A
C511   C549    1.487   .     S
C512   H527    1.086   .     S
C512   C513    1.395   .     A
C512   C139    1.376   1_565 S
C514   N538    1.366   .     A
C514   H528    1.082   .     S
C514   C391    1.419   1_655 S
C515   H529    1.082   .     S
C515   N537    1.368   .     A
C516   H530    1.082   .     S
C516   N537    1.360   .     A
C517   Br553   1.912   .     S
C517   N538    1.378   .     A
C517   C392    1.414   1_655 S
C518   O544    1.283   .     A
C518   O543    1.284   .     A
C519   O545    1.290   .     A
C519   C521    1.444   .     S
C519   O546    1.292   .     A
C520   C1059   1.408   1_554 S
C520   Br1112  1.917   1_554 S
C522   H533    1.081   .     S
C522   C523    1.390   .     A
C523   C1082   1.393   .     S
C523   H1093   1.083   .     S
C524   H534    1.077   .     S
C524   C1056   1.419   1_554 S
C524   C1081   1.393   1_554 S
H535   C1081   1.083   1_554 S
N537   Zn547   2.015   .     S
N538   Zn548   2.014   .     S
O539   Zn547   1.992   .     S
O540   Zn548   1.993   .     S
O541   Zn547   1.971   .     S
O542   Zn548   1.943   .     S
O543   Zn547   1.993   .     S
O544   Zn548   1.992   .     S
O545   Zn547   1.943   .     S
O546   Zn548   1.971   .     S
C549   O551    1.399   .     S
C549   O550    1.221   .     D
O551   H552    1.014   .     S
Br554  C1078   1.917   .     S
C555   O556    1.223   .     D
C555   O557    1.399   .     S
O557   H558    1.014   .     S
C559   O602    1.284   .     A
C559   C575    1.415   .     S
C559   O601    1.282   .     A
C560   C561    1.408   .     A
C560   C4      1.421   1_556 S
C560   C28     1.419   1_556 S
C561   C568    1.422   .     A
C561   C565    1.415   .     A
C562   C566    1.387   .     A
C563   C564    1.390   .     A
C563   C4      1.422   1_556 S
C563   C24     1.408   1_556 S
C564   C565    1.383   .     A
C564   H593    1.083   .     S
C565   H598    1.080   .     S
C566   C583    1.392   .     A
C566   H594    1.076   .     S
C567   H587    1.083   .     S
C567   C583    1.396   .     A
C567   C582    1.391   .     A
C568   C584    1.398   .     A
C568   C570    1.474   .     S
C569   C617    1.488   .     S
C569   C575    1.408   .     A
C569   C757    1.378   .     S
C570   O603    1.308   .     A
C570   O604    1.286   .     A
C571   C572    1.397   .     A
C571   H588    1.086   .     S
C571   C941    1.378   1_545 S
C572   C580    1.417   .     S
C572   C573    1.409   .     A
C573   C611    1.487   .     S
C573   C946    1.376   1_545 S
C574   H589    1.086   .     S
C574   C575    1.395   .     A
C574   C759    1.376   .     S
C576   N600    1.366   .     A
C576   H590    1.082   .     S
C576   C639    1.419   .     S
C577   H591    1.082   .     S
C577   N599    1.368   .     A
C577   C700    1.419   1_455 S
C578   H592    1.082   .     S
C578   N599    1.360   .     A
C578   C703    1.414   1_455 S
C579   Br615   1.912   .     S
C579   N600    1.378   .     A
C579   C640    1.414   .     S
C580   O606    1.283   .     A
C580   O605    1.284   .     A
C581   O607    1.290   .     A
C581   C583    1.444   .     S
C581   O608    1.292   .     A
C584   H595    1.081   .     S
C584   C585    1.390   .     A
C585   C28     1.393   1_556 S
C585   H39     1.083   1_556 S
C586   H596    1.077   .     S
N599   Zn609   2.015   .     S
N600   Zn610   2.014   .     S
O601   Zn609   1.992   .     S
O602   Zn610   1.993   .     S
O603   Zn609   1.971   .     S
O604   Zn610   1.943   .     S
O605   Zn609   1.993   .     S
O606   Zn610   1.992   .     S
O607   Zn609   1.943   .     S
O608   Zn610   1.971   .     S
C611   O613    1.399   .     S
C611   O612    1.221   .     D
O613   H614    1.014   .     S
Br616  C24     1.917   1_556 S
C617   O618    1.223   .     D
C617   O619    1.399   .     S
O619   H620    1.014   .     S
C621   O664    1.284   .     A
C621   C637    1.415   .     S
C621   O663    1.282   .     A
C622   C623    1.408   .     A
C622   C66     1.421   1_556 S
C622   C90     1.419   1_556 S
C623   C630    1.422   .     A
C623   C627    1.415   .     A
C624   C628    1.387   .     A
C625   C626    1.390   .     A
C625   C66     1.422   1_556 S
C625   C86     1.408   1_556 S
C626   C627    1.383   .     A
C626   H655    1.083   .     S
C627   H660    1.080   .     S
C628   C645    1.392   .     A
C628   H656    1.076   .     S
C629   H649    1.083   .     S
C629   C645    1.396   .     A
C629   C644    1.391   .     A
C630   C646    1.398   .     A
C630   C632    1.474   .     S
C631   C679    1.488   .     S
C631   C637    1.408   .     A
C631   C819    1.378   .     S
C632   O665    1.308   .     A
C632   O666    1.286   .     A
C633   C634    1.397   .     A
C633   H650    1.086   .     S
C633   C1003   1.378   1_545 S
C634   C642    1.417   .     S
C634   C635    1.409   .     A
C635   C673    1.487   .     S
C635   C1008   1.376   1_545 S
C636   H651    1.086   .     S
C636   C637    1.395   .     A
C636   C821    1.376   .     S
C638   N662    1.366   .     A
C638   H652    1.082   .     S
C638   C701    1.419   .     S
C639   H653    1.082   .     S
C639   N661    1.368   .     A
C640   H654    1.082   .     S
C640   N661    1.360   .     A
C641   Br677   1.912   .     S
C641   N662    1.378   .     A
C641   C702    1.414   .     S
C642   O668    1.283   .     A
C642   O667    1.284   .     A
C643   O669    1.290   .     A
C643   C645    1.444   .     S
C643   O670    1.292   .     A
C646   H657    1.081   .     S
C646   C647    1.390   .     A
C647   C90     1.393   1_556 S
C647   H101    1.083   1_556 S
C648   H658    1.077   .     S
N661   Zn671   2.015   .     S
N662   Zn672   2.014   .     S
O663   Zn671   1.992   .     S
O664   Zn672   1.993   .     S
O665   Zn671   1.971   .     S
O666   Zn672   1.943   .     S
O667   Zn671   1.993   .     S
O668   Zn672   1.992   .     S
O669   Zn671   1.943   .     S
O670   Zn672   1.971   .     S
C673   O675    1.399   .     S
C673   O674    1.221   .     D
O675   H676    1.014   .     S
Br678  C86     1.917   1_556 S
C679   O680    1.223   .     D
C679   O681    1.399   .     S
O681   H682    1.014   .     S
C683   O726    1.284   .     A
C683   C699    1.415   .     S
C683   O725    1.282   .     A
C684   C685    1.408   .     A
C684   C128    1.421   1_556 S
C684   C152    1.419   1_556 S
C685   C692    1.422   .     A
C685   C689    1.415   .     A
C686   C690    1.387   .     A
C687   C688    1.390   .     A
C687   C128    1.422   1_556 S
C687   C148    1.408   1_556 S
C688   C689    1.383   .     A
C688   H717    1.083   .     S
C689   H722    1.080   .     S
C690   C707    1.392   .     A
C690   H718    1.076   .     S
C691   H711    1.083   .     S
C691   C707    1.396   .     A
C691   C706    1.391   .     A
C692   C708    1.398   .     A
C692   C694    1.474   .     S
C693   C741    1.488   .     S
C693   C699    1.408   .     A
C693   C881    1.378   .     S
C694   O727    1.308   .     A
C694   O728    1.286   .     A
C695   C696    1.397   .     A
C695   H712    1.086   .     S
C695   C1065   1.378   1_545 S
C696   C704    1.417   .     S
C696   C697    1.409   .     A
C697   C735    1.487   .     S
C697   C1070   1.376   1_545 S
C698   H713    1.086   .     S
C698   C699    1.395   .     A
C698   C883    1.376   .     S
C700   N724    1.366   .     A
C700   H714    1.082   .     S
C700   C577    1.419   1_655 S
C701   H715    1.082   .     S
C701   N723    1.368   .     A
C702   H716    1.082   .     S
C702   N723    1.360   .     A
C703   Br739   1.912   .     S
C703   N724    1.378   .     A
C703   C578    1.414   1_655 S
C704   O730    1.283   .     A
C704   O729    1.284   .     A
C705   O731    1.290   .     A
C705   C707    1.444   .     S
C705   O732    1.292   .     A
C708   H719    1.081   .     S
C708   C709    1.390   .     A
C709   C152    1.393   1_556 S
C709   H163    1.083   1_556 S
C710   H720    1.077   .     S
N723   Zn733   2.015   .     S
N724   Zn734   2.014   .     S
O725   Zn733   1.992   .     S
O726   Zn734   1.993   .     S
O727   Zn733   1.971   .     S
O728   Zn734   1.943   .     S
O729   Zn733   1.993   .     S
O730   Zn734   1.992   .     S
O731   Zn733   1.943   .     S
O732   Zn734   1.971   .     S
C735   O737    1.399   .     S
C735   O736    1.221   .     D
O737   H738    1.014   .     S
Br740  C148    1.917   1_556 S
C741   O742    1.223   .     D
C741   O743    1.399   .     S
O743   H744    1.014   .     S
C745   O788    1.284   .     A
C745   C761    1.415   .     S
C745   O787    1.282   .     A
C746   C747    1.408   .     A
C746   C190    1.421   1_556 S
C746   C214    1.419   1_556 S
C747   C754    1.422   .     A
C747   C751    1.415   .     A
C748   C752    1.387   .     A
C749   C750    1.390   .     A
C749   C190    1.422   1_556 S
C749   C210    1.408   1_556 S
C750   C751    1.383   .     A
C750   H779    1.083   .     S
C751   H784    1.080   .     S
C752   C769    1.392   .     A
C752   H780    1.076   .     S
C753   H773    1.083   .     S
C753   C769    1.396   .     A
C753   C768    1.391   .     A
C754   C770    1.398   .     A
C754   C756    1.474   .     S
C755   C803    1.488   .     S
C755   C761    1.408   .     A
C755   C943    1.378   .     S
C756   O789    1.308   .     A
C756   O790    1.286   .     A
C757   C758    1.397   .     A
C757   H774    1.086   .     S
C758   C766    1.417   .     S
C758   C759    1.409   .     A
C759   C797    1.487   .     S
C760   H775    1.086   .     S
C760   C761    1.395   .     A
C760   C945    1.376   .     S
C762   N786    1.366   .     A
C762   H776    1.082   .     S
C762   C825    1.419   .     S
C763   H777    1.082   .     S
C763   N785    1.368   .     A
C763   C886    1.419   1_455 S
C764   H778    1.082   .     S
C764   N785    1.360   .     A
C764   C889    1.414   1_455 S
C765   Br801   1.912   .     S
C765   N786    1.378   .     A
C765   C826    1.414   .     S
C766   O792    1.283   .     A
C766   O791    1.284   .     A
C767   O793    1.290   .     A
C767   C769    1.444   .     S
C767   O794    1.292   .     A
C770   H781    1.081   .     S
C770   C771    1.390   .     A
C771   C214    1.393   1_556 S
C771   H225    1.083   1_556 S
C772   H782    1.077   .     S
N785   Zn795   2.015   .     S
N786   Zn796   2.014   .     S
O787   Zn795   1.992   .     S
O788   Zn796   1.993   .     S
O789   Zn795   1.971   .     S
O790   Zn796   1.943   .     S
O791   Zn795   1.993   .     S
O792   Zn796   1.992   .     S
O793   Zn795   1.943   .     S
O794   Zn796   1.971   .     S
C797   O799    1.399   .     S
C797   O798    1.221   .     D
O799   H800    1.014   .     S
Br802  C210    1.917   1_556 S
C803   O804    1.223   .     D
C803   O805    1.399   .     S
O805   H806    1.014   .     S
C807   O850    1.284   .     A
C807   C823    1.415   .     S
C807   O849    1.282   .     A
C808   C809    1.408   .     A
C808   C252    1.421   1_556 S
C808   C276    1.419   1_556 S
C809   C816    1.422   .     A
C809   C813    1.415   .     A
C810   C814    1.387   .     A
C811   C812    1.390   .     A
C811   C252    1.422   1_556 S
C811   C272    1.408   1_556 S
C812   C813    1.383   .     A
C812   H841    1.083   .     S
C813   H846    1.080   .     S
C814   C831    1.392   .     A
C814   H842    1.076   .     S
C815   H835    1.083   .     S
C815   C831    1.396   .     A
C815   C830    1.391   .     A
C816   C832    1.398   .     A
C816   C818    1.474   .     S
C817   C865    1.488   .     S
C817   C823    1.408   .     A
C817   C1005   1.378   .     S
C818   O851    1.308   .     A
C818   O852    1.286   .     A
C819   C820    1.397   .     A
C819   H836    1.086   .     S
C820   C828    1.417   .     S
C820   C821    1.409   .     A
C821   C859    1.487   .     S
C822   H837    1.086   .     S
C822   C823    1.395   .     A
C822   C1007   1.376   .     S
C824   N848    1.366   .     A
C824   H838    1.082   .     S
C824   C887    1.419   .     S
C825   H839    1.082   .     S
C825   N847    1.368   .     A
C826   H840    1.082   .     S
C826   N847    1.360   .     A
C827   Br863   1.912   .     S
C827   N848    1.378   .     A
C827   C888    1.414   .     S
C828   O854    1.283   .     A
C828   O853    1.284   .     A
C829   O855    1.290   .     A
C829   C831    1.444   .     S
C829   O856    1.292   .     A
C832   H843    1.081   .     S
C832   C833    1.390   .     A
C833   C276    1.393   1_556 S
C833   H287    1.083   1_556 S
C834   H844    1.077   .     S
N847   Zn857   2.015   .     S
N848   Zn858   2.014   .     S
O849   Zn857   1.992   .     S
O850   Zn858   1.993   .     S
O851   Zn857   1.971   .     S
O852   Zn858   1.943   .     S
O853   Zn857   1.993   .     S
O854   Zn858   1.992   .     S
O855   Zn857   1.943   .     S
O856   Zn858   1.971   .     S
C859   O861    1.399   .     S
C859   O860    1.221   .     D
O861   H862    1.014   .     S
Br864  C272    1.917   1_556 S
C865   O866    1.223   .     D
C865   O867    1.399   .     S
O867   H868    1.014   .     S
C869   O912    1.284   .     A
C869   C885    1.415   .     S
C869   O911    1.282   .     A
C870   C871    1.408   .     A
C870   C314    1.421   1_556 S
C870   C338    1.419   1_556 S
C871   C878    1.422   .     A
C871   C875    1.415   .     A
C872   C876    1.387   .     A
C873   C874    1.390   .     A
C873   C314    1.422   1_556 S
C873   C334    1.408   1_556 S
C874   C875    1.383   .     A
C874   H903    1.083   .     S
C875   H908    1.080   .     S
C876   C893    1.392   .     A
C876   H904    1.076   .     S
C877   H897    1.083   .     S
C877   C893    1.396   .     A
C877   C892    1.391   .     A
C878   C894    1.398   .     A
C878   C880    1.474   .     S
C879   C927    1.488   .     S
C879   C885    1.408   .     A
C879   C1067   1.378   .     S
C880   O913    1.308   .     A
C880   O914    1.286   .     A
C881   C882    1.397   .     A
C881   H898    1.086   .     S
C882   C890    1.417   .     S
C882   C883    1.409   .     A
C883   C921    1.487   .     S
C884   H899    1.086   .     S
C884   C885    1.395   .     A
C884   C1069   1.376   .     S
C886   N910    1.366   .     A
C886   H900    1.082   .     S
C886   C763    1.419   1_655 S
C887   H901    1.082   .     S
C887   N909    1.368   .     A
C888   H902    1.082   .     S
C888   N909    1.360   .     A
C889   Br925   1.912   .     S
C889   N910    1.378   .     A
C889   C764    1.414   1_655 S
C890   O916    1.283   .     A
C890   O915    1.284   .     A
C891   O917    1.290   .     A
C891   C893    1.444   .     S
C891   O918    1.292   .     A
C894   H905    1.081   .     S
C894   C895    1.390   .     A
C895   C338    1.393   1_556 S
C895   H349    1.083   1_556 S
C896   H906    1.077   .     S
N909   Zn919   2.015   .     S
N910   Zn920   2.014   .     S
O911   Zn919   1.992   .     S
O912   Zn920   1.993   .     S
O913   Zn919   1.971   .     S
O914   Zn920   1.943   .     S
O915   Zn919   1.993   .     S
O916   Zn920   1.992   .     S
O917   Zn919   1.943   .     S
O918   Zn920   1.971   .     S
C921   O923    1.399   .     S
C921   O922    1.221   .     D
O923   H924    1.014   .     S
Br926  C334    1.917   1_556 S
C927   O928    1.223   .     D
C927   O929    1.399   .     S
O929   H930    1.014   .     S
C931   O974    1.284   .     A
C931   C947    1.415   .     S
C931   O973    1.282   .     A
C932   C933    1.408   .     A
C932   C376    1.421   1_556 S
C932   C400    1.419   1_556 S
C933   C940    1.422   .     A
C933   C937    1.415   .     A
C934   C938    1.387   .     A
C935   C936    1.390   .     A
C935   C376    1.422   1_556 S
C935   C396    1.408   1_556 S
C936   C937    1.383   .     A
C936   H965    1.083   .     S
C937   H970    1.080   .     S
C938   C955    1.392   .     A
C938   H966    1.076   .     S
C939   H959    1.083   .     S
C939   C955    1.396   .     A
C939   C954    1.391   .     A
C940   C956    1.398   .     A
C940   C942    1.474   .     S
C941   C989    1.488   .     S
C941   C947    1.408   .     A
C941   C571    1.378   1_565 S
C942   O975    1.308   .     A
C942   O976    1.286   .     A
C943   C944    1.397   .     A
C943   H960    1.086   .     S
C944   C952    1.417   .     S
C944   C945    1.409   .     A
C945   C983    1.487   .     S
C946   H961    1.086   .     S
C946   C947    1.395   .     A
C946   C573    1.376   1_565 S
C948   N972    1.366   .     A
C948   H962    1.082   .     S
C948   C1011   1.419   .     S
C949   H963    1.082   .     S
C949   N971    1.368   .     A
C949   C1072   1.419   1_455 S
C950   H964    1.082   .     S
C950   N971    1.360   .     A
C950   C1075   1.414   1_455 S
C951   Br987   1.912   .     S
C951   N972    1.378   .     A
C951   C1012   1.414   .     S
C952   O978    1.283   .     A
C952   O977    1.284   .     A
C953   O979    1.290   .     A
C953   C955    1.444   .     S
C953   O980    1.292   .     A
C956   H967    1.081   .     S
C956   C957    1.390   .     A
C957   C400    1.393   1_556 S
C957   H411    1.083   1_556 S
C958   H968    1.077   .     S
N971   Zn981   2.015   .     S
N972   Zn982   2.014   .     S
O973   Zn981   1.992   .     S
O974   Zn982   1.993   .     S
O975   Zn981   1.971   .     S
O976   Zn982   1.943   .     S
O977   Zn981   1.993   .     S
O978   Zn982   1.992   .     S
O979   Zn981   1.943   .     S
O980   Zn982   1.971   .     S
C983   O985    1.399   .     S
C983   O984    1.221   .     D
O985   H986    1.014   .     S
Br988  C396    1.917   1_556 S
C989   O990    1.223   .     D
C989   O991    1.399   .     S
O991   H992    1.014   .     S
C993   O1036   1.284   .     A
C993   C1009   1.415   .     S
C993   O1035   1.282   .     A
C994   C995    1.408   .     A
C994   C438    1.421   1_556 S
C994   C462    1.419   1_556 S
C995   C1002   1.422   .     A
C995   C999    1.415   .     A
C996   C1000   1.387   .     A
C997   C998    1.390   .     A
C997   C438    1.422   1_556 S
C997   C458    1.408   1_556 S
C998   C999    1.383   .     A
C998   H1027   1.083   .     S
C999   H1032   1.080   .     S
C1000  C1017   1.392   .     A
C1000  H1028   1.076   .     S
C1001  H1021   1.083   .     S
C1001  C1017   1.396   .     A
C1001  C1016   1.391   .     A
C1002  C1018   1.398   .     A
C1002  C1004   1.474   .     S
C1003  C1051   1.488   .     S
C1003  C1009   1.408   .     A
C1003  C633    1.378   1_565 S
C1004  O1037   1.308   .     A
C1004  O1038   1.286   .     A
C1005  C1006   1.397   .     A
C1005  H1022   1.086   .     S
C1006  C1014   1.417   .     S
C1006  C1007   1.409   .     A
C1007  C1045   1.487   .     S
C1008  H1023   1.086   .     S
C1008  C1009   1.395   .     A
C1008  C635    1.376   1_565 S
C1010  N1034   1.366   .     A
C1010  H1024   1.082   .     S
C1010  C1073   1.419   .     S
C1011  H1025   1.082   .     S
C1011  N1033   1.368   .     A
C1012  H1026   1.082   .     S
C1012  N1033   1.360   .     A
C1013  Br1049  1.912   .     S
C1013  N1034   1.378   .     A
C1013  C1074   1.414   .     S
C1014  O1040   1.283   .     A
C1014  O1039   1.284   .     A
C1015  O1041   1.290   .     A
C1015  C1017   1.444   .     S
C1015  O1042   1.292   .     A
C1018  H1029   1.081   .     S
C1018  C1019   1.390   .     A
C1019  C462    1.393   1_556 S
C1019  H473    1.083   1_556 S
C1020  H1030   1.077   .     S
N1033  Zn1043  2.015   .     S
N1034  Zn1044  2.014   .     S
O1035  Zn1043  1.992   .     S
O1036  Zn1044  1.993   .     S
O1037  Zn1043  1.971   .     S
O1038  Zn1044  1.943   .     S
O1039  Zn1043  1.993   .     S
O1040  Zn1044  1.992   .     S
O1041  Zn1043  1.943   .     S
O1042  Zn1044  1.971   .     S
C1045  O1047   1.399   .     S
C1045  O1046   1.221   .     D
O1047  H1048   1.014   .     S
Br1050 C458    1.917   1_556 S
C1051  O1052   1.223   .     D
C1051  O1053   1.399   .     S
O1053  H1054   1.014   .     S
C1055  O1098   1.284   .     A
C1055  C1071   1.415   .     S
C1055  O1097   1.282   .     A
C1056  C1057   1.408   .     A
C1056  C500    1.421   1_556 S
C1056  C524    1.419   1_556 S
C1057  C1064   1.422   .     A
C1057  C1061   1.415   .     A
C1058  C1062   1.387   .     A
C1059  C1060   1.390   .     A
C1059  C500    1.422   1_556 S
C1059  C520    1.408   1_556 S
C1060  C1061   1.383   .     A
C1060  H1089   1.083   .     S
C1061  H1094   1.080   .     S
C1062  C1079   1.392   .     A
C1062  H1090   1.076   .     S
C1063  H1083   1.083   .     S
C1063  C1079   1.396   .     A
C1063  C1078   1.391   .     A
C1064  C1080   1.398   .     A
C1064  C1066   1.474   .     S
C1065  C1113   1.488   .     S
C1065  C1071   1.408   .     A
C1065  C695    1.378   1_565 S
C1066  O1099   1.308   .     A
C1066  O1100   1.286   .     A
C1067  C1068   1.397   .     A
C1067  H1084   1.086   .     S
C1068  C1076   1.417   .     S
C1068  C1069   1.409   .     A
C1069  C1107   1.487   .     S
C1070  H1085   1.086   .     S
C1070  C1071   1.395   .     A
C1070  C697    1.376   1_565 S
C1072  N1096   1.366   .     A
C1072  H1086   1.082   .     S
C1072  C949    1.419   1_655 S
C1073  H1087   1.082   .     S
C1073  N1095   1.368   .     A
C1074  H1088   1.082   .     S
C1074  N1095   1.360   .     A
C1075  Br1111  1.912   .     S
C1075  N1096   1.378   .     A
C1075  C950    1.414   1_655 S
C1076  O1102   1.283   .     A
C1076  O1101   1.284   .     A
C1077  O1103   1.290   .     A
C1077  C1079   1.444   .     S
C1077  O1104   1.292   .     A
C1080  H1091   1.081   .     S
C1080  C1081   1.390   .     A
C1081  C524    1.393   1_556 S
C1081  H535    1.083   1_556 S
C1082  H1092   1.077   .     S
N1095  Zn1105  2.015   .     S
N1096  Zn1106  2.014   .     S
O1097  Zn1105  1.992   .     S
O1098  Zn1106  1.993   .     S
O1099  Zn1105  1.971   .     S
O1100  Zn1106  1.943   .     S
O1101  Zn1105  1.993   .     S
O1102  Zn1106  1.992   .     S
O1103  Zn1105  1.943   .     S
O1104  Zn1106  1.971   .     S
C1107  O1109   1.399   .     S
C1107  O1108   1.221   .     D
O1109  H1110   1.014   .     S
Br1112 C520    1.917   1_556 S
C1113  O1114   1.223   .     D
C1113  O1115   1.399   .     S
O1115  H1116   1.014   .     S
