data_str_m3_o10_o17_pcu_sym.58
_audit_creation_date              2020-01-03
_audit_creation_method            'Materials Studio'
_symmetry_space_group_name_H-M    'P1'
_symmetry_Int_Tables_number       1
_symmetry_cell_setting            triclinic
loop_
_symmetry_equiv_pos_as_xyz
  x,y,z
_cell_length_a                    23.2575
_cell_length_b                    25.7116
_cell_length_c                    29.9382
_cell_angle_alpha                 91.3426
_cell_angle_beta                  85.4424
_cell_angle_gamma                 93.8086
loop_
_atom_site_label
_atom_site_type_symbol
_atom_site_fract_x
_atom_site_fract_y
_atom_site_fract_z
_atom_site_U_iso_or_equiv
_atom_site_adp_type
_atom_site_occupancy
C1     C     0.18198   0.26495   0.24882   0.00000  Uiso   1.00
C2     C     0.21734   0.17928   0.40420   0.00000  Uiso   1.00
C3     C     0.16614   0.17144   0.11567   0.00000  Uiso   1.00
C4     C     0.16719   0.16190   0.38433   0.00000  Uiso   1.00
C5     C     0.21603   0.19063   0.08991   0.00000  Uiso   1.00
C6     C     0.11730   0.14270   0.41009   0.00000  Uiso   1.00
C7     C     0.21689   0.18748   0.04335   0.00000  Uiso   1.00
C8     C     0.11644   0.14586   0.45665   0.00000  Uiso   1.00
C9     C     0.16648   0.16834   0.02328   0.00000  Uiso   1.00
C10    C     0.16685   0.16499   0.47672   0.00000  Uiso   1.00
C11    C     0.11572   0.15242   0.04971   0.00000  Uiso   1.00
C12    C     0.15135   0.06838   0.25118   0.00000  Uiso   1.00
C13    C     0.21761   0.18092   0.45029   0.00000  Uiso   1.00
C14    C     0.26718   0.20273   0.01656   0.00000  Uiso   1.00
C15    C     0.06615   0.13060   0.48344   0.00000  Uiso   1.00
C16    C     0.25951   0.26336   0.12003   0.00000  Uiso   1.00
C17    C     0.07383   0.06997   0.37997   0.00000  Uiso   1.00
C18    C     0.26749   0.19945   0.47025   0.00000  Uiso   1.00
C19    C     0.06584   0.13389   0.02975   0.00000  Uiso   1.00
C20    C     0.19005   0.31945   0.24802   0.00000  Uiso   1.00
C21    C     0.14328   0.01389   0.25198   0.00000  Uiso   1.00
C22    C     0.16688   0.16522   0.33656   0.00000  Uiso   1.00
C23    C     0.16645   0.16811   0.16344   0.00000  Uiso   1.00
C24    C     0.11599   0.15405   0.09580   0.00000  Uiso   1.00
H25    H     0.07767   0.14015   0.11625   0.00000  Uiso   1.00
H26    H     0.32858   0.20574   0.28401   0.00000  Uiso   1.00
H27    H     0.25701   0.28584   0.08899   0.00000  Uiso   1.00
H28    H     0.29852   0.27885   0.13625   0.00000  Uiso   1.00
H29    H     0.22134   0.26974   0.14391   0.00000  Uiso   1.00
H30    H     0.03482   0.05448   0.36375   0.00000  Uiso   1.00
H31    H     0.07632   0.04749   0.41101   0.00000  Uiso   1.00
H32    H     0.11200   0.06360   0.35610   0.00000  Uiso   1.00
H33    H     0.25567   0.19319   0.38375   0.00000  Uiso   1.00
H34    H     0.30640   0.21716   0.03121   0.00000  Uiso   1.00
H35    H     0.02693   0.11617   0.46879   0.00000  Uiso   1.00
H36    H     0.30663   0.21159   0.45005   0.00000  Uiso   1.00
H37    H     0.02671   0.12174   0.04995   0.00000  Uiso   1.00
H38    H     0.23418   0.00319   0.24415   0.00000  Uiso   1.00
H39    H     0.09915   0.33014   0.25585   0.00000  Uiso   1.00
H40    H     0.00475   0.12759   0.21599   0.00000  Uiso   1.00
N41    N     0.31678   0.15265   0.23783   0.00000  Uiso   1.00
N42    N     0.01656   0.18068   0.26217   0.00000  Uiso   1.00
O43    O     0.12975   0.24619   0.25299   0.00000  Uiso   1.00
O44    O     0.06852   0.12343   0.38985   0.00000  Uiso   1.00
O45    O     0.20358   0.08714   0.24702   0.00000  Uiso   1.00
O46    O     0.22613   0.23721   0.24519   0.00000  Uiso   1.00
O47    O     0.10720   0.09613   0.25482   0.00000  Uiso   1.00
O48    O     0.11847   0.17117   0.31998   0.00000  Uiso   1.00
O49    O     0.21486   0.16216   0.18003   0.00000  Uiso   1.00
O50    O     0.21485   0.16219   0.31218   0.00000  Uiso   1.00
O51    O     0.11848   0.17115   0.18783   0.00000  Uiso   1.00
O52    O     0.26482   0.20990   0.11015   0.00000  Uiso   1.00
Zn53   Zn    0.10231   0.17266   0.25521   0.00000  Uiso   1.00
Zn54   Zn    0.23102   0.16067   0.24479   0.00000  Uiso   1.00
C55    C     0.51532   0.26495   0.24882   0.00000  Uiso   1.00
C56    C     0.55068   0.17928   0.40420   0.00000  Uiso   1.00
C57    C     0.49948   0.17144   0.11567   0.00000  Uiso   1.00
C58    C     0.50052   0.16190   0.38433   0.00000  Uiso   1.00
C59    C     0.54936   0.19063   0.08991   0.00000  Uiso   1.00
C60    C     0.45064   0.14270   0.41009   0.00000  Uiso   1.00
C61    C     0.55023   0.18748   0.04335   0.00000  Uiso   1.00
C62    C     0.44977   0.14586   0.45665   0.00000  Uiso   1.00
C63    C     0.49982   0.16834   0.02328   0.00000  Uiso   1.00
C64    C     0.50018   0.16499   0.47672   0.00000  Uiso   1.00
C65    C     0.44906   0.15242   0.04971   0.00000  Uiso   1.00
C66    C     0.48468   0.06838   0.25118   0.00000  Uiso   1.00
C67    C     0.55094   0.18092   0.45029   0.00000  Uiso   1.00
C68    C     0.60052   0.20273   0.01656   0.00000  Uiso   1.00
C69    C     0.39948   0.13060   0.48344   0.00000  Uiso   1.00
C70    C     0.59284   0.26336   0.12003   0.00000  Uiso   1.00
C71    C     0.40716   0.06997   0.37997   0.00000  Uiso   1.00
C72    C     0.60082   0.19945   0.47025   0.00000  Uiso   1.00
C73    C     0.39918   0.13389   0.02975   0.00000  Uiso   1.00
C74    C     0.52338   0.31945   0.24802   0.00000  Uiso   1.00
C75    C     0.47662   0.01389   0.25198   0.00000  Uiso   1.00
C76    C     0.50022   0.16522   0.33656   0.00000  Uiso   1.00
C77    C     0.49978   0.16811   0.16344   0.00000  Uiso   1.00
C78    C     0.44932   0.15405   0.09580   0.00000  Uiso   1.00
H79    H     0.41100   0.14015   0.11625   0.00000  Uiso   1.00
H80    H     0.66191   0.20574   0.28401   0.00000  Uiso   1.00
H81    H     0.59034   0.28584   0.08899   0.00000  Uiso   1.00
H82    H     0.63185   0.27885   0.13625   0.00000  Uiso   1.00
H83    H     0.55467   0.26974   0.14391   0.00000  Uiso   1.00
H84    H     0.36816   0.05448   0.36375   0.00000  Uiso   1.00
H85    H     0.40965   0.04749   0.41101   0.00000  Uiso   1.00
H86    H     0.44533   0.06360   0.35610   0.00000  Uiso   1.00
H87    H     0.58900   0.19319   0.38375   0.00000  Uiso   1.00
H88    H     0.63974   0.21716   0.03121   0.00000  Uiso   1.00
H89    H     0.36026   0.11617   0.46879   0.00000  Uiso   1.00
H90    H     0.63996   0.21159   0.45005   0.00000  Uiso   1.00
H91    H     0.36004   0.12174   0.04995   0.00000  Uiso   1.00
H92    H     0.56751   0.00319   0.24415   0.00000  Uiso   1.00
H93    H     0.43249   0.33014   0.25585   0.00000  Uiso   1.00
H94    H     0.33809   0.12759   0.21599   0.00000  Uiso   1.00
N95    N     0.65011   0.15265   0.23783   0.00000  Uiso   1.00
N96    N     0.34989   0.18068   0.26217   0.00000  Uiso   1.00
O97    O     0.46308   0.24619   0.25299   0.00000  Uiso   1.00
O98    O     0.40185   0.12343   0.38985   0.00000  Uiso   1.00
O99    O     0.53692   0.08714   0.24702   0.00000  Uiso   1.00
O100   O     0.55946   0.23721   0.24519   0.00000  Uiso   1.00
O101   O     0.44054   0.09613   0.25482   0.00000  Uiso   1.00
O102   O     0.45181   0.17117   0.31998   0.00000  Uiso   1.00
O103   O     0.54819   0.16216   0.18003   0.00000  Uiso   1.00
O104   O     0.54819   0.16219   0.31218   0.00000  Uiso   1.00
O105   O     0.45181   0.17115   0.18783   0.00000  Uiso   1.00
O106   O     0.59815   0.20990   0.11015   0.00000  Uiso   1.00
Zn107  Zn    0.43565   0.17266   0.25521   0.00000  Uiso   1.00
Zn108  Zn    0.56435   0.16067   0.24479   0.00000  Uiso   1.00
C109   C     0.84865   0.26495   0.24882   0.00000  Uiso   1.00
C110   C     0.88401   0.17928   0.40420   0.00000  Uiso   1.00
C111   C     0.83281   0.17144   0.11567   0.00000  Uiso   1.00
C112   C     0.83386   0.16190   0.38433   0.00000  Uiso   1.00
C113   C     0.88270   0.19063   0.08991   0.00000  Uiso   1.00
C114   C     0.78397   0.14270   0.41009   0.00000  Uiso   1.00
C115   C     0.88356   0.18748   0.04335   0.00000  Uiso   1.00
C116   C     0.78310   0.14586   0.45665   0.00000  Uiso   1.00
C117   C     0.83315   0.16834   0.02328   0.00000  Uiso   1.00
C118   C     0.83351   0.16499   0.47672   0.00000  Uiso   1.00
C119   C     0.78239   0.15242   0.04971   0.00000  Uiso   1.00
C120   C     0.81802   0.06838   0.25118   0.00000  Uiso   1.00
C121   C     0.88428   0.18092   0.45029   0.00000  Uiso   1.00
C122   C     0.93385   0.20273   0.01656   0.00000  Uiso   1.00
C123   C     0.73282   0.13060   0.48344   0.00000  Uiso   1.00
C124   C     0.92617   0.26336   0.12003   0.00000  Uiso   1.00
C125   C     0.74050   0.06997   0.37997   0.00000  Uiso   1.00
C126   C     0.93415   0.19945   0.47025   0.00000  Uiso   1.00
C127   C     0.73251   0.13389   0.02975   0.00000  Uiso   1.00
C128   C     0.85671   0.31945   0.24802   0.00000  Uiso   1.00
C129   C     0.80995   0.01389   0.25198   0.00000  Uiso   1.00
C130   C     0.83355   0.16522   0.33656   0.00000  Uiso   1.00
C131   C     0.83312   0.16811   0.16344   0.00000  Uiso   1.00
C132   C     0.78266   0.15405   0.09580   0.00000  Uiso   1.00
H133   H     0.74433   0.14015   0.11625   0.00000  Uiso   1.00
H134   H     0.99525   0.20574   0.28401   0.00000  Uiso   1.00
H135   H     0.92367   0.28584   0.08899   0.00000  Uiso   1.00
H136   H     0.96518   0.27885   0.13625   0.00000  Uiso   1.00
H137   H     0.88800   0.26974   0.14391   0.00000  Uiso   1.00
H138   H     0.70149   0.05448   0.36375   0.00000  Uiso   1.00
H139   H     0.74299   0.04749   0.41101   0.00000  Uiso   1.00
H140   H     0.77867   0.06360   0.35610   0.00000  Uiso   1.00
H141   H     0.92233   0.19319   0.38375   0.00000  Uiso   1.00
H142   H     0.97307   0.21716   0.03121   0.00000  Uiso   1.00
H143   H     0.69360   0.11617   0.46879   0.00000  Uiso   1.00
H144   H     0.97329   0.21159   0.45005   0.00000  Uiso   1.00
H145   H     0.69337   0.12174   0.04995   0.00000  Uiso   1.00
H146   H     0.90085   0.00319   0.24415   0.00000  Uiso   1.00
H147   H     0.76582   0.33014   0.25585   0.00000  Uiso   1.00
H148   H     0.67142   0.12759   0.21599   0.00000  Uiso   1.00
N149   N     0.98344   0.15265   0.23783   0.00000  Uiso   1.00
N150   N     0.68322   0.18068   0.26217   0.00000  Uiso   1.00
O151   O     0.79642   0.24619   0.25299   0.00000  Uiso   1.00
O152   O     0.73518   0.12343   0.38985   0.00000  Uiso   1.00
O153   O     0.87025   0.08714   0.24702   0.00000  Uiso   1.00
O154   O     0.89280   0.23721   0.24519   0.00000  Uiso   1.00
O155   O     0.77387   0.09613   0.25482   0.00000  Uiso   1.00
O156   O     0.78514   0.17117   0.31998   0.00000  Uiso   1.00
O157   O     0.88153   0.16216   0.18003   0.00000  Uiso   1.00
O158   O     0.88152   0.16219   0.31218   0.00000  Uiso   1.00
O159   O     0.78515   0.17115   0.18783   0.00000  Uiso   1.00
O160   O     0.93148   0.20990   0.11015   0.00000  Uiso   1.00
Zn161  Zn    0.76898   0.17266   0.25521   0.00000  Uiso   1.00
Zn162  Zn    0.89769   0.16067   0.24479   0.00000  Uiso   1.00
C163   C     0.18198   0.59828   0.24882   0.00000  Uiso   1.00
C164   C     0.21734   0.51261   0.40420   0.00000  Uiso   1.00
C165   C     0.16614   0.50477   0.11567   0.00000  Uiso   1.00
C166   C     0.16719   0.49523   0.38433   0.00000  Uiso   1.00
C167   C     0.21603   0.52397   0.08991   0.00000  Uiso   1.00
C168   C     0.11730   0.47603   0.41009   0.00000  Uiso   1.00
C169   C     0.21689   0.52081   0.04335   0.00000  Uiso   1.00
C170   C     0.11644   0.47919   0.45665   0.00000  Uiso   1.00
C171   C     0.16648   0.50168   0.02328   0.00000  Uiso   1.00
C172   C     0.16685   0.49832   0.47672   0.00000  Uiso   1.00
C173   C     0.11572   0.48575   0.04971   0.00000  Uiso   1.00
C174   C     0.15135   0.40172   0.25118   0.00000  Uiso   1.00
C175   C     0.21761   0.51425   0.45029   0.00000  Uiso   1.00
C176   C     0.26718   0.53607   0.01656   0.00000  Uiso   1.00
C177   C     0.06615   0.46393   0.48344   0.00000  Uiso   1.00
C178   C     0.25951   0.59670   0.12003   0.00000  Uiso   1.00
C179   C     0.07383   0.40330   0.37997   0.00000  Uiso   1.00
C180   C     0.26749   0.53278   0.47025   0.00000  Uiso   1.00
C181   C     0.06584   0.46722   0.02975   0.00000  Uiso   1.00
C182   C     0.19005   0.65278   0.24802   0.00000  Uiso   1.00
C183   C     0.14328   0.34722   0.25198   0.00000  Uiso   1.00
C184   C     0.16688   0.49856   0.33656   0.00000  Uiso   1.00
C185   C     0.16645   0.50144   0.16344   0.00000  Uiso   1.00
C186   C     0.11599   0.48739   0.09580   0.00000  Uiso   1.00
H187   H     0.07767   0.47348   0.11625   0.00000  Uiso   1.00
H188   H     0.32858   0.53907   0.28401   0.00000  Uiso   1.00
H189   H     0.25701   0.61918   0.08899   0.00000  Uiso   1.00
H190   H     0.29852   0.61218   0.13625   0.00000  Uiso   1.00
H191   H     0.22134   0.60307   0.14391   0.00000  Uiso   1.00
H192   H     0.03482   0.38782   0.36375   0.00000  Uiso   1.00
H193   H     0.07632   0.38082   0.41101   0.00000  Uiso   1.00
H194   H     0.11200   0.39693   0.35610   0.00000  Uiso   1.00
H195   H     0.25567   0.52652   0.38375   0.00000  Uiso   1.00
H196   H     0.30640   0.55049   0.03121   0.00000  Uiso   1.00
H197   H     0.02693   0.44951   0.46879   0.00000  Uiso   1.00
H198   H     0.30663   0.54492   0.45005   0.00000  Uiso   1.00
H199   H     0.02671   0.45508   0.04995   0.00000  Uiso   1.00
H200   H     0.23418   0.33653   0.24415   0.00000  Uiso   1.00
H201   H     0.09915   0.66347   0.25585   0.00000  Uiso   1.00
H202   H     0.00475   0.46093   0.21599   0.00000  Uiso   1.00
N203   N     0.31678   0.48598   0.23783   0.00000  Uiso   1.00
N204   N     0.01656   0.51402   0.26217   0.00000  Uiso   1.00
O205   O     0.12975   0.57952   0.25299   0.00000  Uiso   1.00
O206   O     0.06852   0.45677   0.38985   0.00000  Uiso   1.00
O207   O     0.20358   0.42048   0.24702   0.00000  Uiso   1.00
O208   O     0.22613   0.57054   0.24519   0.00000  Uiso   1.00
O209   O     0.10720   0.42946   0.25482   0.00000  Uiso   1.00
O210   O     0.11847   0.50450   0.31998   0.00000  Uiso   1.00
O211   O     0.21486   0.49550   0.18003   0.00000  Uiso   1.00
O212   O     0.21485   0.49552   0.31218   0.00000  Uiso   1.00
O213   O     0.11848   0.50448   0.18783   0.00000  Uiso   1.00
O214   O     0.26482   0.54323   0.11015   0.00000  Uiso   1.00
Zn215  Zn    0.10231   0.50600   0.25521   0.00000  Uiso   1.00
Zn216  Zn    0.23102   0.49400   0.24479   0.00000  Uiso   1.00
C217   C     0.51532   0.59828   0.24882   0.00000  Uiso   1.00
C218   C     0.55068   0.51261   0.40420   0.00000  Uiso   1.00
C219   C     0.49948   0.50477   0.11567   0.00000  Uiso   1.00
C220   C     0.50052   0.49523   0.38433   0.00000  Uiso   1.00
C221   C     0.54936   0.52397   0.08991   0.00000  Uiso   1.00
C222   C     0.45064   0.47603   0.41009   0.00000  Uiso   1.00
C223   C     0.55023   0.52081   0.04335   0.00000  Uiso   1.00
C224   C     0.44977   0.47919   0.45665   0.00000  Uiso   1.00
C225   C     0.49982   0.50168   0.02328   0.00000  Uiso   1.00
C226   C     0.50018   0.49832   0.47672   0.00000  Uiso   1.00
C227   C     0.44906   0.48575   0.04971   0.00000  Uiso   1.00
C228   C     0.48468   0.40172   0.25118   0.00000  Uiso   1.00
C229   C     0.55094   0.51425   0.45029   0.00000  Uiso   1.00
C230   C     0.60052   0.53607   0.01656   0.00000  Uiso   1.00
C231   C     0.39948   0.46393   0.48344   0.00000  Uiso   1.00
C232   C     0.59284   0.59670   0.12003   0.00000  Uiso   1.00
C233   C     0.40716   0.40330   0.37997   0.00000  Uiso   1.00
C234   C     0.60082   0.53278   0.47025   0.00000  Uiso   1.00
C235   C     0.39918   0.46722   0.02975   0.00000  Uiso   1.00
C236   C     0.52338   0.65278   0.24802   0.00000  Uiso   1.00
C237   C     0.47662   0.34722   0.25198   0.00000  Uiso   1.00
C238   C     0.50022   0.49856   0.33656   0.00000  Uiso   1.00
C239   C     0.49978   0.50144   0.16344   0.00000  Uiso   1.00
C240   C     0.44932   0.48739   0.09580   0.00000  Uiso   1.00
H241   H     0.41100   0.47348   0.11625   0.00000  Uiso   1.00
H242   H     0.66191   0.53907   0.28401   0.00000  Uiso   1.00
H243   H     0.59034   0.61918   0.08899   0.00000  Uiso   1.00
H244   H     0.63185   0.61218   0.13625   0.00000  Uiso   1.00
H245   H     0.55467   0.60307   0.14391   0.00000  Uiso   1.00
H246   H     0.36816   0.38782   0.36375   0.00000  Uiso   1.00
H247   H     0.40965   0.38082   0.41101   0.00000  Uiso   1.00
H248   H     0.44533   0.39693   0.35610   0.00000  Uiso   1.00
H249   H     0.58900   0.52652   0.38375   0.00000  Uiso   1.00
H250   H     0.63974   0.55049   0.03121   0.00000  Uiso   1.00
H251   H     0.36026   0.44951   0.46879   0.00000  Uiso   1.00
H252   H     0.63996   0.54492   0.45005   0.00000  Uiso   1.00
H253   H     0.36004   0.45508   0.04995   0.00000  Uiso   1.00
H254   H     0.56751   0.33653   0.24415   0.00000  Uiso   1.00
H255   H     0.43249   0.66347   0.25585   0.00000  Uiso   1.00
H256   H     0.33809   0.46093   0.21599   0.00000  Uiso   1.00
N257   N     0.65011   0.48598   0.23783   0.00000  Uiso   1.00
N258   N     0.34989   0.51402   0.26217   0.00000  Uiso   1.00
O259   O     0.46308   0.57952   0.25299   0.00000  Uiso   1.00
O260   O     0.40185   0.45677   0.38985   0.00000  Uiso   1.00
O261   O     0.53692   0.42048   0.24702   0.00000  Uiso   1.00
O262   O     0.55946   0.57054   0.24519   0.00000  Uiso   1.00
O263   O     0.44054   0.42946   0.25482   0.00000  Uiso   1.00
O264   O     0.45181   0.50450   0.31998   0.00000  Uiso   1.00
O265   O     0.54819   0.49550   0.18003   0.00000  Uiso   1.00
O266   O     0.54819   0.49552   0.31218   0.00000  Uiso   1.00
O267   O     0.45181   0.50448   0.18783   0.00000  Uiso   1.00
O268   O     0.59815   0.54323   0.11015   0.00000  Uiso   1.00
Zn269  Zn    0.43565   0.50600   0.25521   0.00000  Uiso   1.00
Zn270  Zn    0.56435   0.49400   0.24479   0.00000  Uiso   1.00
C271   C     0.84865   0.59828   0.24882   0.00000  Uiso   1.00
C272   C     0.88401   0.51261   0.40420   0.00000  Uiso   1.00
C273   C     0.83281   0.50477   0.11567   0.00000  Uiso   1.00
C274   C     0.83386   0.49523   0.38433   0.00000  Uiso   1.00
C275   C     0.88270   0.52397   0.08991   0.00000  Uiso   1.00
C276   C     0.78397   0.47603   0.41009   0.00000  Uiso   1.00
C277   C     0.88356   0.52081   0.04335   0.00000  Uiso   1.00
C278   C     0.78310   0.47919   0.45665   0.00000  Uiso   1.00
C279   C     0.83315   0.50168   0.02328   0.00000  Uiso   1.00
C280   C     0.83351   0.49832   0.47672   0.00000  Uiso   1.00
C281   C     0.78239   0.48575   0.04971   0.00000  Uiso   1.00
C282   C     0.81802   0.40172   0.25118   0.00000  Uiso   1.00
C283   C     0.88428   0.51425   0.45029   0.00000  Uiso   1.00
C284   C     0.93385   0.53607   0.01656   0.00000  Uiso   1.00
C285   C     0.73282   0.46393   0.48344   0.00000  Uiso   1.00
C286   C     0.92617   0.59670   0.12003   0.00000  Uiso   1.00
C287   C     0.74050   0.40330   0.37997   0.00000  Uiso   1.00
C288   C     0.93415   0.53278   0.47025   0.00000  Uiso   1.00
C289   C     0.73251   0.46722   0.02975   0.00000  Uiso   1.00
C290   C     0.85671   0.65278   0.24802   0.00000  Uiso   1.00
C291   C     0.80995   0.34722   0.25198   0.00000  Uiso   1.00
C292   C     0.83355   0.49856   0.33656   0.00000  Uiso   1.00
C293   C     0.83312   0.50144   0.16344   0.00000  Uiso   1.00
C294   C     0.78266   0.48739   0.09580   0.00000  Uiso   1.00
H295   H     0.74433   0.47348   0.11625   0.00000  Uiso   1.00
H296   H     0.99525   0.53907   0.28401   0.00000  Uiso   1.00
H297   H     0.92367   0.61918   0.08899   0.00000  Uiso   1.00
H298   H     0.96518   0.61218   0.13625   0.00000  Uiso   1.00
H299   H     0.88800   0.60307   0.14391   0.00000  Uiso   1.00
H300   H     0.70149   0.38782   0.36375   0.00000  Uiso   1.00
H301   H     0.74299   0.38082   0.41101   0.00000  Uiso   1.00
H302   H     0.77867   0.39693   0.35610   0.00000  Uiso   1.00
H303   H     0.92233   0.52652   0.38375   0.00000  Uiso   1.00
H304   H     0.97307   0.55049   0.03121   0.00000  Uiso   1.00
H305   H     0.69360   0.44951   0.46879   0.00000  Uiso   1.00
H306   H     0.97329   0.54492   0.45005   0.00000  Uiso   1.00
H307   H     0.69337   0.45508   0.04995   0.00000  Uiso   1.00
H308   H     0.90085   0.33653   0.24415   0.00000  Uiso   1.00
H309   H     0.76582   0.66347   0.25585   0.00000  Uiso   1.00
H310   H     0.67142   0.46093   0.21599   0.00000  Uiso   1.00
N311   N     0.98344   0.48598   0.23783   0.00000  Uiso   1.00
N312   N     0.68322   0.51402   0.26217   0.00000  Uiso   1.00
O313   O     0.79642   0.57952   0.25299   0.00000  Uiso   1.00
O314   O     0.73518   0.45677   0.38985   0.00000  Uiso   1.00
O315   O     0.87025   0.42048   0.24702   0.00000  Uiso   1.00
O316   O     0.89280   0.57054   0.24519   0.00000  Uiso   1.00
O317   O     0.77387   0.42946   0.25482   0.00000  Uiso   1.00
O318   O     0.78514   0.50450   0.31998   0.00000  Uiso   1.00
O319   O     0.88153   0.49550   0.18003   0.00000  Uiso   1.00
O320   O     0.88152   0.49552   0.31218   0.00000  Uiso   1.00
O321   O     0.78515   0.50448   0.18783   0.00000  Uiso   1.00
O322   O     0.93148   0.54323   0.11015   0.00000  Uiso   1.00
Zn323  Zn    0.76898   0.50600   0.25521   0.00000  Uiso   1.00
Zn324  Zn    0.89769   0.49400   0.24479   0.00000  Uiso   1.00
C325   C     0.18198   0.93162   0.24882   0.00000  Uiso   1.00
C326   C     0.21734   0.84595   0.40420   0.00000  Uiso   1.00
C327   C     0.16614   0.83810   0.11567   0.00000  Uiso   1.00
C328   C     0.16719   0.82856   0.38433   0.00000  Uiso   1.00
C329   C     0.21603   0.85730   0.08991   0.00000  Uiso   1.00
C330   C     0.11730   0.80937   0.41009   0.00000  Uiso   1.00
C331   C     0.21689   0.85414   0.04335   0.00000  Uiso   1.00
C332   C     0.11644   0.81252   0.45665   0.00000  Uiso   1.00
C333   C     0.16648   0.83501   0.02328   0.00000  Uiso   1.00
C334   C     0.16685   0.83165   0.47672   0.00000  Uiso   1.00
C335   C     0.11572   0.81908   0.04971   0.00000  Uiso   1.00
C336   C     0.15135   0.73505   0.25118   0.00000  Uiso   1.00
C337   C     0.21761   0.84758   0.45029   0.00000  Uiso   1.00
C338   C     0.26718   0.86940   0.01656   0.00000  Uiso   1.00
C339   C     0.06615   0.79727   0.48344   0.00000  Uiso   1.00
C340   C     0.25951   0.93003   0.12003   0.00000  Uiso   1.00
C341   C     0.07383   0.73664   0.37997   0.00000  Uiso   1.00
C342   C     0.26749   0.86611   0.47025   0.00000  Uiso   1.00
C343   C     0.06584   0.80055   0.02975   0.00000  Uiso   1.00
C344   C     0.19005   0.98611   0.24802   0.00000  Uiso   1.00
C345   C     0.14328   0.68055   0.25198   0.00000  Uiso   1.00
C346   C     0.16688   0.83189   0.33656   0.00000  Uiso   1.00
C347   C     0.16645   0.83478   0.16344   0.00000  Uiso   1.00
C348   C     0.11599   0.82072   0.09580   0.00000  Uiso   1.00
H349   H     0.07767   0.80682   0.11625   0.00000  Uiso   1.00
H350   H     0.32858   0.87241   0.28401   0.00000  Uiso   1.00
H351   H     0.25701   0.95251   0.08899   0.00000  Uiso   1.00
H352   H     0.29852   0.94552   0.13625   0.00000  Uiso   1.00
H353   H     0.22134   0.93640   0.14391   0.00000  Uiso   1.00
H354   H     0.03482   0.72115   0.36375   0.00000  Uiso   1.00
H355   H     0.07632   0.71416   0.41101   0.00000  Uiso   1.00
H356   H     0.11200   0.73026   0.35610   0.00000  Uiso   1.00
H357   H     0.25567   0.85985   0.38375   0.00000  Uiso   1.00
H358   H     0.30640   0.88383   0.03121   0.00000  Uiso   1.00
H359   H     0.02693   0.78284   0.46879   0.00000  Uiso   1.00
H360   H     0.30663   0.87826   0.45005   0.00000  Uiso   1.00
H361   H     0.02671   0.78841   0.04995   0.00000  Uiso   1.00
H362   H     0.23418   0.66986   0.24415   0.00000  Uiso   1.00
H363   H     0.09915   0.99681   0.25585   0.00000  Uiso   1.00
H364   H     0.00475   0.79426   0.21599   0.00000  Uiso   1.00
N365   N     0.31678   0.81932   0.23783   0.00000  Uiso   1.00
N366   N     0.01656   0.84735   0.26217   0.00000  Uiso   1.00
O367   O     0.12975   0.91286   0.25299   0.00000  Uiso   1.00
O368   O     0.06852   0.79010   0.38985   0.00000  Uiso   1.00
O369   O     0.20358   0.75381   0.24702   0.00000  Uiso   1.00
O370   O     0.22613   0.90387   0.24519   0.00000  Uiso   1.00
O371   O     0.10720   0.76279   0.25482   0.00000  Uiso   1.00
O372   O     0.11847   0.83784   0.31998   0.00000  Uiso   1.00
O373   O     0.21486   0.82883   0.18003   0.00000  Uiso   1.00
O374   O     0.21485   0.82885   0.31218   0.00000  Uiso   1.00
O375   O     0.11848   0.83781   0.18783   0.00000  Uiso   1.00
O376   O     0.26482   0.87656   0.11015   0.00000  Uiso   1.00
Zn377  Zn    0.10231   0.83933   0.25521   0.00000  Uiso   1.00
Zn378  Zn    0.23102   0.82734   0.24479   0.00000  Uiso   1.00
C379   C     0.51532   0.93162   0.24882   0.00000  Uiso   1.00
C380   C     0.55068   0.84595   0.40420   0.00000  Uiso   1.00
C381   C     0.49948   0.83810   0.11567   0.00000  Uiso   1.00
C382   C     0.50052   0.82856   0.38433   0.00000  Uiso   1.00
C383   C     0.54936   0.85730   0.08991   0.00000  Uiso   1.00
C384   C     0.45064   0.80937   0.41009   0.00000  Uiso   1.00
C385   C     0.55023   0.85414   0.04335   0.00000  Uiso   1.00
C386   C     0.44977   0.81252   0.45665   0.00000  Uiso   1.00
C387   C     0.49982   0.83501   0.02328   0.00000  Uiso   1.00
C388   C     0.50018   0.83165   0.47672   0.00000  Uiso   1.00
C389   C     0.44906   0.81908   0.04971   0.00000  Uiso   1.00
C390   C     0.48468   0.73505   0.25118   0.00000  Uiso   1.00
C391   C     0.55094   0.84758   0.45029   0.00000  Uiso   1.00
C392   C     0.60052   0.86940   0.01656   0.00000  Uiso   1.00
C393   C     0.39948   0.79727   0.48344   0.00000  Uiso   1.00
C394   C     0.59284   0.93003   0.12003   0.00000  Uiso   1.00
C395   C     0.40716   0.73664   0.37997   0.00000  Uiso   1.00
C396   C     0.60082   0.86611   0.47025   0.00000  Uiso   1.00
C397   C     0.39918   0.80055   0.02975   0.00000  Uiso   1.00
C398   C     0.52338   0.98611   0.24802   0.00000  Uiso   1.00
C399   C     0.47662   0.68055   0.25198   0.00000  Uiso   1.00
C400   C     0.50022   0.83189   0.33656   0.00000  Uiso   1.00
C401   C     0.49978   0.83478   0.16344   0.00000  Uiso   1.00
C402   C     0.44932   0.82072   0.09580   0.00000  Uiso   1.00
H403   H     0.41100   0.80682   0.11625   0.00000  Uiso   1.00
H404   H     0.66191   0.87241   0.28401   0.00000  Uiso   1.00
H405   H     0.59034   0.95251   0.08899   0.00000  Uiso   1.00
H406   H     0.63185   0.94552   0.13625   0.00000  Uiso   1.00
H407   H     0.55467   0.93640   0.14391   0.00000  Uiso   1.00
H408   H     0.36816   0.72115   0.36375   0.00000  Uiso   1.00
H409   H     0.40965   0.71416   0.41101   0.00000  Uiso   1.00
H410   H     0.44533   0.73026   0.35610   0.00000  Uiso   1.00
H411   H     0.58900   0.85985   0.38375   0.00000  Uiso   1.00
H412   H     0.63974   0.88383   0.03121   0.00000  Uiso   1.00
H413   H     0.36026   0.78284   0.46879   0.00000  Uiso   1.00
H414   H     0.63996   0.87826   0.45005   0.00000  Uiso   1.00
H415   H     0.36004   0.78841   0.04995   0.00000  Uiso   1.00
H416   H     0.56751   0.66986   0.24415   0.00000  Uiso   1.00
H417   H     0.43249   0.99681   0.25585   0.00000  Uiso   1.00
H418   H     0.33809   0.79426   0.21599   0.00000  Uiso   1.00
N419   N     0.65011   0.81932   0.23783   0.00000  Uiso   1.00
N420   N     0.34989   0.84735   0.26217   0.00000  Uiso   1.00
O421   O     0.46308   0.91286   0.25299   0.00000  Uiso   1.00
O422   O     0.40185   0.79010   0.38985   0.00000  Uiso   1.00
O423   O     0.53692   0.75381   0.24702   0.00000  Uiso   1.00
O424   O     0.55946   0.90387   0.24519   0.00000  Uiso   1.00
O425   O     0.44054   0.76279   0.25482   0.00000  Uiso   1.00
O426   O     0.45181   0.83784   0.31998   0.00000  Uiso   1.00
O427   O     0.54819   0.82883   0.18003   0.00000  Uiso   1.00
O428   O     0.54819   0.82885   0.31218   0.00000  Uiso   1.00
O429   O     0.45181   0.83781   0.18783   0.00000  Uiso   1.00
O430   O     0.59815   0.87656   0.11015   0.00000  Uiso   1.00
Zn431  Zn    0.43565   0.83933   0.25521   0.00000  Uiso   1.00
Zn432  Zn    0.56435   0.82734   0.24479   0.00000  Uiso   1.00
C433   C     0.84865   0.93162   0.24882   0.00000  Uiso   1.00
C434   C     0.88401   0.84595   0.40420   0.00000  Uiso   1.00
C435   C     0.83281   0.83810   0.11567   0.00000  Uiso   1.00
C436   C     0.83386   0.82856   0.38433   0.00000  Uiso   1.00
C437   C     0.88270   0.85730   0.08991   0.00000  Uiso   1.00
C438   C     0.78397   0.80937   0.41009   0.00000  Uiso   1.00
C439   C     0.88356   0.85414   0.04335   0.00000  Uiso   1.00
C440   C     0.78310   0.81252   0.45665   0.00000  Uiso   1.00
C441   C     0.83315   0.83501   0.02328   0.00000  Uiso   1.00
C442   C     0.83351   0.83165   0.47672   0.00000  Uiso   1.00
C443   C     0.78239   0.81908   0.04971   0.00000  Uiso   1.00
C444   C     0.81802   0.73505   0.25118   0.00000  Uiso   1.00
C445   C     0.88428   0.84758   0.45029   0.00000  Uiso   1.00
C446   C     0.93385   0.86940   0.01656   0.00000  Uiso   1.00
C447   C     0.73282   0.79727   0.48344   0.00000  Uiso   1.00
C448   C     0.92617   0.93003   0.12003   0.00000  Uiso   1.00
C449   C     0.74050   0.73664   0.37997   0.00000  Uiso   1.00
C450   C     0.93415   0.86611   0.47025   0.00000  Uiso   1.00
C451   C     0.73251   0.80055   0.02975   0.00000  Uiso   1.00
C452   C     0.85671   0.98611   0.24802   0.00000  Uiso   1.00
C453   C     0.80995   0.68055   0.25198   0.00000  Uiso   1.00
C454   C     0.83355   0.83189   0.33656   0.00000  Uiso   1.00
C455   C     0.83312   0.83478   0.16344   0.00000  Uiso   1.00
C456   C     0.78266   0.82072   0.09580   0.00000  Uiso   1.00
H457   H     0.74433   0.80682   0.11625   0.00000  Uiso   1.00
H458   H     0.99525   0.87241   0.28401   0.00000  Uiso   1.00
H459   H     0.92367   0.95251   0.08899   0.00000  Uiso   1.00
H460   H     0.96518   0.94552   0.13625   0.00000  Uiso   1.00
H461   H     0.88800   0.93640   0.14391   0.00000  Uiso   1.00
H462   H     0.70149   0.72115   0.36375   0.00000  Uiso   1.00
H463   H     0.74299   0.71416   0.41101   0.00000  Uiso   1.00
H464   H     0.77867   0.73026   0.35610   0.00000  Uiso   1.00
H465   H     0.92233   0.85985   0.38375   0.00000  Uiso   1.00
H466   H     0.97307   0.88383   0.03121   0.00000  Uiso   1.00
H467   H     0.69360   0.78284   0.46879   0.00000  Uiso   1.00
H468   H     0.97329   0.87826   0.45005   0.00000  Uiso   1.00
H469   H     0.69337   0.78841   0.04995   0.00000  Uiso   1.00
H470   H     0.90085   0.66986   0.24415   0.00000  Uiso   1.00
H471   H     0.76582   0.99681   0.25585   0.00000  Uiso   1.00
H472   H     0.67142   0.79426   0.21599   0.00000  Uiso   1.00
N473   N     0.98344   0.81932   0.23783   0.00000  Uiso   1.00
N474   N     0.68322   0.84735   0.26217   0.00000  Uiso   1.00
O475   O     0.79642   0.91286   0.25299   0.00000  Uiso   1.00
O476   O     0.73518   0.79010   0.38985   0.00000  Uiso   1.00
O477   O     0.87025   0.75381   0.24702   0.00000  Uiso   1.00
O478   O     0.89280   0.90387   0.24519   0.00000  Uiso   1.00
O479   O     0.77387   0.76279   0.25482   0.00000  Uiso   1.00
O480   O     0.78514   0.83784   0.31998   0.00000  Uiso   1.00
O481   O     0.88153   0.82883   0.18003   0.00000  Uiso   1.00
O482   O     0.88152   0.82885   0.31218   0.00000  Uiso   1.00
O483   O     0.78515   0.83781   0.18783   0.00000  Uiso   1.00
O484   O     0.93148   0.87656   0.11015   0.00000  Uiso   1.00
Zn485  Zn    0.76898   0.83933   0.25521   0.00000  Uiso   1.00
Zn486  Zn    0.89769   0.82734   0.24479   0.00000  Uiso   1.00
C487   C     0.18198   0.26495   0.74882   0.00000  Uiso   1.00
C488   C     0.21734   0.17928   0.90420   0.00000  Uiso   1.00
C489   C     0.16614   0.17144   0.61567   0.00000  Uiso   1.00
C490   C     0.16719   0.16190   0.88433   0.00000  Uiso   1.00
C491   C     0.21603   0.19063   0.58991   0.00000  Uiso   1.00
C492   C     0.11730   0.14270   0.91009   0.00000  Uiso   1.00
C493   C     0.21689   0.18748   0.54335   0.00000  Uiso   1.00
C494   C     0.11644   0.14586   0.95665   0.00000  Uiso   1.00
C495   C     0.16648   0.16834   0.52328   0.00000  Uiso   1.00
C496   C     0.16685   0.16499   0.97672   0.00000  Uiso   1.00
C497   C     0.11572   0.15242   0.54971   0.00000  Uiso   1.00
C498   C     0.15135   0.06838   0.75118   0.00000  Uiso   1.00
C499   C     0.21761   0.18092   0.95029   0.00000  Uiso   1.00
C500   C     0.26718   0.20273   0.51656   0.00000  Uiso   1.00
C501   C     0.06615   0.13060   0.98344   0.00000  Uiso   1.00
C502   C     0.25951   0.26336   0.62003   0.00000  Uiso   1.00
C503   C     0.07383   0.06997   0.87997   0.00000  Uiso   1.00
C504   C     0.26749   0.19945   0.97025   0.00000  Uiso   1.00
C505   C     0.06584   0.13389   0.52975   0.00000  Uiso   1.00
C506   C     0.19005   0.31945   0.74802   0.00000  Uiso   1.00
C507   C     0.14328   0.01389   0.75198   0.00000  Uiso   1.00
C508   C     0.16688   0.16522   0.83656   0.00000  Uiso   1.00
C509   C     0.16645   0.16811   0.66344   0.00000  Uiso   1.00
C510   C     0.11599   0.15405   0.59580   0.00000  Uiso   1.00
H511   H     0.07767   0.14015   0.61625   0.00000  Uiso   1.00
H512   H     0.32858   0.20574   0.78401   0.00000  Uiso   1.00
H513   H     0.25701   0.28584   0.58899   0.00000  Uiso   1.00
H514   H     0.29852   0.27885   0.63625   0.00000  Uiso   1.00
H515   H     0.22134   0.26974   0.64391   0.00000  Uiso   1.00
H516   H     0.03482   0.05448   0.86375   0.00000  Uiso   1.00
H517   H     0.07632   0.04749   0.91101   0.00000  Uiso   1.00
H518   H     0.11200   0.06360   0.85610   0.00000  Uiso   1.00
H519   H     0.25567   0.19319   0.88375   0.00000  Uiso   1.00
H520   H     0.30640   0.21716   0.53121   0.00000  Uiso   1.00
H521   H     0.02693   0.11617   0.96879   0.00000  Uiso   1.00
H522   H     0.30663   0.21159   0.95005   0.00000  Uiso   1.00
H523   H     0.02671   0.12174   0.54995   0.00000  Uiso   1.00
H524   H     0.23418   0.00319   0.74415   0.00000  Uiso   1.00
H525   H     0.09915   0.33014   0.75585   0.00000  Uiso   1.00
H526   H     0.00475   0.12759   0.71599   0.00000  Uiso   1.00
N527   N     0.31678   0.15265   0.73783   0.00000  Uiso   1.00
N528   N     0.01656   0.18068   0.76217   0.00000  Uiso   1.00
O529   O     0.12975   0.24619   0.75299   0.00000  Uiso   1.00
O530   O     0.06852   0.12343   0.88985   0.00000  Uiso   1.00
O531   O     0.20358   0.08714   0.74702   0.00000  Uiso   1.00
O532   O     0.22613   0.23721   0.74519   0.00000  Uiso   1.00
O533   O     0.10720   0.09613   0.75482   0.00000  Uiso   1.00
O534   O     0.11847   0.17117   0.81998   0.00000  Uiso   1.00
O535   O     0.21486   0.16216   0.68003   0.00000  Uiso   1.00
O536   O     0.21485   0.16219   0.81218   0.00000  Uiso   1.00
O537   O     0.11848   0.17115   0.68783   0.00000  Uiso   1.00
O538   O     0.26482   0.20990   0.61015   0.00000  Uiso   1.00
Zn539  Zn    0.10231   0.17266   0.75521   0.00000  Uiso   1.00
Zn540  Zn    0.23102   0.16067   0.74479   0.00000  Uiso   1.00
C541   C     0.51532   0.26495   0.74882   0.00000  Uiso   1.00
C542   C     0.55068   0.17928   0.90420   0.00000  Uiso   1.00
C543   C     0.49948   0.17144   0.61567   0.00000  Uiso   1.00
C544   C     0.50052   0.16190   0.88433   0.00000  Uiso   1.00
C545   C     0.54936   0.19063   0.58991   0.00000  Uiso   1.00
C546   C     0.45064   0.14270   0.91009   0.00000  Uiso   1.00
C547   C     0.55023   0.18748   0.54335   0.00000  Uiso   1.00
C548   C     0.44977   0.14586   0.95665   0.00000  Uiso   1.00
C549   C     0.49982   0.16834   0.52328   0.00000  Uiso   1.00
C550   C     0.50018   0.16499   0.97672   0.00000  Uiso   1.00
C551   C     0.44906   0.15242   0.54971   0.00000  Uiso   1.00
C552   C     0.48468   0.06838   0.75118   0.00000  Uiso   1.00
C553   C     0.55094   0.18092   0.95029   0.00000  Uiso   1.00
C554   C     0.60052   0.20273   0.51656   0.00000  Uiso   1.00
C555   C     0.39948   0.13060   0.98344   0.00000  Uiso   1.00
C556   C     0.59284   0.26336   0.62003   0.00000  Uiso   1.00
C557   C     0.40716   0.06997   0.87997   0.00000  Uiso   1.00
C558   C     0.60082   0.19945   0.97025   0.00000  Uiso   1.00
C559   C     0.39918   0.13389   0.52975   0.00000  Uiso   1.00
C560   C     0.52338   0.31945   0.74802   0.00000  Uiso   1.00
C561   C     0.47662   0.01389   0.75198   0.00000  Uiso   1.00
C562   C     0.50022   0.16522   0.83656   0.00000  Uiso   1.00
C563   C     0.49978   0.16811   0.66344   0.00000  Uiso   1.00
C564   C     0.44932   0.15405   0.59580   0.00000  Uiso   1.00
H565   H     0.41100   0.14015   0.61625   0.00000  Uiso   1.00
H566   H     0.66191   0.20574   0.78401   0.00000  Uiso   1.00
H567   H     0.59034   0.28584   0.58899   0.00000  Uiso   1.00
H568   H     0.63185   0.27885   0.63625   0.00000  Uiso   1.00
H569   H     0.55467   0.26974   0.64391   0.00000  Uiso   1.00
H570   H     0.36816   0.05448   0.86375   0.00000  Uiso   1.00
H571   H     0.40965   0.04749   0.91101   0.00000  Uiso   1.00
H572   H     0.44533   0.06360   0.85610   0.00000  Uiso   1.00
H573   H     0.58900   0.19319   0.88375   0.00000  Uiso   1.00
H574   H     0.63974   0.21716   0.53121   0.00000  Uiso   1.00
H575   H     0.36026   0.11617   0.96879   0.00000  Uiso   1.00
H576   H     0.63996   0.21159   0.95005   0.00000  Uiso   1.00
H577   H     0.36004   0.12174   0.54995   0.00000  Uiso   1.00
H578   H     0.56751   0.00319   0.74415   0.00000  Uiso   1.00
H579   H     0.43249   0.33014   0.75585   0.00000  Uiso   1.00
H580   H     0.33809   0.12759   0.71599   0.00000  Uiso   1.00
N581   N     0.65011   0.15265   0.73783   0.00000  Uiso   1.00
N582   N     0.34989   0.18068   0.76217   0.00000  Uiso   1.00
O583   O     0.46308   0.24619   0.75299   0.00000  Uiso   1.00
O584   O     0.40185   0.12343   0.88985   0.00000  Uiso   1.00
O585   O     0.53692   0.08714   0.74702   0.00000  Uiso   1.00
O586   O     0.55946   0.23721   0.74519   0.00000  Uiso   1.00
O587   O     0.44054   0.09613   0.75482   0.00000  Uiso   1.00
O588   O     0.45181   0.17117   0.81998   0.00000  Uiso   1.00
O589   O     0.54819   0.16216   0.68003   0.00000  Uiso   1.00
O590   O     0.54819   0.16219   0.81218   0.00000  Uiso   1.00
O591   O     0.45181   0.17115   0.68783   0.00000  Uiso   1.00
O592   O     0.59815   0.20990   0.61015   0.00000  Uiso   1.00
Zn593  Zn    0.43565   0.17266   0.75521   0.00000  Uiso   1.00
Zn594  Zn    0.56435   0.16067   0.74479   0.00000  Uiso   1.00
C595   C     0.84865   0.26495   0.74882   0.00000  Uiso   1.00
C596   C     0.88401   0.17928   0.90420   0.00000  Uiso   1.00
C597   C     0.83281   0.17144   0.61567   0.00000  Uiso   1.00
C598   C     0.83386   0.16190   0.88433   0.00000  Uiso   1.00
C599   C     0.88270   0.19063   0.58991   0.00000  Uiso   1.00
C600   C     0.78397   0.14270   0.91009   0.00000  Uiso   1.00
C601   C     0.88356   0.18748   0.54335   0.00000  Uiso   1.00
C602   C     0.78310   0.14586   0.95665   0.00000  Uiso   1.00
C603   C     0.83315   0.16834   0.52328   0.00000  Uiso   1.00
C604   C     0.83351   0.16499   0.97672   0.00000  Uiso   1.00
C605   C     0.78239   0.15242   0.54971   0.00000  Uiso   1.00
C606   C     0.81802   0.06838   0.75118   0.00000  Uiso   1.00
C607   C     0.88428   0.18092   0.95029   0.00000  Uiso   1.00
C608   C     0.93385   0.20273   0.51656   0.00000  Uiso   1.00
C609   C     0.73282   0.13060   0.98344   0.00000  Uiso   1.00
C610   C     0.92617   0.26336   0.62003   0.00000  Uiso   1.00
C611   C     0.74050   0.06997   0.87997   0.00000  Uiso   1.00
C612   C     0.93415   0.19945   0.97025   0.00000  Uiso   1.00
C613   C     0.73251   0.13389   0.52975   0.00000  Uiso   1.00
C614   C     0.85671   0.31945   0.74802   0.00000  Uiso   1.00
C615   C     0.80995   0.01389   0.75198   0.00000  Uiso   1.00
C616   C     0.83355   0.16522   0.83656   0.00000  Uiso   1.00
C617   C     0.83312   0.16811   0.66344   0.00000  Uiso   1.00
C618   C     0.78266   0.15405   0.59580   0.00000  Uiso   1.00
H619   H     0.74433   0.14015   0.61625   0.00000  Uiso   1.00
H620   H     0.99525   0.20574   0.78401   0.00000  Uiso   1.00
H621   H     0.92367   0.28584   0.58899   0.00000  Uiso   1.00
H622   H     0.96518   0.27885   0.63625   0.00000  Uiso   1.00
H623   H     0.88800   0.26974   0.64391   0.00000  Uiso   1.00
H624   H     0.70149   0.05448   0.86375   0.00000  Uiso   1.00
H625   H     0.74299   0.04749   0.91101   0.00000  Uiso   1.00
H626   H     0.77867   0.06360   0.85610   0.00000  Uiso   1.00
H627   H     0.92233   0.19319   0.88375   0.00000  Uiso   1.00
H628   H     0.97307   0.21716   0.53121   0.00000  Uiso   1.00
H629   H     0.69360   0.11617   0.96879   0.00000  Uiso   1.00
H630   H     0.97329   0.21159   0.95005   0.00000  Uiso   1.00
H631   H     0.69337   0.12174   0.54995   0.00000  Uiso   1.00
H632   H     0.90085   0.00319   0.74415   0.00000  Uiso   1.00
H633   H     0.76582   0.33014   0.75585   0.00000  Uiso   1.00
H634   H     0.67142   0.12759   0.71599   0.00000  Uiso   1.00
N635   N     0.98344   0.15265   0.73783   0.00000  Uiso   1.00
N636   N     0.68322   0.18068   0.76217   0.00000  Uiso   1.00
O637   O     0.79642   0.24619   0.75299   0.00000  Uiso   1.00
O638   O     0.73518   0.12343   0.88985   0.00000  Uiso   1.00
O639   O     0.87025   0.08714   0.74702   0.00000  Uiso   1.00
O640   O     0.89280   0.23721   0.74519   0.00000  Uiso   1.00
O641   O     0.77387   0.09613   0.75482   0.00000  Uiso   1.00
O642   O     0.78514   0.17117   0.81998   0.00000  Uiso   1.00
O643   O     0.88153   0.16216   0.68003   0.00000  Uiso   1.00
O644   O     0.88152   0.16219   0.81218   0.00000  Uiso   1.00
O645   O     0.78515   0.17115   0.68783   0.00000  Uiso   1.00
O646   O     0.93148   0.20990   0.61015   0.00000  Uiso   1.00
Zn647  Zn    0.76898   0.17266   0.75521   0.00000  Uiso   1.00
Zn648  Zn    0.89769   0.16067   0.74479   0.00000  Uiso   1.00
C649   C     0.18198   0.59828   0.74882   0.00000  Uiso   1.00
C650   C     0.21734   0.51261   0.90420   0.00000  Uiso   1.00
C651   C     0.16614   0.50477   0.61567   0.00000  Uiso   1.00
C652   C     0.16719   0.49523   0.88433   0.00000  Uiso   1.00
C653   C     0.21603   0.52397   0.58991   0.00000  Uiso   1.00
C654   C     0.11730   0.47603   0.91009   0.00000  Uiso   1.00
C655   C     0.21689   0.52081   0.54335   0.00000  Uiso   1.00
C656   C     0.11644   0.47919   0.95665   0.00000  Uiso   1.00
C657   C     0.16648   0.50168   0.52328   0.00000  Uiso   1.00
C658   C     0.16685   0.49832   0.97672   0.00000  Uiso   1.00
C659   C     0.11572   0.48575   0.54971   0.00000  Uiso   1.00
C660   C     0.15135   0.40172   0.75118   0.00000  Uiso   1.00
C661   C     0.21761   0.51425   0.95029   0.00000  Uiso   1.00
C662   C     0.26718   0.53607   0.51656   0.00000  Uiso   1.00
C663   C     0.06615   0.46393   0.98344   0.00000  Uiso   1.00
C664   C     0.25951   0.59670   0.62003   0.00000  Uiso   1.00
C665   C     0.07383   0.40330   0.87997   0.00000  Uiso   1.00
C666   C     0.26749   0.53278   0.97025   0.00000  Uiso   1.00
C667   C     0.06584   0.46722   0.52975   0.00000  Uiso   1.00
C668   C     0.19005   0.65278   0.74802   0.00000  Uiso   1.00
C669   C     0.14328   0.34722   0.75198   0.00000  Uiso   1.00
C670   C     0.16688   0.49856   0.83656   0.00000  Uiso   1.00
C671   C     0.16645   0.50144   0.66344   0.00000  Uiso   1.00
C672   C     0.11599   0.48739   0.59580   0.00000  Uiso   1.00
H673   H     0.07767   0.47348   0.61625   0.00000  Uiso   1.00
H674   H     0.32858   0.53907   0.78401   0.00000  Uiso   1.00
H675   H     0.25701   0.61918   0.58899   0.00000  Uiso   1.00
H676   H     0.29852   0.61218   0.63625   0.00000  Uiso   1.00
H677   H     0.22134   0.60307   0.64391   0.00000  Uiso   1.00
H678   H     0.03482   0.38782   0.86375   0.00000  Uiso   1.00
H679   H     0.07632   0.38082   0.91101   0.00000  Uiso   1.00
H680   H     0.11200   0.39693   0.85610   0.00000  Uiso   1.00
H681   H     0.25567   0.52652   0.88375   0.00000  Uiso   1.00
H682   H     0.30640   0.55049   0.53121   0.00000  Uiso   1.00
H683   H     0.02693   0.44951   0.96879   0.00000  Uiso   1.00
H684   H     0.30663   0.54492   0.95005   0.00000  Uiso   1.00
H685   H     0.02671   0.45508   0.54995   0.00000  Uiso   1.00
H686   H     0.23418   0.33653   0.74415   0.00000  Uiso   1.00
H687   H     0.09915   0.66347   0.75585   0.00000  Uiso   1.00
H688   H     0.00475   0.46093   0.71599   0.00000  Uiso   1.00
N689   N     0.31678   0.48598   0.73783   0.00000  Uiso   1.00
N690   N     0.01656   0.51402   0.76217   0.00000  Uiso   1.00
O691   O     0.12975   0.57952   0.75299   0.00000  Uiso   1.00
O692   O     0.06852   0.45677   0.88985   0.00000  Uiso   1.00
O693   O     0.20358   0.42048   0.74702   0.00000  Uiso   1.00
O694   O     0.22613   0.57054   0.74519   0.00000  Uiso   1.00
O695   O     0.10720   0.42946   0.75482   0.00000  Uiso   1.00
O696   O     0.11847   0.50450   0.81998   0.00000  Uiso   1.00
O697   O     0.21486   0.49550   0.68003   0.00000  Uiso   1.00
O698   O     0.21485   0.49552   0.81218   0.00000  Uiso   1.00
O699   O     0.11848   0.50448   0.68783   0.00000  Uiso   1.00
O700   O     0.26482   0.54323   0.61015   0.00000  Uiso   1.00
Zn701  Zn    0.10231   0.50600   0.75521   0.00000  Uiso   1.00
Zn702  Zn    0.23102   0.49400   0.74479   0.00000  Uiso   1.00
C703   C     0.51532   0.59828   0.74882   0.00000  Uiso   1.00
C704   C     0.55068   0.51261   0.90420   0.00000  Uiso   1.00
C705   C     0.49948   0.50477   0.61567   0.00000  Uiso   1.00
C706   C     0.50052   0.49523   0.88433   0.00000  Uiso   1.00
C707   C     0.54936   0.52397   0.58991   0.00000  Uiso   1.00
C708   C     0.45064   0.47603   0.91009   0.00000  Uiso   1.00
C709   C     0.55023   0.52081   0.54335   0.00000  Uiso   1.00
C710   C     0.44977   0.47919   0.95665   0.00000  Uiso   1.00
C711   C     0.49982   0.50168   0.52328   0.00000  Uiso   1.00
C712   C     0.50018   0.49832   0.97672   0.00000  Uiso   1.00
C713   C     0.44906   0.48575   0.54971   0.00000  Uiso   1.00
C714   C     0.48468   0.40172   0.75118   0.00000  Uiso   1.00
C715   C     0.55094   0.51425   0.95029   0.00000  Uiso   1.00
C716   C     0.60052   0.53607   0.51656   0.00000  Uiso   1.00
C717   C     0.39948   0.46393   0.98344   0.00000  Uiso   1.00
C718   C     0.59284   0.59670   0.62003   0.00000  Uiso   1.00
C719   C     0.40716   0.40330   0.87997   0.00000  Uiso   1.00
C720   C     0.60082   0.53278   0.97025   0.00000  Uiso   1.00
C721   C     0.39918   0.46722   0.52975   0.00000  Uiso   1.00
C722   C     0.52338   0.65278   0.74802   0.00000  Uiso   1.00
C723   C     0.47662   0.34722   0.75198   0.00000  Uiso   1.00
C724   C     0.50022   0.49856   0.83656   0.00000  Uiso   1.00
C725   C     0.49978   0.50144   0.66344   0.00000  Uiso   1.00
C726   C     0.44932   0.48739   0.59580   0.00000  Uiso   1.00
H727   H     0.41100   0.47348   0.61625   0.00000  Uiso   1.00
H728   H     0.66191   0.53907   0.78401   0.00000  Uiso   1.00
H729   H     0.59034   0.61918   0.58899   0.00000  Uiso   1.00
H730   H     0.63185   0.61218   0.63625   0.00000  Uiso   1.00
H731   H     0.55467   0.60307   0.64391   0.00000  Uiso   1.00
H732   H     0.36816   0.38782   0.86375   0.00000  Uiso   1.00
H733   H     0.40965   0.38082   0.91101   0.00000  Uiso   1.00
H734   H     0.44533   0.39693   0.85610   0.00000  Uiso   1.00
H735   H     0.58900   0.52652   0.88375   0.00000  Uiso   1.00
H736   H     0.63974   0.55049   0.53121   0.00000  Uiso   1.00
H737   H     0.36026   0.44951   0.96879   0.00000  Uiso   1.00
H738   H     0.63996   0.54492   0.95005   0.00000  Uiso   1.00
H739   H     0.36004   0.45508   0.54995   0.00000  Uiso   1.00
H740   H     0.56751   0.33653   0.74415   0.00000  Uiso   1.00
H741   H     0.43249   0.66347   0.75585   0.00000  Uiso   1.00
H742   H     0.33809   0.46093   0.71599   0.00000  Uiso   1.00
N743   N     0.65011   0.48598   0.73783   0.00000  Uiso   1.00
N744   N     0.34989   0.51402   0.76217   0.00000  Uiso   1.00
O745   O     0.46308   0.57952   0.75299   0.00000  Uiso   1.00
O746   O     0.40185   0.45677   0.88985   0.00000  Uiso   1.00
O747   O     0.53692   0.42048   0.74702   0.00000  Uiso   1.00
O748   O     0.55946   0.57054   0.74519   0.00000  Uiso   1.00
O749   O     0.44054   0.42946   0.75482   0.00000  Uiso   1.00
O750   O     0.45181   0.50450   0.81998   0.00000  Uiso   1.00
O751   O     0.54819   0.49550   0.68003   0.00000  Uiso   1.00
O752   O     0.54819   0.49552   0.81218   0.00000  Uiso   1.00
O753   O     0.45181   0.50448   0.68783   0.00000  Uiso   1.00
O754   O     0.59815   0.54323   0.61015   0.00000  Uiso   1.00
Zn755  Zn    0.43565   0.50600   0.75521   0.00000  Uiso   1.00
Zn756  Zn    0.56435   0.49400   0.74479   0.00000  Uiso   1.00
C757   C     0.84865   0.59828   0.74882   0.00000  Uiso   1.00
C758   C     0.88401   0.51261   0.90420   0.00000  Uiso   1.00
C759   C     0.83281   0.50477   0.61567   0.00000  Uiso   1.00
C760   C     0.83386   0.49523   0.88433   0.00000  Uiso   1.00
C761   C     0.88270   0.52397   0.58991   0.00000  Uiso   1.00
C762   C     0.78397   0.47603   0.91009   0.00000  Uiso   1.00
C763   C     0.88356   0.52081   0.54335   0.00000  Uiso   1.00
C764   C     0.78310   0.47919   0.95665   0.00000  Uiso   1.00
C765   C     0.83315   0.50168   0.52328   0.00000  Uiso   1.00
C766   C     0.83351   0.49832   0.97672   0.00000  Uiso   1.00
C767   C     0.78239   0.48575   0.54971   0.00000  Uiso   1.00
C768   C     0.81802   0.40172   0.75118   0.00000  Uiso   1.00
C769   C     0.88428   0.51425   0.95029   0.00000  Uiso   1.00
C770   C     0.93385   0.53607   0.51656   0.00000  Uiso   1.00
C771   C     0.73282   0.46393   0.98344   0.00000  Uiso   1.00
C772   C     0.92617   0.59670   0.62003   0.00000  Uiso   1.00
C773   C     0.74050   0.40330   0.87997   0.00000  Uiso   1.00
C774   C     0.93415   0.53278   0.97025   0.00000  Uiso   1.00
C775   C     0.73251   0.46722   0.52975   0.00000  Uiso   1.00
C776   C     0.85671   0.65278   0.74802   0.00000  Uiso   1.00
C777   C     0.80995   0.34722   0.75198   0.00000  Uiso   1.00
C778   C     0.83355   0.49856   0.83656   0.00000  Uiso   1.00
C779   C     0.83312   0.50144   0.66344   0.00000  Uiso   1.00
C780   C     0.78266   0.48739   0.59580   0.00000  Uiso   1.00
H781   H     0.74433   0.47348   0.61625   0.00000  Uiso   1.00
H782   H     0.99525   0.53907   0.78401   0.00000  Uiso   1.00
H783   H     0.92367   0.61918   0.58899   0.00000  Uiso   1.00
H784   H     0.96518   0.61218   0.63625   0.00000  Uiso   1.00
H785   H     0.88800   0.60307   0.64391   0.00000  Uiso   1.00
H786   H     0.70149   0.38782   0.86375   0.00000  Uiso   1.00
H787   H     0.74299   0.38082   0.91101   0.00000  Uiso   1.00
H788   H     0.77867   0.39693   0.85610   0.00000  Uiso   1.00
H789   H     0.92233   0.52652   0.88375   0.00000  Uiso   1.00
H790   H     0.97307   0.55049   0.53121   0.00000  Uiso   1.00
H791   H     0.69360   0.44951   0.96879   0.00000  Uiso   1.00
H792   H     0.97329   0.54492   0.95005   0.00000  Uiso   1.00
H793   H     0.69337   0.45508   0.54995   0.00000  Uiso   1.00
H794   H     0.90085   0.33653   0.74415   0.00000  Uiso   1.00
H795   H     0.76582   0.66347   0.75585   0.00000  Uiso   1.00
H796   H     0.67142   0.46093   0.71599   0.00000  Uiso   1.00
N797   N     0.98344   0.48598   0.73783   0.00000  Uiso   1.00
N798   N     0.68322   0.51402   0.76217   0.00000  Uiso   1.00
O799   O     0.79642   0.57952   0.75299   0.00000  Uiso   1.00
O800   O     0.73518   0.45677   0.88985   0.00000  Uiso   1.00
O801   O     0.87025   0.42048   0.74702   0.00000  Uiso   1.00
O802   O     0.89280   0.57054   0.74519   0.00000  Uiso   1.00
O803   O     0.77387   0.42946   0.75482   0.00000  Uiso   1.00
O804   O     0.78514   0.50450   0.81998   0.00000  Uiso   1.00
O805   O     0.88153   0.49550   0.68003   0.00000  Uiso   1.00
O806   O     0.88152   0.49552   0.81218   0.00000  Uiso   1.00
O807   O     0.78515   0.50448   0.68783   0.00000  Uiso   1.00
O808   O     0.93148   0.54323   0.61015   0.00000  Uiso   1.00
Zn809  Zn    0.76898   0.50600   0.75521   0.00000  Uiso   1.00
Zn810  Zn    0.89769   0.49400   0.74479   0.00000  Uiso   1.00
C811   C     0.18198   0.93162   0.74882   0.00000  Uiso   1.00
C812   C     0.21734   0.84595   0.90420   0.00000  Uiso   1.00
C813   C     0.16614   0.83810   0.61567   0.00000  Uiso   1.00
C814   C     0.16719   0.82856   0.88433   0.00000  Uiso   1.00
C815   C     0.21603   0.85730   0.58991   0.00000  Uiso   1.00
C816   C     0.11730   0.80937   0.91009   0.00000  Uiso   1.00
C817   C     0.21689   0.85414   0.54335   0.00000  Uiso   1.00
C818   C     0.11644   0.81252   0.95665   0.00000  Uiso   1.00
C819   C     0.16648   0.83501   0.52328   0.00000  Uiso   1.00
C820   C     0.16685   0.83165   0.97672   0.00000  Uiso   1.00
C821   C     0.11572   0.81908   0.54971   0.00000  Uiso   1.00
C822   C     0.15135   0.73505   0.75118   0.00000  Uiso   1.00
C823   C     0.21761   0.84758   0.95029   0.00000  Uiso   1.00
C824   C     0.26718   0.86940   0.51656   0.00000  Uiso   1.00
C825   C     0.06615   0.79727   0.98344   0.00000  Uiso   1.00
C826   C     0.25951   0.93003   0.62003   0.00000  Uiso   1.00
C827   C     0.07383   0.73664   0.87997   0.00000  Uiso   1.00
C828   C     0.26749   0.86611   0.97025   0.00000  Uiso   1.00
C829   C     0.06584   0.80055   0.52975   0.00000  Uiso   1.00
C830   C     0.19005   0.98611   0.74802   0.00000  Uiso   1.00
C831   C     0.14328   0.68055   0.75198   0.00000  Uiso   1.00
C832   C     0.16688   0.83189   0.83656   0.00000  Uiso   1.00
C833   C     0.16645   0.83478   0.66344   0.00000  Uiso   1.00
C834   C     0.11599   0.82072   0.59580   0.00000  Uiso   1.00
H835   H     0.07767   0.80682   0.61625   0.00000  Uiso   1.00
H836   H     0.32858   0.87241   0.78401   0.00000  Uiso   1.00
H837   H     0.25701   0.95251   0.58899   0.00000  Uiso   1.00
H838   H     0.29852   0.94552   0.63625   0.00000  Uiso   1.00
H839   H     0.22134   0.93640   0.64391   0.00000  Uiso   1.00
H840   H     0.03482   0.72115   0.86375   0.00000  Uiso   1.00
H841   H     0.07632   0.71416   0.91101   0.00000  Uiso   1.00
H842   H     0.11200   0.73026   0.85610   0.00000  Uiso   1.00
H843   H     0.25567   0.85985   0.88375   0.00000  Uiso   1.00
H844   H     0.30640   0.88383   0.53121   0.00000  Uiso   1.00
H845   H     0.02693   0.78284   0.96879   0.00000  Uiso   1.00
H846   H     0.30663   0.87826   0.95005   0.00000  Uiso   1.00
H847   H     0.02671   0.78841   0.54995   0.00000  Uiso   1.00
H848   H     0.23418   0.66986   0.74415   0.00000  Uiso   1.00
H849   H     0.09915   0.99681   0.75585   0.00000  Uiso   1.00
H850   H     0.00475   0.79426   0.71599   0.00000  Uiso   1.00
N851   N     0.31678   0.81932   0.73783   0.00000  Uiso   1.00
N852   N     0.01656   0.84735   0.76217   0.00000  Uiso   1.00
O853   O     0.12975   0.91286   0.75299   0.00000  Uiso   1.00
O854   O     0.06852   0.79010   0.88985   0.00000  Uiso   1.00
O855   O     0.20358   0.75381   0.74702   0.00000  Uiso   1.00
O856   O     0.22613   0.90387   0.74519   0.00000  Uiso   1.00
O857   O     0.10720   0.76279   0.75482   0.00000  Uiso   1.00
O858   O     0.11847   0.83784   0.81998   0.00000  Uiso   1.00
O859   O     0.21486   0.82883   0.68003   0.00000  Uiso   1.00
O860   O     0.21485   0.82885   0.81218   0.00000  Uiso   1.00
O861   O     0.11848   0.83781   0.68783   0.00000  Uiso   1.00
O862   O     0.26482   0.87656   0.61015   0.00000  Uiso   1.00
Zn863  Zn    0.10231   0.83933   0.75521   0.00000  Uiso   1.00
Zn864  Zn    0.23102   0.82734   0.74479   0.00000  Uiso   1.00
C865   C     0.51532   0.93162   0.74882   0.00000  Uiso   1.00
C866   C     0.55068   0.84595   0.90420   0.00000  Uiso   1.00
C867   C     0.49948   0.83810   0.61567   0.00000  Uiso   1.00
C868   C     0.50052   0.82856   0.88433   0.00000  Uiso   1.00
C869   C     0.54936   0.85730   0.58991   0.00000  Uiso   1.00
C870   C     0.45064   0.80937   0.91009   0.00000  Uiso   1.00
C871   C     0.55023   0.85414   0.54335   0.00000  Uiso   1.00
C872   C     0.44977   0.81252   0.95665   0.00000  Uiso   1.00
C873   C     0.49982   0.83501   0.52328   0.00000  Uiso   1.00
C874   C     0.50018   0.83165   0.97672   0.00000  Uiso   1.00
C875   C     0.44906   0.81908   0.54971   0.00000  Uiso   1.00
C876   C     0.48468   0.73505   0.75118   0.00000  Uiso   1.00
C877   C     0.55094   0.84758   0.95029   0.00000  Uiso   1.00
C878   C     0.60052   0.86940   0.51656   0.00000  Uiso   1.00
C879   C     0.39948   0.79727   0.98344   0.00000  Uiso   1.00
C880   C     0.59284   0.93003   0.62003   0.00000  Uiso   1.00
C881   C     0.40716   0.73664   0.87997   0.00000  Uiso   1.00
C882   C     0.60082   0.86611   0.97025   0.00000  Uiso   1.00
C883   C     0.39918   0.80055   0.52975   0.00000  Uiso   1.00
C884   C     0.52338   0.98611   0.74802   0.00000  Uiso   1.00
C885   C     0.47662   0.68055   0.75198   0.00000  Uiso   1.00
C886   C     0.50022   0.83189   0.83656   0.00000  Uiso   1.00
C887   C     0.49978   0.83478   0.66344   0.00000  Uiso   1.00
C888   C     0.44932   0.82072   0.59580   0.00000  Uiso   1.00
H889   H     0.41100   0.80682   0.61625   0.00000  Uiso   1.00
H890   H     0.66191   0.87241   0.78401   0.00000  Uiso   1.00
H891   H     0.59034   0.95251   0.58899   0.00000  Uiso   1.00
H892   H     0.63185   0.94552   0.63625   0.00000  Uiso   1.00
H893   H     0.55467   0.93640   0.64391   0.00000  Uiso   1.00
H894   H     0.36816   0.72115   0.86375   0.00000  Uiso   1.00
H895   H     0.40965   0.71416   0.91101   0.00000  Uiso   1.00
H896   H     0.44533   0.73026   0.85610   0.00000  Uiso   1.00
H897   H     0.58900   0.85985   0.88375   0.00000  Uiso   1.00
H898   H     0.63974   0.88383   0.53121   0.00000  Uiso   1.00
H899   H     0.36026   0.78284   0.96879   0.00000  Uiso   1.00
H900   H     0.63996   0.87826   0.95005   0.00000  Uiso   1.00
H901   H     0.36004   0.78841   0.54995   0.00000  Uiso   1.00
H902   H     0.56751   0.66986   0.74415   0.00000  Uiso   1.00
H903   H     0.43249   0.99681   0.75585   0.00000  Uiso   1.00
H904   H     0.33809   0.79426   0.71599   0.00000  Uiso   1.00
N905   N     0.65011   0.81932   0.73783   0.00000  Uiso   1.00
N906   N     0.34989   0.84735   0.76217   0.00000  Uiso   1.00
O907   O     0.46308   0.91286   0.75299   0.00000  Uiso   1.00
O908   O     0.40185   0.79010   0.88985   0.00000  Uiso   1.00
O909   O     0.53692   0.75381   0.74702   0.00000  Uiso   1.00
O910   O     0.55946   0.90387   0.74519   0.00000  Uiso   1.00
O911   O     0.44054   0.76279   0.75482   0.00000  Uiso   1.00
O912   O     0.45181   0.83784   0.81998   0.00000  Uiso   1.00
O913   O     0.54819   0.82883   0.68003   0.00000  Uiso   1.00
O914   O     0.54819   0.82885   0.81218   0.00000  Uiso   1.00
O915   O     0.45181   0.83781   0.68783   0.00000  Uiso   1.00
O916   O     0.59815   0.87656   0.61015   0.00000  Uiso   1.00
Zn917  Zn    0.43565   0.83933   0.75521   0.00000  Uiso   1.00
Zn918  Zn    0.56435   0.82734   0.74479   0.00000  Uiso   1.00
C919   C     0.84865   0.93162   0.74882   0.00000  Uiso   1.00
C920   C     0.88401   0.84595   0.90420   0.00000  Uiso   1.00
C921   C     0.83281   0.83810   0.61567   0.00000  Uiso   1.00
C922   C     0.83386   0.82856   0.88433   0.00000  Uiso   1.00
C923   C     0.88270   0.85730   0.58991   0.00000  Uiso   1.00
C924   C     0.78397   0.80937   0.91009   0.00000  Uiso   1.00
C925   C     0.88356   0.85414   0.54335   0.00000  Uiso   1.00
C926   C     0.78310   0.81252   0.95665   0.00000  Uiso   1.00
C927   C     0.83315   0.83501   0.52328   0.00000  Uiso   1.00
C928   C     0.83351   0.83165   0.97672   0.00000  Uiso   1.00
C929   C     0.78239   0.81908   0.54971   0.00000  Uiso   1.00
C930   C     0.81802   0.73505   0.75118   0.00000  Uiso   1.00
C931   C     0.88428   0.84758   0.95029   0.00000  Uiso   1.00
C932   C     0.93385   0.86940   0.51656   0.00000  Uiso   1.00
C933   C     0.73282   0.79727   0.98344   0.00000  Uiso   1.00
C934   C     0.92617   0.93003   0.62003   0.00000  Uiso   1.00
C935   C     0.74050   0.73664   0.87997   0.00000  Uiso   1.00
C936   C     0.93415   0.86611   0.97025   0.00000  Uiso   1.00
C937   C     0.73251   0.80055   0.52975   0.00000  Uiso   1.00
C938   C     0.85671   0.98611   0.74802   0.00000  Uiso   1.00
C939   C     0.80995   0.68055   0.75198   0.00000  Uiso   1.00
C940   C     0.83355   0.83189   0.83656   0.00000  Uiso   1.00
C941   C     0.83312   0.83478   0.66344   0.00000  Uiso   1.00
C942   C     0.78266   0.82072   0.59580   0.00000  Uiso   1.00
H943   H     0.74433   0.80682   0.61625   0.00000  Uiso   1.00
H944   H     0.99525   0.87241   0.78401   0.00000  Uiso   1.00
H945   H     0.92367   0.95251   0.58899   0.00000  Uiso   1.00
H946   H     0.96518   0.94552   0.63625   0.00000  Uiso   1.00
H947   H     0.88800   0.93640   0.64391   0.00000  Uiso   1.00
H948   H     0.70149   0.72115   0.86375   0.00000  Uiso   1.00
H949   H     0.74299   0.71416   0.91101   0.00000  Uiso   1.00
H950   H     0.77867   0.73026   0.85610   0.00000  Uiso   1.00
H951   H     0.92233   0.85985   0.88375   0.00000  Uiso   1.00
H952   H     0.97307   0.88383   0.53121   0.00000  Uiso   1.00
H953   H     0.69360   0.78284   0.96879   0.00000  Uiso   1.00
H954   H     0.97329   0.87826   0.95005   0.00000  Uiso   1.00
H955   H     0.69337   0.78841   0.54995   0.00000  Uiso   1.00
H956   H     0.90085   0.66986   0.74415   0.00000  Uiso   1.00
H957   H     0.76582   0.99681   0.75585   0.00000  Uiso   1.00
H958   H     0.67142   0.79426   0.71599   0.00000  Uiso   1.00
N959   N     0.98344   0.81932   0.73783   0.00000  Uiso   1.00
N960   N     0.68322   0.84735   0.76217   0.00000  Uiso   1.00
O961   O     0.79642   0.91286   0.75299   0.00000  Uiso   1.00
O962   O     0.73518   0.79010   0.88985   0.00000  Uiso   1.00
O963   O     0.87025   0.75381   0.74702   0.00000  Uiso   1.00
O964   O     0.89280   0.90387   0.74519   0.00000  Uiso   1.00
O965   O     0.77387   0.76279   0.75482   0.00000  Uiso   1.00
O966   O     0.78514   0.83784   0.81998   0.00000  Uiso   1.00
O967   O     0.88153   0.82883   0.68003   0.00000  Uiso   1.00
O968   O     0.88152   0.82885   0.81218   0.00000  Uiso   1.00
O969   O     0.78515   0.83781   0.68783   0.00000  Uiso   1.00
O970   O     0.93148   0.87656   0.61015   0.00000  Uiso   1.00
Zn971  Zn    0.76898   0.83933   0.75521   0.00000  Uiso   1.00
Zn972  Zn    0.89769   0.82734   0.74479   0.00000  Uiso   1.00
loop_
_geom_bond_atom_site_label_1
_geom_bond_atom_site_label_2
_geom_bond_distance
_geom_bond_site_symmetry_2
_ccdc_geom_bond_type
C1     O46     1.285   .     A
C1     C20     1.402   .     S
C1     O43     1.275   .     A
C2     C4      1.394   .     A
C2     H33     1.085   .     S
C2     C13     1.380   .     A
C3     C24     1.394   .     A
C3     C5      1.409   .     A
C3     C23     1.435   .     S
C4     C6      1.409   .     A
C4     C22     1.435   .     S
C5     O52     1.386   .     S
C5     C7      1.393   .     A
C6     O44     1.386   .     S
C6     C8      1.393   .     A
C7     C9      1.414   .     A
C7     C14     1.403   .     A
C8     C15     1.403   .     A
C8     C10     1.414   .     A
C9     C11     1.411   .     A
C9     C496    1.394   1_554 S
C10    C13     1.411   .     A
C10    C495    1.394   .     S
C11    C19     1.398   .     A
C11    C24     1.380   .     A
C12    O47     1.285   .     A
C12    C21     1.402   .     S
C12    O45     1.275   .     A
C13    C18     1.398   .     A
C14    H34     1.083   .     S
C14    C504    1.386   1_554 S
C15    H35     1.083   .     S
C15    C505    1.386   .     S
C16    H28     1.109   .     S
C16    H27     1.113   .     S
C16    H29     1.113   .     S
C16    O52     1.411   .     S
C17    O44     1.411   .     S
C17    H30     1.109   .     S
C17    H31     1.113   .     S
C17    H32     1.113   .     S
C18    H36     1.084   .     S
C18    C500    1.386   .     S
C19    H37     1.084   .     S
C19    C501    1.386   1_554 S
C20    C183    1.336   .     S
C20    H200    1.088   .     S
C21    C344    1.336   1_545 S
C21    H363    1.088   1_545 S
C22    O50     1.290   .     A
C22    O48     1.286   .     A
C23    O51     1.290   .     A
C23    O49     1.286   .     A
C24    H25     1.085   .     S
H26    N96     1.029   .     S
H38    C344    1.088   1_545 S
H39    C183    1.088   .     S
H40    N149    1.029   1_455 S
N41    Zn54    2.013   .     S
N41    H94     1.029   .     S
N41    N96     1.278   .     S
N42    Zn53    2.013   .     S
N42    N149    1.278   1_455 S
N42    H134    1.029   1_455 S
O43    Zn53    1.956   .     S
O45    Zn54    1.956   .     S
O46    Zn54    1.978   .     S
O47    Zn53    1.978   .     S
O48    Zn53    2.006   .     S
O49    Zn54    2.006   .     S
O50    Zn54    2.022   .     S
O51    Zn53    2.022   .     S
C55    O100    1.285   .     A
C55    C74     1.402   .     S
C55    O97     1.275   .     A
C56    C58     1.394   .     A
C56    H87     1.085   .     S
C56    C67     1.380   .     A
C57    C78     1.394   .     A
C57    C59     1.409   .     A
C57    C77     1.435   .     S
C58    C60     1.409   .     A
C58    C76     1.435   .     S
C59    O106    1.386   .     S
C59    C61     1.393   .     A
C60    O98     1.386   .     S
C60    C62     1.393   .     A
C61    C63     1.414   .     A
C61    C68     1.403   .     A
C62    C69     1.403   .     A
C62    C64     1.414   .     A
C63    C65     1.411   .     A
C63    C550    1.394   1_554 S
C64    C67     1.411   .     A
C64    C549    1.394   .     S
C65    C73     1.398   .     A
C65    C78     1.380   .     A
C66    O101    1.285   .     A
C66    C75     1.402   .     S
C66    O99     1.275   .     A
C67    C72     1.398   .     A
C68    H88     1.083   .     S
C68    C558    1.386   1_554 S
C69    H89     1.083   .     S
C69    C559    1.386   .     S
C70    H82     1.109   .     S
C70    H81     1.113   .     S
C70    H83     1.113   .     S
C70    O106    1.411   .     S
C71    O98     1.411   .     S
C71    H84     1.109   .     S
C71    H85     1.113   .     S
C71    H86     1.113   .     S
C72    H90     1.084   .     S
C72    C554    1.386   .     S
C73    H91     1.084   .     S
C73    C555    1.386   1_554 S
C74    C237    1.336   .     S
C74    H254    1.088   .     S
C75    C398    1.336   1_545 S
C75    H417    1.088   1_545 S
C76    O104    1.290   .     A
C76    O102    1.286   .     A
C77    O105    1.290   .     A
C77    O103    1.286   .     A
C78    H79     1.085   .     S
H80    N150    1.029   .     S
H92    C398    1.088   1_545 S
H93    C237    1.088   .     S
N95    Zn108   2.013   .     S
N95    H148    1.029   .     S
N95    N150    1.278   .     S
N96    Zn107   2.013   .     S
O97    Zn107   1.956   .     S
O99    Zn108   1.956   .     S
O100   Zn108   1.978   .     S
O101   Zn107   1.978   .     S
O102   Zn107   2.006   .     S
O103   Zn108   2.006   .     S
O104   Zn108   2.022   .     S
O105   Zn107   2.022   .     S
C109   O154    1.285   .     A
C109   C128    1.402   .     S
C109   O151    1.275   .     A
C110   C112    1.394   .     A
C110   H141    1.085   .     S
C110   C121    1.380   .     A
C111   C132    1.394   .     A
C111   C113    1.409   .     A
C111   C131    1.435   .     S
C112   C114    1.409   .     A
C112   C130    1.435   .     S
C113   O160    1.386   .     S
C113   C115    1.393   .     A
C114   O152    1.386   .     S
C114   C116    1.393   .     A
C115   C117    1.414   .     A
C115   C122    1.403   .     A
C116   C123    1.403   .     A
C116   C118    1.414   .     A
C117   C119    1.411   .     A
C117   C604    1.394   1_554 S
C118   C121    1.411   .     A
C118   C603    1.394   .     S
C119   C127    1.398   .     A
C119   C132    1.380   .     A
C120   O155    1.285   .     A
C120   C129    1.402   .     S
C120   O153    1.275   .     A
C121   C126    1.398   .     A
C122   H142    1.083   .     S
C122   C612    1.386   1_554 S
C123   H143    1.083   .     S
C123   C613    1.386   .     S
C124   H136    1.109   .     S
C124   H135    1.113   .     S
C124   H137    1.113   .     S
C124   O160    1.411   .     S
C125   O152    1.411   .     S
C125   H138    1.109   .     S
C125   H139    1.113   .     S
C125   H140    1.113   .     S
C126   H144    1.084   .     S
C126   C608    1.386   .     S
C127   H145    1.084   .     S
C127   C609    1.386   1_554 S
C128   C291    1.336   .     S
C128   H308    1.088   .     S
C129   C452    1.336   1_545 S
C129   H471    1.088   1_545 S
C130   O158    1.290   .     A
C130   O156    1.286   .     A
C131   O159    1.290   .     A
C131   O157    1.286   .     A
C132   H133    1.085   .     S
H134   N42     1.029   1_655 S
H146   C452    1.088   1_545 S
H147   C291    1.088   .     S
N149   Zn162   2.013   .     S
N149   H40     1.029   1_655 S
N149   N42     1.278   1_655 S
N150   Zn161   2.013   .     S
O151   Zn161   1.956   .     S
O153   Zn162   1.956   .     S
O154   Zn162   1.978   .     S
O155   Zn161   1.978   .     S
O156   Zn161   2.006   .     S
O157   Zn162   2.006   .     S
O158   Zn162   2.022   .     S
O159   Zn161   2.022   .     S
C163   O208    1.285   .     A
C163   C182    1.402   .     S
C163   O205    1.275   .     A
C164   C166    1.394   .     A
C164   H195    1.085   .     S
C164   C175    1.380   .     A
C165   C186    1.394   .     A
C165   C167    1.409   .     A
C165   C185    1.435   .     S
C166   C168    1.409   .     A
C166   C184    1.435   .     S
C167   O214    1.386   .     S
C167   C169    1.393   .     A
C168   O206    1.386   .     S
C168   C170    1.393   .     A
C169   C171    1.414   .     A
C169   C176    1.403   .     A
C170   C177    1.403   .     A
C170   C172    1.414   .     A
C171   C173    1.411   .     A
C171   C658    1.394   1_554 S
C172   C175    1.411   .     A
C172   C657    1.394   .     S
C173   C181    1.398   .     A
C173   C186    1.380   .     A
C174   O209    1.285   .     A
C174   C183    1.402   .     S
C174   O207    1.275   .     A
C175   C180    1.398   .     A
C176   H196    1.083   .     S
C176   C666    1.386   1_554 S
C177   H197    1.083   .     S
C177   C667    1.386   .     S
C178   H190    1.109   .     S
C178   H189    1.113   .     S
C178   H191    1.113   .     S
C178   O214    1.411   .     S
C179   O206    1.411   .     S
C179   H192    1.109   .     S
C179   H193    1.113   .     S
C179   H194    1.113   .     S
C180   H198    1.084   .     S
C180   C662    1.386   .     S
C181   H199    1.084   .     S
C181   C663    1.386   1_554 S
C182   C345    1.336   .     S
C182   H362    1.088   .     S
C184   O212    1.290   .     A
C184   O210    1.286   .     A
C185   O213    1.290   .     A
C185   O211    1.286   .     A
C186   H187    1.085   .     S
H188   N258    1.029   .     S
H201   C345    1.088   .     S
H202   N311    1.029   1_455 S
N203   Zn216   2.013   .     S
N203   H256    1.029   .     S
N203   N258    1.278   .     S
N204   Zn215   2.013   .     S
N204   N311    1.278   1_455 S
N204   H296    1.029   1_455 S
O205   Zn215   1.956   .     S
O207   Zn216   1.956   .     S
O208   Zn216   1.978   .     S
O209   Zn215   1.978   .     S
O210   Zn215   2.006   .     S
O211   Zn216   2.006   .     S
O212   Zn216   2.022   .     S
O213   Zn215   2.022   .     S
C217   O262    1.285   .     A
C217   C236    1.402   .     S
C217   O259    1.275   .     A
C218   C220    1.394   .     A
C218   H249    1.085   .     S
C218   C229    1.380   .     A
C219   C240    1.394   .     A
C219   C221    1.409   .     A
C219   C239    1.435   .     S
C220   C222    1.409   .     A
C220   C238    1.435   .     S
C221   O268    1.386   .     S
C221   C223    1.393   .     A
C222   O260    1.386   .     S
C222   C224    1.393   .     A
C223   C225    1.414   .     A
C223   C230    1.403   .     A
C224   C231    1.403   .     A
C224   C226    1.414   .     A
C225   C227    1.411   .     A
C225   C712    1.394   1_554 S
C226   C229    1.411   .     A
C226   C711    1.394   .     S
C227   C235    1.398   .     A
C227   C240    1.380   .     A
C228   O263    1.285   .     A
C228   C237    1.402   .     S
C228   O261    1.275   .     A
C229   C234    1.398   .     A
C230   H250    1.083   .     S
C230   C720    1.386   1_554 S
C231   H251    1.083   .     S
C231   C721    1.386   .     S
C232   H244    1.109   .     S
C232   H243    1.113   .     S
C232   H245    1.113   .     S
C232   O268    1.411   .     S
C233   O260    1.411   .     S
C233   H246    1.109   .     S
C233   H247    1.113   .     S
C233   H248    1.113   .     S
C234   H252    1.084   .     S
C234   C716    1.386   .     S
C235   H253    1.084   .     S
C235   C717    1.386   1_554 S
C236   C399    1.336   .     S
C236   H416    1.088   .     S
C238   O266    1.290   .     A
C238   O264    1.286   .     A
C239   O267    1.290   .     A
C239   O265    1.286   .     A
C240   H241    1.085   .     S
H242   N312    1.029   .     S
H255   C399    1.088   .     S
N257   Zn270   2.013   .     S
N257   H310    1.029   .     S
N257   N312    1.278   .     S
N258   Zn269   2.013   .     S
O259   Zn269   1.956   .     S
O261   Zn270   1.956   .     S
O262   Zn270   1.978   .     S
O263   Zn269   1.978   .     S
O264   Zn269   2.006   .     S
O265   Zn270   2.006   .     S
O266   Zn270   2.022   .     S
O267   Zn269   2.022   .     S
C271   O316    1.285   .     A
C271   C290    1.402   .     S
C271   O313    1.275   .     A
C272   C274    1.394   .     A
C272   H303    1.085   .     S
C272   C283    1.380   .     A
C273   C294    1.394   .     A
C273   C275    1.409   .     A
C273   C293    1.435   .     S
C274   C276    1.409   .     A
C274   C292    1.435   .     S
C275   O322    1.386   .     S
C275   C277    1.393   .     A
C276   O314    1.386   .     S
C276   C278    1.393   .     A
C277   C279    1.414   .     A
C277   C284    1.403   .     A
C278   C285    1.403   .     A
C278   C280    1.414   .     A
C279   C281    1.411   .     A
C279   C766    1.394   1_554 S
C280   C283    1.411   .     A
C280   C765    1.394   .     S
C281   C289    1.398   .     A
C281   C294    1.380   .     A
C282   O317    1.285   .     A
C282   C291    1.402   .     S
C282   O315    1.275   .     A
C283   C288    1.398   .     A
C284   H304    1.083   .     S
C284   C774    1.386   1_554 S
C285   H305    1.083   .     S
C285   C775    1.386   .     S
C286   H298    1.109   .     S
C286   H297    1.113   .     S
C286   H299    1.113   .     S
C286   O322    1.411   .     S
C287   O314    1.411   .     S
C287   H300    1.109   .     S
C287   H301    1.113   .     S
C287   H302    1.113   .     S
C288   H306    1.084   .     S
C288   C770    1.386   .     S
C289   H307    1.084   .     S
C289   C771    1.386   1_554 S
C290   C453    1.336   .     S
C290   H470    1.088   .     S
C292   O320    1.290   .     A
C292   O318    1.286   .     A
C293   O321    1.290   .     A
C293   O319    1.286   .     A
C294   H295    1.085   .     S
H296   N204    1.029   1_655 S
H309   C453    1.088   .     S
N311   Zn324   2.013   .     S
N311   H202    1.029   1_655 S
N311   N204    1.278   1_655 S
N312   Zn323   2.013   .     S
O313   Zn323   1.956   .     S
O315   Zn324   1.956   .     S
O316   Zn324   1.978   .     S
O317   Zn323   1.978   .     S
O318   Zn323   2.006   .     S
O319   Zn324   2.006   .     S
O320   Zn324   2.022   .     S
O321   Zn323   2.022   .     S
C325   O370    1.285   .     A
C325   C344    1.402   .     S
C325   O367    1.275   .     A
C326   C328    1.394   .     A
C326   H357    1.085   .     S
C326   C337    1.380   .     A
C327   C348    1.394   .     A
C327   C329    1.409   .     A
C327   C347    1.435   .     S
C328   C330    1.409   .     A
C328   C346    1.435   .     S
C329   O376    1.386   .     S
C329   C331    1.393   .     A
C330   O368    1.386   .     S
C330   C332    1.393   .     A
C331   C333    1.414   .     A
C331   C338    1.403   .     A
C332   C339    1.403   .     A
C332   C334    1.414   .     A
C333   C335    1.411   .     A
C333   C820    1.394   1_554 S
C334   C337    1.411   .     A
C334   C819    1.394   .     S
C335   C343    1.398   .     A
C335   C348    1.380   .     A
C336   O371    1.285   .     A
C336   C345    1.402   .     S
C336   O369    1.275   .     A
C337   C342    1.398   .     A
C338   H358    1.083   .     S
C338   C828    1.386   1_554 S
C339   H359    1.083   .     S
C339   C829    1.386   .     S
C340   H352    1.109   .     S
C340   H351    1.113   .     S
C340   H353    1.113   .     S
C340   O376    1.411   .     S
C341   O368    1.411   .     S
C341   H354    1.109   .     S
C341   H355    1.113   .     S
C341   H356    1.113   .     S
C342   H360    1.084   .     S
C342   C824    1.386   .     S
C343   H361    1.084   .     S
C343   C825    1.386   1_554 S
C344   C21     1.336   1_565 S
C344   H38     1.088   1_565 S
C346   O374    1.290   .     A
C346   O372    1.286   .     A
C347   O375    1.290   .     A
C347   O373    1.286   .     A
C348   H349    1.085   .     S
H350   N420    1.029   .     S
H363   C21     1.088   1_565 S
H364   N473    1.029   1_455 S
N365   Zn378   2.013   .     S
N365   H418    1.029   .     S
N365   N420    1.278   .     S
N366   Zn377   2.013   .     S
N366   N473    1.278   1_455 S
N366   H458    1.029   1_455 S
O367   Zn377   1.956   .     S
O369   Zn378   1.956   .     S
O370   Zn378   1.978   .     S
O371   Zn377   1.978   .     S
O372   Zn377   2.006   .     S
O373   Zn378   2.006   .     S
O374   Zn378   2.022   .     S
O375   Zn377   2.022   .     S
C379   O424    1.285   .     A
C379   C398    1.402   .     S
C379   O421    1.275   .     A
C380   C382    1.394   .     A
C380   H411    1.085   .     S
C380   C391    1.380   .     A
C381   C402    1.394   .     A
C381   C383    1.409   .     A
C381   C401    1.435   .     S
C382   C384    1.409   .     A
C382   C400    1.435   .     S
C383   O430    1.386   .     S
C383   C385    1.393   .     A
C384   O422    1.386   .     S
C384   C386    1.393   .     A
C385   C387    1.414   .     A
C385   C392    1.403   .     A
C386   C393    1.403   .     A
C386   C388    1.414   .     A
C387   C389    1.411   .     A
C387   C874    1.394   1_554 S
C388   C391    1.411   .     A
C388   C873    1.394   .     S
C389   C397    1.398   .     A
C389   C402    1.380   .     A
C390   O425    1.285   .     A
C390   C399    1.402   .     S
C390   O423    1.275   .     A
C391   C396    1.398   .     A
C392   H412    1.083   .     S
C392   C882    1.386   1_554 S
C393   H413    1.083   .     S
C393   C883    1.386   .     S
C394   H406    1.109   .     S
C394   H405    1.113   .     S
C394   H407    1.113   .     S
C394   O430    1.411   .     S
C395   O422    1.411   .     S
C395   H408    1.109   .     S
C395   H409    1.113   .     S
C395   H410    1.113   .     S
C396   H414    1.084   .     S
C396   C878    1.386   .     S
C397   H415    1.084   .     S
C397   C879    1.386   1_554 S
C398   C75     1.336   1_565 S
C398   H92     1.088   1_565 S
C400   O428    1.290   .     A
C400   O426    1.286   .     A
C401   O429    1.290   .     A
C401   O427    1.286   .     A
C402   H403    1.085   .     S
H404   N474    1.029   .     S
H417   C75     1.088   1_565 S
N419   Zn432   2.013   .     S
N419   H472    1.029   .     S
N419   N474    1.278   .     S
N420   Zn431   2.013   .     S
O421   Zn431   1.956   .     S
O423   Zn432   1.956   .     S
O424   Zn432   1.978   .     S
O425   Zn431   1.978   .     S
O426   Zn431   2.006   .     S
O427   Zn432   2.006   .     S
O428   Zn432   2.022   .     S
O429   Zn431   2.022   .     S
C433   O478    1.285   .     A
C433   C452    1.402   .     S
C433   O475    1.275   .     A
C434   C436    1.394   .     A
C434   H465    1.085   .     S
C434   C445    1.380   .     A
C435   C456    1.394   .     A
C435   C437    1.409   .     A
C435   C455    1.435   .     S
C436   C438    1.409   .     A
C436   C454    1.435   .     S
C437   O484    1.386   .     S
C437   C439    1.393   .     A
C438   O476    1.386   .     S
C438   C440    1.393   .     A
C439   C441    1.414   .     A
C439   C446    1.403   .     A
C440   C447    1.403   .     A
C440   C442    1.414   .     A
C441   C443    1.411   .     A
C441   C928    1.394   1_554 S
C442   C445    1.411   .     A
C442   C927    1.394   .     S
C443   C451    1.398   .     A
C443   C456    1.380   .     A
C444   O479    1.285   .     A
C444   C453    1.402   .     S
C444   O477    1.275   .     A
C445   C450    1.398   .     A
C446   H466    1.083   .     S
C446   C936    1.386   1_554 S
C447   H467    1.083   .     S
C447   C937    1.386   .     S
C448   H460    1.109   .     S
C448   H459    1.113   .     S
C448   H461    1.113   .     S
C448   O484    1.411   .     S
C449   O476    1.411   .     S
C449   H462    1.109   .     S
C449   H463    1.113   .     S
C449   H464    1.113   .     S
C450   H468    1.084   .     S
C450   C932    1.386   .     S
C451   H469    1.084   .     S
C451   C933    1.386   1_554 S
C452   C129    1.336   1_565 S
C452   H146    1.088   1_565 S
C454   O482    1.290   .     A
C454   O480    1.286   .     A
C455   O483    1.290   .     A
C455   O481    1.286   .     A
C456   H457    1.085   .     S
H458   N366    1.029   1_655 S
H471   C129    1.088   1_565 S
N473   Zn486   2.013   .     S
N473   H364    1.029   1_655 S
N473   N366    1.278   1_655 S
N474   Zn485   2.013   .     S
O475   Zn485   1.956   .     S
O477   Zn486   1.956   .     S
O478   Zn486   1.978   .     S
O479   Zn485   1.978   .     S
O480   Zn485   2.006   .     S
O481   Zn486   2.006   .     S
O482   Zn486   2.022   .     S
O483   Zn485   2.022   .     S
C487   O532    1.285   .     A
C487   C506    1.402   .     S
C487   O529    1.275   .     A
C488   C490    1.394   .     A
C488   H519    1.085   .     S
C488   C499    1.380   .     A
C489   C510    1.394   .     A
C489   C491    1.409   .     A
C489   C509    1.435   .     S
C490   C492    1.409   .     A
C490   C508    1.435   .     S
C491   O538    1.386   .     S
C491   C493    1.393   .     A
C492   O530    1.386   .     S
C492   C494    1.393   .     A
C493   C495    1.414   .     A
C493   C500    1.403   .     A
C494   C501    1.403   .     A
C494   C496    1.414   .     A
C495   C497    1.411   .     A
C496   C499    1.411   .     A
C496   C9      1.394   1_556 S
C497   C505    1.398   .     A
C497   C510    1.380   .     A
C498   O533    1.285   .     A
C498   C507    1.402   .     S
C498   O531    1.275   .     A
C499   C504    1.398   .     A
C500   H520    1.083   .     S
C501   H521    1.083   .     S
C501   C19     1.386   1_556 S
C502   H514    1.109   .     S
C502   H513    1.113   .     S
C502   H515    1.113   .     S
C502   O538    1.411   .     S
C503   O530    1.411   .     S
C503   H516    1.109   .     S
C503   H517    1.113   .     S
C503   H518    1.113   .     S
C504   H522    1.084   .     S
C504   C14     1.386   1_556 S
C505   H523    1.084   .     S
C506   C669    1.336   .     S
C506   H686    1.088   .     S
C507   C830    1.336   1_545 S
C507   H849    1.088   1_545 S
C508   O536    1.290   .     A
C508   O534    1.286   .     A
C509   O537    1.290   .     A
C509   O535    1.286   .     A
C510   H511    1.085   .     S
H512   N582    1.029   .     S
H524   C830    1.088   1_545 S
H525   C669    1.088   .     S
H526   N635    1.029   1_455 S
N527   Zn540   2.013   .     S
N527   H580    1.029   .     S
N527   N582    1.278   .     S
N528   Zn539   2.013   .     S
N528   N635    1.278   1_455 S
N528   H620    1.029   1_455 S
O529   Zn539   1.956   .     S
O531   Zn540   1.956   .     S
O532   Zn540   1.978   .     S
O533   Zn539   1.978   .     S
O534   Zn539   2.006   .     S
O535   Zn540   2.006   .     S
O536   Zn540   2.022   .     S
O537   Zn539   2.022   .     S
C541   O586    1.285   .     A
C541   C560    1.402   .     S
C541   O583    1.275   .     A
C542   C544    1.394   .     A
C542   H573    1.085   .     S
C542   C553    1.380   .     A
C543   C564    1.394   .     A
C543   C545    1.409   .     A
C543   C563    1.435   .     S
C544   C546    1.409   .     A
C544   C562    1.435   .     S
C545   O592    1.386   .     S
C545   C547    1.393   .     A
C546   O584    1.386   .     S
C546   C548    1.393   .     A
C547   C549    1.414   .     A
C547   C554    1.403   .     A
C548   C555    1.403   .     A
C548   C550    1.414   .     A
C549   C551    1.411   .     A
C550   C553    1.411   .     A
C550   C63     1.394   1_556 S
C551   C559    1.398   .     A
C551   C564    1.380   .     A
C552   O587    1.285   .     A
C552   C561    1.402   .     S
C552   O585    1.275   .     A
C553   C558    1.398   .     A
C554   H574    1.083   .     S
C555   H575    1.083   .     S
C555   C73     1.386   1_556 S
C556   H568    1.109   .     S
C556   H567    1.113   .     S
C556   H569    1.113   .     S
C556   O592    1.411   .     S
C557   O584    1.411   .     S
C557   H570    1.109   .     S
C557   H571    1.113   .     S
C557   H572    1.113   .     S
C558   H576    1.084   .     S
C558   C68     1.386   1_556 S
C559   H577    1.084   .     S
C560   C723    1.336   .     S
C560   H740    1.088   .     S
C561   C884    1.336   1_545 S
C561   H903    1.088   1_545 S
C562   O590    1.290   .     A
C562   O588    1.286   .     A
C563   O591    1.290   .     A
C563   O589    1.286   .     A
C564   H565    1.085   .     S
H566   N636    1.029   .     S
H578   C884    1.088   1_545 S
H579   C723    1.088   .     S
N581   Zn594   2.013   .     S
N581   H634    1.029   .     S
N581   N636    1.278   .     S
N582   Zn593   2.013   .     S
O583   Zn593   1.956   .     S
O585   Zn594   1.956   .     S
O586   Zn594   1.978   .     S
O587   Zn593   1.978   .     S
O588   Zn593   2.006   .     S
O589   Zn594   2.006   .     S
O590   Zn594   2.022   .     S
O591   Zn593   2.022   .     S
C595   O640    1.285   .     A
C595   C614    1.402   .     S
C595   O637    1.275   .     A
C596   C598    1.394   .     A
C596   H627    1.085   .     S
C596   C607    1.380   .     A
C597   C618    1.394   .     A
C597   C599    1.409   .     A
C597   C617    1.435   .     S
C598   C600    1.409   .     A
C598   C616    1.435   .     S
C599   O646    1.386   .     S
C599   C601    1.393   .     A
C600   O638    1.386   .     S
C600   C602    1.393   .     A
C601   C603    1.414   .     A
C601   C608    1.403   .     A
C602   C609    1.403   .     A
C602   C604    1.414   .     A
C603   C605    1.411   .     A
C604   C607    1.411   .     A
C604   C117    1.394   1_556 S
C605   C613    1.398   .     A
C605   C618    1.380   .     A
C606   O641    1.285   .     A
C606   C615    1.402   .     S
C606   O639    1.275   .     A
C607   C612    1.398   .     A
C608   H628    1.083   .     S
C609   H629    1.083   .     S
C609   C127    1.386   1_556 S
C610   H622    1.109   .     S
C610   H621    1.113   .     S
C610   H623    1.113   .     S
C610   O646    1.411   .     S
C611   O638    1.411   .     S
C611   H624    1.109   .     S
C611   H625    1.113   .     S
C611   H626    1.113   .     S
C612   H630    1.084   .     S
C612   C122    1.386   1_556 S
C613   H631    1.084   .     S
C614   C777    1.336   .     S
C614   H794    1.088   .     S
C615   C938    1.336   1_545 S
C615   H957    1.088   1_545 S
C616   O644    1.290   .     A
C616   O642    1.286   .     A
C617   O645    1.290   .     A
C617   O643    1.286   .     A
C618   H619    1.085   .     S
H620   N528    1.029   1_655 S
H632   C938    1.088   1_545 S
H633   C777    1.088   .     S
N635   Zn648   2.013   .     S
N635   H526    1.029   1_655 S
N635   N528    1.278   1_655 S
N636   Zn647   2.013   .     S
O637   Zn647   1.956   .     S
O639   Zn648   1.956   .     S
O640   Zn648   1.978   .     S
O641   Zn647   1.978   .     S
O642   Zn647   2.006   .     S
O643   Zn648   2.006   .     S
O644   Zn648   2.022   .     S
O645   Zn647   2.022   .     S
C649   O694    1.285   .     A
C649   C668    1.402   .     S
C649   O691    1.275   .     A
C650   C652    1.394   .     A
C650   H681    1.085   .     S
C650   C661    1.380   .     A
C651   C672    1.394   .     A
C651   C653    1.409   .     A
C651   C671    1.435   .     S
C652   C654    1.409   .     A
C652   C670    1.435   .     S
C653   O700    1.386   .     S
C653   C655    1.393   .     A
C654   O692    1.386   .     S
C654   C656    1.393   .     A
C655   C657    1.414   .     A
C655   C662    1.403   .     A
C656   C663    1.403   .     A
C656   C658    1.414   .     A
C657   C659    1.411   .     A
C658   C661    1.411   .     A
C658   C171    1.394   1_556 S
C659   C667    1.398   .     A
C659   C672    1.380   .     A
C660   O695    1.285   .     A
C660   C669    1.402   .     S
C660   O693    1.275   .     A
C661   C666    1.398   .     A
C662   H682    1.083   .     S
C663   H683    1.083   .     S
C663   C181    1.386   1_556 S
C664   H676    1.109   .     S
C664   H675    1.113   .     S
C664   H677    1.113   .     S
C664   O700    1.411   .     S
C665   O692    1.411   .     S
C665   H678    1.109   .     S
C665   H679    1.113   .     S
C665   H680    1.113   .     S
C666   H684    1.084   .     S
C666   C176    1.386   1_556 S
C667   H685    1.084   .     S
C668   C831    1.336   .     S
C668   H848    1.088   .     S
C670   O698    1.290   .     A
C670   O696    1.286   .     A
C671   O699    1.290   .     A
C671   O697    1.286   .     A
C672   H673    1.085   .     S
H674   N744    1.029   .     S
H687   C831    1.088   .     S
H688   N797    1.029   1_455 S
N689   Zn702   2.013   .     S
N689   H742    1.029   .     S
N689   N744    1.278   .     S
N690   Zn701   2.013   .     S
N690   N797    1.278   1_455 S
N690   H782    1.029   1_455 S
O691   Zn701   1.956   .     S
O693   Zn702   1.956   .     S
O694   Zn702   1.978   .     S
O695   Zn701   1.978   .     S
O696   Zn701   2.006   .     S
O697   Zn702   2.006   .     S
O698   Zn702   2.022   .     S
O699   Zn701   2.022   .     S
C703   O748    1.285   .     A
C703   C722    1.402   .     S
C703   O745    1.275   .     A
C704   C706    1.394   .     A
C704   H735    1.085   .     S
C704   C715    1.380   .     A
C705   C726    1.394   .     A
C705   C707    1.409   .     A
C705   C725    1.435   .     S
C706   C708    1.409   .     A
C706   C724    1.435   .     S
C707   O754    1.386   .     S
C707   C709    1.393   .     A
C708   O746    1.386   .     S
C708   C710    1.393   .     A
C709   C711    1.414   .     A
C709   C716    1.403   .     A
C710   C717    1.403   .     A
C710   C712    1.414   .     A
C711   C713    1.411   .     A
C712   C715    1.411   .     A
C712   C225    1.394   1_556 S
C713   C721    1.398   .     A
C713   C726    1.380   .     A
C714   O749    1.285   .     A
C714   C723    1.402   .     S
C714   O747    1.275   .     A
C715   C720    1.398   .     A
C716   H736    1.083   .     S
C717   H737    1.083   .     S
C717   C235    1.386   1_556 S
C718   H730    1.109   .     S
C718   H729    1.113   .     S
C718   H731    1.113   .     S
C718   O754    1.411   .     S
C719   O746    1.411   .     S
C719   H732    1.109   .     S
C719   H733    1.113   .     S
C719   H734    1.113   .     S
C720   H738    1.084   .     S
C720   C230    1.386   1_556 S
C721   H739    1.084   .     S
C722   C885    1.336   .     S
C722   H902    1.088   .     S
C724   O752    1.290   .     A
C724   O750    1.286   .     A
C725   O753    1.290   .     A
C725   O751    1.286   .     A
C726   H727    1.085   .     S
H728   N798    1.029   .     S
H741   C885    1.088   .     S
N743   Zn756   2.013   .     S
N743   H796    1.029   .     S
N743   N798    1.278   .     S
N744   Zn755   2.013   .     S
O745   Zn755   1.956   .     S
O747   Zn756   1.956   .     S
O748   Zn756   1.978   .     S
O749   Zn755   1.978   .     S
O750   Zn755   2.006   .     S
O751   Zn756   2.006   .     S
O752   Zn756   2.022   .     S
O753   Zn755   2.022   .     S
C757   O802    1.285   .     A
C757   C776    1.402   .     S
C757   O799    1.275   .     A
C758   C760    1.394   .     A
C758   H789    1.085   .     S
C758   C769    1.380   .     A
C759   C780    1.394   .     A
C759   C761    1.409   .     A
C759   C779    1.435   .     S
C760   C762    1.409   .     A
C760   C778    1.435   .     S
C761   O808    1.386   .     S
C761   C763    1.393   .     A
C762   O800    1.386   .     S
C762   C764    1.393   .     A
C763   C765    1.414   .     A
C763   C770    1.403   .     A
C764   C771    1.403   .     A
C764   C766    1.414   .     A
C765   C767    1.411   .     A
C766   C769    1.411   .     A
C766   C279    1.394   1_556 S
C767   C775    1.398   .     A
C767   C780    1.380   .     A
C768   O803    1.285   .     A
C768   C777    1.402   .     S
C768   O801    1.275   .     A
C769   C774    1.398   .     A
C770   H790    1.083   .     S
C771   H791    1.083   .     S
C771   C289    1.386   1_556 S
C772   H784    1.109   .     S
C772   H783    1.113   .     S
C772   H785    1.113   .     S
C772   O808    1.411   .     S
C773   O800    1.411   .     S
C773   H786    1.109   .     S
C773   H787    1.113   .     S
C773   H788    1.113   .     S
C774   H792    1.084   .     S
C774   C284    1.386   1_556 S
C775   H793    1.084   .     S
C776   C939    1.336   .     S
C776   H956    1.088   .     S
C778   O806    1.290   .     A
C778   O804    1.286   .     A
C779   O807    1.290   .     A
C779   O805    1.286   .     A
C780   H781    1.085   .     S
H782   N690    1.029   1_655 S
H795   C939    1.088   .     S
N797   Zn810   2.013   .     S
N797   H688    1.029   1_655 S
N797   N690    1.278   1_655 S
N798   Zn809   2.013   .     S
O799   Zn809   1.956   .     S
O801   Zn810   1.956   .     S
O802   Zn810   1.978   .     S
O803   Zn809   1.978   .     S
O804   Zn809   2.006   .     S
O805   Zn810   2.006   .     S
O806   Zn810   2.022   .     S
O807   Zn809   2.022   .     S
C811   O856    1.285   .     A
C811   C830    1.402   .     S
C811   O853    1.275   .     A
C812   C814    1.394   .     A
C812   H843    1.085   .     S
C812   C823    1.380   .     A
C813   C834    1.394   .     A
C813   C815    1.409   .     A
C813   C833    1.435   .     S
C814   C816    1.409   .     A
C814   C832    1.435   .     S
C815   O862    1.386   .     S
C815   C817    1.393   .     A
C816   O854    1.386   .     S
C816   C818    1.393   .     A
C817   C819    1.414   .     A
C817   C824    1.403   .     A
C818   C825    1.403   .     A
C818   C820    1.414   .     A
C819   C821    1.411   .     A
C820   C823    1.411   .     A
C820   C333    1.394   1_556 S
C821   C829    1.398   .     A
C821   C834    1.380   .     A
C822   O857    1.285   .     A
C822   C831    1.402   .     S
C822   O855    1.275   .     A
C823   C828    1.398   .     A
C824   H844    1.083   .     S
C825   H845    1.083   .     S
C825   C343    1.386   1_556 S
C826   H838    1.109   .     S
C826   H837    1.113   .     S
C826   H839    1.113   .     S
C826   O862    1.411   .     S
C827   O854    1.411   .     S
C827   H840    1.109   .     S
C827   H841    1.113   .     S
C827   H842    1.113   .     S
C828   H846    1.084   .     S
C828   C338    1.386   1_556 S
C829   H847    1.084   .     S
C830   C507    1.336   1_565 S
C830   H524    1.088   1_565 S
C832   O860    1.290   .     A
C832   O858    1.286   .     A
C833   O861    1.290   .     A
C833   O859    1.286   .     A
C834   H835    1.085   .     S
H836   N906    1.029   .     S
H849   C507    1.088   1_565 S
H850   N959    1.029   1_455 S
N851   Zn864   2.013   .     S
N851   H904    1.029   .     S
N851   N906    1.278   .     S
N852   Zn863   2.013   .     S
N852   N959    1.278   1_455 S
N852   H944    1.029   1_455 S
O853   Zn863   1.956   .     S
O855   Zn864   1.956   .     S
O856   Zn864   1.978   .     S
O857   Zn863   1.978   .     S
O858   Zn863   2.006   .     S
O859   Zn864   2.006   .     S
O860   Zn864   2.022   .     S
O861   Zn863   2.022   .     S
C865   O910    1.285   .     A
C865   C884    1.402   .     S
C865   O907    1.275   .     A
C866   C868    1.394   .     A
C866   H897    1.085   .     S
C866   C877    1.380   .     A
C867   C888    1.394   .     A
C867   C869    1.409   .     A
C867   C887    1.435   .     S
C868   C870    1.409   .     A
C868   C886    1.435   .     S
C869   O916    1.386   .     S
C869   C871    1.393   .     A
C870   O908    1.386   .     S
C870   C872    1.393   .     A
C871   C873    1.414   .     A
C871   C878    1.403   .     A
C872   C879    1.403   .     A
C872   C874    1.414   .     A
C873   C875    1.411   .     A
C874   C877    1.411   .     A
C874   C387    1.394   1_556 S
C875   C883    1.398   .     A
C875   C888    1.380   .     A
C876   O911    1.285   .     A
C876   C885    1.402   .     S
C876   O909    1.275   .     A
C877   C882    1.398   .     A
C878   H898    1.083   .     S
C879   H899    1.083   .     S
C879   C397    1.386   1_556 S
C880   H892    1.109   .     S
C880   H891    1.113   .     S
C880   H893    1.113   .     S
C880   O916    1.411   .     S
C881   O908    1.411   .     S
C881   H894    1.109   .     S
C881   H895    1.113   .     S
C881   H896    1.113   .     S
C882   H900    1.084   .     S
C882   C392    1.386   1_556 S
C883   H901    1.084   .     S
C884   C561    1.336   1_565 S
C884   H578    1.088   1_565 S
C886   O914    1.290   .     A
C886   O912    1.286   .     A
C887   O915    1.290   .     A
C887   O913    1.286   .     A
C888   H889    1.085   .     S
H890   N960    1.029   .     S
H903   C561    1.088   1_565 S
N905   Zn918   2.013   .     S
N905   H958    1.029   .     S
N905   N960    1.278   .     S
N906   Zn917   2.013   .     S
O907   Zn917   1.956   .     S
O909   Zn918   1.956   .     S
O910   Zn918   1.978   .     S
O911   Zn917   1.978   .     S
O912   Zn917   2.006   .     S
O913   Zn918   2.006   .     S
O914   Zn918   2.022   .     S
O915   Zn917   2.022   .     S
C919   O964    1.285   .     A
C919   C938    1.402   .     S
C919   O961    1.275   .     A
C920   C922    1.394   .     A
C920   H951    1.085   .     S
C920   C931    1.380   .     A
C921   C942    1.394   .     A
C921   C923    1.409   .     A
C921   C941    1.435   .     S
C922   C924    1.409   .     A
C922   C940    1.435   .     S
C923   O970    1.386   .     S
C923   C925    1.393   .     A
C924   O962    1.386   .     S
C924   C926    1.393   .     A
C925   C927    1.414   .     A
C925   C932    1.403   .     A
C926   C933    1.403   .     A
C926   C928    1.414   .     A
C927   C929    1.411   .     A
C928   C931    1.411   .     A
C928   C441    1.394   1_556 S
C929   C937    1.398   .     A
C929   C942    1.380   .     A
C930   O965    1.285   .     A
C930   C939    1.402   .     S
C930   O963    1.275   .     A
C931   C936    1.398   .     A
C932   H952    1.083   .     S
C933   H953    1.083   .     S
C933   C451    1.386   1_556 S
C934   H946    1.109   .     S
C934   H945    1.113   .     S
C934   H947    1.113   .     S
C934   O970    1.411   .     S
C935   O962    1.411   .     S
C935   H948    1.109   .     S
C935   H949    1.113   .     S
C935   H950    1.113   .     S
C936   H954    1.084   .     S
C936   C446    1.386   1_556 S
C937   H955    1.084   .     S
C938   C615    1.336   1_565 S
C938   H632    1.088   1_565 S
C940   O968    1.290   .     A
C940   O966    1.286   .     A
C941   O969    1.290   .     A
C941   O967    1.286   .     A
C942   H943    1.085   .     S
H944   N852    1.029   1_655 S
H957   C615    1.088   1_565 S
N959   Zn972   2.013   .     S
N959   H850    1.029   1_655 S
N959   N852    1.278   1_655 S
N960   Zn971   2.013   .     S
O961   Zn971   1.956   .     S
O963   Zn972   1.956   .     S
O964   Zn972   1.978   .     S
O965   Zn971   1.978   .     S
O966   Zn971   2.006   .     S
O967   Zn972   2.006   .     S
O968   Zn972   2.022   .     S
O969   Zn971   2.022   .     S
