data_str_m2_o10_o18_pcu_sym.148
_audit_creation_date              2020-01-03
_audit_creation_method            'Materials Studio'
_symmetry_space_group_name_H-M    'P1'
_symmetry_Int_Tables_number       1
_symmetry_cell_setting            triclinic
loop_
_symmetry_equiv_pos_as_xyz
  x,y,z
_cell_length_a                    22.5376
_cell_length_b                    26.0228
_cell_length_c                    31.3970
_cell_angle_alpha                 95.0378
_cell_angle_beta                  75.2392
_cell_angle_gamma                 103.6583
loop_
_atom_site_label
_atom_site_type_symbol
_atom_site_fract_x
_atom_site_fract_y
_atom_site_fract_z
_atom_site_U_iso_or_equiv
_atom_site_adp_type
_atom_site_occupancy
C1     C     0.18180   0.26670   0.25131   0.00000  Uiso   1.00
C2     C     0.15157   0.06663   0.24860   0.00000  Uiso   1.00
C3     C     0.10448   0.12549   0.03793   0.00000  Uiso   1.00
C4     C     0.24338   0.19126   0.45577   0.00000  Uiso   1.00
C5     C     0.06298   0.10365   0.01171   0.00000  Uiso   1.00
C6     C     0.28834   0.20568   0.48045   0.00000  Uiso   1.00
C7     C     0.19015   0.32287   0.25185   0.00000  Uiso   1.00
C8     C     0.14330   0.01044   0.24789   0.00000  Uiso   1.00
C9     C     0.12820   0.16309   0.33320   0.00000  Uiso   1.00
C10    C     0.20554   0.17418   0.16691   0.00000  Uiso   1.00
C11    C     0.10416   0.15561   0.38102   0.00000  Uiso   1.00
C12    C     0.22965   0.18475   0.11887   0.00000  Uiso   1.00
C13    C     0.03034   0.10546   0.44232   0.00000  Uiso   1.00
C14    C     0.31542   0.20755   0.05266   0.00000  Uiso   1.00
C15    C     0.04820   0.11802   0.39717   0.00000  Uiso   1.00
C16    C     0.29451   0.20018   0.09876   0.00000  Uiso   1.00
C17    C     0.14138   0.18089   0.40995   0.00000  Uiso   1.00
C18    C     0.18669   0.18274   0.09287   0.00000  Uiso   1.00
C19    C     0.13273   0.15768   0.45090   0.00000  Uiso   1.00
C20    C     0.20651   0.17906   0.04681   0.00000  Uiso   1.00
C21    C     0.07497   0.12141   0.46824   0.00000  Uiso   1.00
C22    C     0.27094   0.19762   0.02647   0.00000  Uiso   1.00
C23    C     0.17954   0.17057   0.47552   0.00000  Uiso   1.00
C24    C     0.16256   0.15990   0.02071   0.00000  Uiso   1.00
Cu25   Cu    0.10737   0.16108   0.24516   0.00000  Uiso   1.00
Cu26   Cu    0.22596   0.17225   0.25483   0.00000  Uiso   1.00
H27    H     0.09331   0.11101   0.07094   0.00000  Uiso   1.00
H28    H     0.26006   0.19496   0.42047   0.00000  Uiso   1.00
H29    H     0.23509   0.01376   0.25555   0.00000  Uiso   1.00
H30    H     0.09836   0.31956   0.24416   0.00000  Uiso   1.00
N31    N     0.31506   0.18068   0.26212   0.00000  Uiso   1.00
N32    N     0.01827   0.15265   0.23788   0.00000  Uiso   1.00
O33    O     0.12815   0.23809   0.24686   0.00000  Uiso   1.00
O34    O     0.20518   0.09524   0.25314   0.00000  Uiso   1.00
O35    O     0.22829   0.24753   0.25502   0.00000  Uiso   1.00
O36    O     0.10504   0.08580   0.24497   0.00000  Uiso   1.00
O37    O     0.08851   0.15930   0.30854   0.00000  Uiso   1.00
O38    O     0.24482   0.17403   0.19145   0.00000  Uiso   1.00
O39    O     0.18866   0.16874   0.31671   0.00000  Uiso   1.00
O40    O     0.14468   0.16460   0.18329   0.00000  Uiso   1.00
O41    O     0.01201   0.06447   0.02972   0.00000  Uiso   1.00
H42    H     0.00925   0.03518   0.00739   0.00000  Uiso   1.00
O43    O     0.01484   0.22955   0.45848   0.00000  Uiso   1.00
H44    H     0.02617   0.26365   0.47441   0.00000  Uiso   1.00
N45    N     0.12966   0.19981   0.11112   0.00000  Uiso   1.00
H46    H     0.09260   0.17214   0.12823   0.00000  Uiso   1.00
C47    C     0.13618   0.25372   0.12923   0.00000  Uiso   1.00
H48    H     0.11286   0.25352   0.16493   0.00000  Uiso   1.00
H49    H     0.11366   0.27650   0.11227   0.00000  Uiso   1.00
H50    H     0.18627   0.27491   0.12482   0.00000  Uiso   1.00
N51    N     0.18407   0.23109   0.39937   0.00000  Uiso   1.00
H52    H     0.19820   0.24112   0.36681   0.00000  Uiso   1.00
C53    C     0.16809   0.27558   0.42732   0.00000  Uiso   1.00
H54    H     0.20879   0.30999   0.42100   0.00000  Uiso   1.00
H55    H     0.15673   0.26653   0.46277   0.00000  Uiso   1.00
H56    H     0.12749   0.28672   0.41957   0.00000  Uiso   1.00
O57    O     0.00442   0.21246   0.12393   0.00000  Uiso   1.00
H58    H     0.32375   0.23858   0.14697   0.00000  Uiso   1.00
O59    O     0.01261   0.09330   0.36817   0.00000  Uiso   1.00
H60    H     0.32110   0.05848   0.37978   0.00000  Uiso   1.00
O61    O     0.30319   0.07879   0.46154   0.00000  Uiso   1.00
H62    H     0.27411   0.08446   0.44437   0.00000  Uiso   1.00
O63    O     0.04536   0.22340   0.03253   0.00000  Uiso   1.00
H64    H     0.07077   0.23008   0.05462   0.00000  Uiso   1.00
O65    O     0.00491   0.21160   0.29313   0.00000  Uiso   1.00
H66    H     0.30423   0.22942   0.30874   0.00000  Uiso   1.00
O67    O     0.32842   0.12172   0.20688   0.00000  Uiso   1.00
H68    H     0.02907   0.10384   0.19132   0.00000  Uiso   1.00
C69    C     0.51514   0.26670   0.25131   0.00000  Uiso   1.00
C70    C     0.48490   0.06663   0.24860   0.00000  Uiso   1.00
C71    C     0.43781   0.12549   0.03793   0.00000  Uiso   1.00
C72    C     0.57672   0.19126   0.45577   0.00000  Uiso   1.00
C73    C     0.39631   0.10365   0.01171   0.00000  Uiso   1.00
C74    C     0.62168   0.20568   0.48045   0.00000  Uiso   1.00
C75    C     0.52348   0.32287   0.25185   0.00000  Uiso   1.00
C76    C     0.47663   0.01044   0.24789   0.00000  Uiso   1.00
C77    C     0.46154   0.16309   0.33320   0.00000  Uiso   1.00
C78    C     0.53887   0.17418   0.16691   0.00000  Uiso   1.00
C79    C     0.43750   0.15561   0.38102   0.00000  Uiso   1.00
C80    C     0.56299   0.18475   0.11887   0.00000  Uiso   1.00
C81    C     0.36367   0.10546   0.44232   0.00000  Uiso   1.00
C82    C     0.64876   0.20755   0.05266   0.00000  Uiso   1.00
C83    C     0.38153   0.11802   0.39717   0.00000  Uiso   1.00
C84    C     0.62784   0.20018   0.09876   0.00000  Uiso   1.00
C85    C     0.47472   0.18089   0.40995   0.00000  Uiso   1.00
C86    C     0.52002   0.18274   0.09287   0.00000  Uiso   1.00
C87    C     0.46606   0.15768   0.45090   0.00000  Uiso   1.00
C88    C     0.53985   0.17906   0.04681   0.00000  Uiso   1.00
C89    C     0.40831   0.12141   0.46824   0.00000  Uiso   1.00
C90    C     0.60427   0.19762   0.02647   0.00000  Uiso   1.00
C91    C     0.51287   0.17057   0.47552   0.00000  Uiso   1.00
C92    C     0.49589   0.15990   0.02071   0.00000  Uiso   1.00
Cu93   Cu    0.44071   0.16108   0.24516   0.00000  Uiso   1.00
Cu94   Cu    0.55929   0.17225   0.25483   0.00000  Uiso   1.00
H95    H     0.42665   0.11101   0.07094   0.00000  Uiso   1.00
H96    H     0.59340   0.19496   0.42047   0.00000  Uiso   1.00
H97    H     0.56843   0.01376   0.25555   0.00000  Uiso   1.00
H98    H     0.43169   0.31956   0.24416   0.00000  Uiso   1.00
N99    N     0.64839   0.18068   0.26212   0.00000  Uiso   1.00
N100   N     0.35161   0.15265   0.23788   0.00000  Uiso   1.00
O101   O     0.46148   0.23809   0.24686   0.00000  Uiso   1.00
O102   O     0.53852   0.09524   0.25314   0.00000  Uiso   1.00
O103   O     0.56163   0.24753   0.25502   0.00000  Uiso   1.00
O104   O     0.43837   0.08580   0.24497   0.00000  Uiso   1.00
O105   O     0.42185   0.15930   0.30854   0.00000  Uiso   1.00
O106   O     0.57815   0.17403   0.19145   0.00000  Uiso   1.00
O107   O     0.52199   0.16874   0.31671   0.00000  Uiso   1.00
O108   O     0.47801   0.16460   0.18329   0.00000  Uiso   1.00
O109   O     0.34534   0.06447   0.02972   0.00000  Uiso   1.00
H110   H     0.34259   0.03518   0.00739   0.00000  Uiso   1.00
O111   O     0.34818   0.22955   0.45848   0.00000  Uiso   1.00
H112   H     0.35950   0.26365   0.47441   0.00000  Uiso   1.00
N113   N     0.46300   0.19981   0.11112   0.00000  Uiso   1.00
H114   H     0.42593   0.17214   0.12823   0.00000  Uiso   1.00
C115   C     0.46951   0.25372   0.12923   0.00000  Uiso   1.00
H116   H     0.44619   0.25352   0.16493   0.00000  Uiso   1.00
H117   H     0.44700   0.27650   0.11227   0.00000  Uiso   1.00
H118   H     0.51960   0.27491   0.12482   0.00000  Uiso   1.00
N119   N     0.51740   0.23109   0.39937   0.00000  Uiso   1.00
H120   H     0.53153   0.24112   0.36681   0.00000  Uiso   1.00
C121   C     0.50142   0.27558   0.42732   0.00000  Uiso   1.00
H122   H     0.54213   0.30999   0.42100   0.00000  Uiso   1.00
H123   H     0.49007   0.26653   0.46277   0.00000  Uiso   1.00
H124   H     0.46082   0.28672   0.41957   0.00000  Uiso   1.00
O125   O     0.33776   0.21246   0.12393   0.00000  Uiso   1.00
H126   H     0.65708   0.23858   0.14697   0.00000  Uiso   1.00
O127   O     0.34595   0.09330   0.36817   0.00000  Uiso   1.00
H128   H     0.65443   0.05848   0.37978   0.00000  Uiso   1.00
O129   O     0.63652   0.07879   0.46154   0.00000  Uiso   1.00
H130   H     0.60744   0.08446   0.44437   0.00000  Uiso   1.00
O131   O     0.37870   0.22340   0.03253   0.00000  Uiso   1.00
H132   H     0.40411   0.23008   0.05462   0.00000  Uiso   1.00
O133   O     0.33824   0.21160   0.29313   0.00000  Uiso   1.00
H134   H     0.63756   0.22942   0.30874   0.00000  Uiso   1.00
O135   O     0.66175   0.12172   0.20688   0.00000  Uiso   1.00
H136   H     0.36241   0.10384   0.19132   0.00000  Uiso   1.00
C137   C     0.84847   0.26670   0.25131   0.00000  Uiso   1.00
C138   C     0.81823   0.06663   0.24860   0.00000  Uiso   1.00
C139   C     0.77114   0.12549   0.03793   0.00000  Uiso   1.00
C140   C     0.91005   0.19126   0.45577   0.00000  Uiso   1.00
C141   C     0.72964   0.10365   0.01171   0.00000  Uiso   1.00
C142   C     0.95501   0.20568   0.48045   0.00000  Uiso   1.00
C143   C     0.85681   0.32287   0.25185   0.00000  Uiso   1.00
C144   C     0.80996   0.01044   0.24789   0.00000  Uiso   1.00
C145   C     0.79487   0.16309   0.33320   0.00000  Uiso   1.00
C146   C     0.87220   0.17418   0.16691   0.00000  Uiso   1.00
C147   C     0.77083   0.15561   0.38102   0.00000  Uiso   1.00
C148   C     0.89632   0.18475   0.11887   0.00000  Uiso   1.00
C149   C     0.69700   0.10546   0.44232   0.00000  Uiso   1.00
C150   C     0.98209   0.20755   0.05266   0.00000  Uiso   1.00
C151   C     0.71486   0.11802   0.39717   0.00000  Uiso   1.00
C152   C     0.96118   0.20018   0.09876   0.00000  Uiso   1.00
C153   C     0.80805   0.18089   0.40995   0.00000  Uiso   1.00
C154   C     0.85336   0.18274   0.09287   0.00000  Uiso   1.00
C155   C     0.79939   0.15768   0.45090   0.00000  Uiso   1.00
C156   C     0.87318   0.17906   0.04681   0.00000  Uiso   1.00
C157   C     0.74164   0.12141   0.46824   0.00000  Uiso   1.00
C158   C     0.93761   0.19762   0.02647   0.00000  Uiso   1.00
C159   C     0.84621   0.17057   0.47552   0.00000  Uiso   1.00
C160   C     0.82922   0.15990   0.02071   0.00000  Uiso   1.00
Cu161  Cu    0.77404   0.16108   0.24516   0.00000  Uiso   1.00
Cu162  Cu    0.89263   0.17225   0.25483   0.00000  Uiso   1.00
H163   H     0.75998   0.11101   0.07094   0.00000  Uiso   1.00
H164   H     0.92673   0.19496   0.42047   0.00000  Uiso   1.00
H165   H     0.90176   0.01376   0.25555   0.00000  Uiso   1.00
H166   H     0.76503   0.31956   0.24416   0.00000  Uiso   1.00
N167   N     0.98173   0.18068   0.26212   0.00000  Uiso   1.00
N168   N     0.68494   0.15265   0.23788   0.00000  Uiso   1.00
O169   O     0.79482   0.23809   0.24686   0.00000  Uiso   1.00
O170   O     0.87185   0.09524   0.25314   0.00000  Uiso   1.00
O171   O     0.89496   0.24753   0.25502   0.00000  Uiso   1.00
O172   O     0.77171   0.08580   0.24497   0.00000  Uiso   1.00
O173   O     0.75518   0.15930   0.30854   0.00000  Uiso   1.00
O174   O     0.91149   0.17403   0.19145   0.00000  Uiso   1.00
O175   O     0.85532   0.16874   0.31671   0.00000  Uiso   1.00
O176   O     0.81134   0.16460   0.18329   0.00000  Uiso   1.00
O177   O     0.67867   0.06447   0.02972   0.00000  Uiso   1.00
H178   H     0.67592   0.03518   0.00739   0.00000  Uiso   1.00
O179   O     0.68151   0.22955   0.45848   0.00000  Uiso   1.00
H180   H     0.69284   0.26365   0.47441   0.00000  Uiso   1.00
N181   N     0.79633   0.19981   0.11112   0.00000  Uiso   1.00
H182   H     0.75926   0.17214   0.12823   0.00000  Uiso   1.00
C183   C     0.80285   0.25372   0.12923   0.00000  Uiso   1.00
H184   H     0.77952   0.25352   0.16493   0.00000  Uiso   1.00
H185   H     0.78033   0.27650   0.11227   0.00000  Uiso   1.00
H186   H     0.85294   0.27491   0.12482   0.00000  Uiso   1.00
N187   N     0.85073   0.23109   0.39937   0.00000  Uiso   1.00
H188   H     0.86486   0.24112   0.36681   0.00000  Uiso   1.00
C189   C     0.83476   0.27558   0.42732   0.00000  Uiso   1.00
H190   H     0.87546   0.30999   0.42100   0.00000  Uiso   1.00
H191   H     0.82340   0.26653   0.46277   0.00000  Uiso   1.00
H192   H     0.79416   0.28672   0.41957   0.00000  Uiso   1.00
O193   O     0.67109   0.21246   0.12393   0.00000  Uiso   1.00
H194   H     0.99042   0.23858   0.14697   0.00000  Uiso   1.00
O195   O     0.67928   0.09330   0.36817   0.00000  Uiso   1.00
H196   H     0.98777   0.05848   0.37978   0.00000  Uiso   1.00
O197   O     0.96985   0.07879   0.46154   0.00000  Uiso   1.00
H198   H     0.94078   0.08446   0.44437   0.00000  Uiso   1.00
O199   O     0.71203   0.22340   0.03253   0.00000  Uiso   1.00
H200   H     0.73744   0.23008   0.05462   0.00000  Uiso   1.00
O201   O     0.67158   0.21160   0.29313   0.00000  Uiso   1.00
H202   H     0.97090   0.22942   0.30874   0.00000  Uiso   1.00
O203   O     0.99509   0.12172   0.20688   0.00000  Uiso   1.00
H204   H     0.69574   0.10384   0.19132   0.00000  Uiso   1.00
C205   C     0.18180   0.60004   0.25131   0.00000  Uiso   1.00
C206   C     0.15157   0.39996   0.24860   0.00000  Uiso   1.00
C207   C     0.10448   0.45882   0.03793   0.00000  Uiso   1.00
C208   C     0.24338   0.52459   0.45577   0.00000  Uiso   1.00
C209   C     0.06298   0.43698   0.01171   0.00000  Uiso   1.00
C210   C     0.28834   0.53901   0.48045   0.00000  Uiso   1.00
C211   C     0.19015   0.65621   0.25185   0.00000  Uiso   1.00
C212   C     0.14330   0.34378   0.24789   0.00000  Uiso   1.00
C213   C     0.12820   0.49642   0.33320   0.00000  Uiso   1.00
C214   C     0.20554   0.50752   0.16691   0.00000  Uiso   1.00
C215   C     0.10416   0.48894   0.38102   0.00000  Uiso   1.00
C216   C     0.22965   0.51809   0.11887   0.00000  Uiso   1.00
C217   C     0.03034   0.43880   0.44232   0.00000  Uiso   1.00
C218   C     0.31542   0.54088   0.05266   0.00000  Uiso   1.00
C219   C     0.04820   0.45135   0.39717   0.00000  Uiso   1.00
C220   C     0.29451   0.53351   0.09876   0.00000  Uiso   1.00
C221   C     0.14138   0.51422   0.40995   0.00000  Uiso   1.00
C222   C     0.18669   0.51608   0.09287   0.00000  Uiso   1.00
C223   C     0.13273   0.49102   0.45090   0.00000  Uiso   1.00
C224   C     0.20651   0.51240   0.04681   0.00000  Uiso   1.00
C225   C     0.07497   0.45475   0.46824   0.00000  Uiso   1.00
C226   C     0.27094   0.53095   0.02647   0.00000  Uiso   1.00
C227   C     0.17954   0.50391   0.47552   0.00000  Uiso   1.00
C228   C     0.16256   0.49323   0.02071   0.00000  Uiso   1.00
Cu229  Cu    0.10737   0.49441   0.24516   0.00000  Uiso   1.00
Cu230  Cu    0.22596   0.50559   0.25483   0.00000  Uiso   1.00
H231   H     0.09331   0.44435   0.07094   0.00000  Uiso   1.00
H232   H     0.26006   0.52830   0.42047   0.00000  Uiso   1.00
H233   H     0.23509   0.34709   0.25555   0.00000  Uiso   1.00
H234   H     0.09836   0.65289   0.24416   0.00000  Uiso   1.00
N235   N     0.31506   0.51401   0.26212   0.00000  Uiso   1.00
N236   N     0.01827   0.48599   0.23788   0.00000  Uiso   1.00
O237   O     0.12815   0.57142   0.24686   0.00000  Uiso   1.00
O238   O     0.20518   0.42858   0.25314   0.00000  Uiso   1.00
O239   O     0.22829   0.58086   0.25502   0.00000  Uiso   1.00
O240   O     0.10504   0.41914   0.24497   0.00000  Uiso   1.00
O241   O     0.08851   0.49263   0.30854   0.00000  Uiso   1.00
O242   O     0.24482   0.50737   0.19145   0.00000  Uiso   1.00
O243   O     0.18866   0.50207   0.31671   0.00000  Uiso   1.00
O244   O     0.14468   0.49793   0.18329   0.00000  Uiso   1.00
O245   O     0.01201   0.39781   0.02972   0.00000  Uiso   1.00
H246   H     0.00925   0.36851   0.00739   0.00000  Uiso   1.00
O247   O     0.01484   0.56288   0.45848   0.00000  Uiso   1.00
H248   H     0.02617   0.59698   0.47441   0.00000  Uiso   1.00
N249   N     0.12966   0.53314   0.11112   0.00000  Uiso   1.00
H250   H     0.09260   0.50547   0.12823   0.00000  Uiso   1.00
C251   C     0.13618   0.58706   0.12923   0.00000  Uiso   1.00
H252   H     0.11286   0.58686   0.16493   0.00000  Uiso   1.00
H253   H     0.11366   0.60983   0.11227   0.00000  Uiso   1.00
H254   H     0.18627   0.60824   0.12482   0.00000  Uiso   1.00
N255   N     0.18407   0.56443   0.39937   0.00000  Uiso   1.00
H256   H     0.19820   0.57445   0.36681   0.00000  Uiso   1.00
C257   C     0.16809   0.60891   0.42732   0.00000  Uiso   1.00
H258   H     0.20879   0.64332   0.42100   0.00000  Uiso   1.00
H259   H     0.15673   0.59987   0.46277   0.00000  Uiso   1.00
H260   H     0.12749   0.62005   0.41957   0.00000  Uiso   1.00
O261   O     0.00442   0.54579   0.12393   0.00000  Uiso   1.00
H262   H     0.32375   0.57191   0.14697   0.00000  Uiso   1.00
O263   O     0.01261   0.42663   0.36817   0.00000  Uiso   1.00
H264   H     0.32110   0.39182   0.37978   0.00000  Uiso   1.00
O265   O     0.30319   0.41212   0.46154   0.00000  Uiso   1.00
H266   H     0.27411   0.41779   0.44437   0.00000  Uiso   1.00
O267   O     0.04536   0.55673   0.03253   0.00000  Uiso   1.00
H268   H     0.07077   0.56341   0.05462   0.00000  Uiso   1.00
O269   O     0.00491   0.54494   0.29313   0.00000  Uiso   1.00
H270   H     0.30423   0.56276   0.30874   0.00000  Uiso   1.00
O271   O     0.32842   0.45505   0.20688   0.00000  Uiso   1.00
H272   H     0.02907   0.43717   0.19132   0.00000  Uiso   1.00
C273   C     0.51514   0.60004   0.25131   0.00000  Uiso   1.00
C274   C     0.48490   0.39996   0.24860   0.00000  Uiso   1.00
C275   C     0.43781   0.45882   0.03793   0.00000  Uiso   1.00
C276   C     0.57672   0.52459   0.45577   0.00000  Uiso   1.00
C277   C     0.39631   0.43698   0.01171   0.00000  Uiso   1.00
C278   C     0.62168   0.53901   0.48045   0.00000  Uiso   1.00
C279   C     0.52348   0.65621   0.25185   0.00000  Uiso   1.00
C280   C     0.47663   0.34378   0.24789   0.00000  Uiso   1.00
C281   C     0.46154   0.49642   0.33320   0.00000  Uiso   1.00
C282   C     0.53887   0.50752   0.16691   0.00000  Uiso   1.00
C283   C     0.43750   0.48894   0.38102   0.00000  Uiso   1.00
C284   C     0.56299   0.51809   0.11887   0.00000  Uiso   1.00
C285   C     0.36367   0.43880   0.44232   0.00000  Uiso   1.00
C286   C     0.64876   0.54088   0.05266   0.00000  Uiso   1.00
C287   C     0.38153   0.45135   0.39717   0.00000  Uiso   1.00
C288   C     0.62784   0.53351   0.09876   0.00000  Uiso   1.00
C289   C     0.47472   0.51422   0.40995   0.00000  Uiso   1.00
C290   C     0.52002   0.51608   0.09287   0.00000  Uiso   1.00
C291   C     0.46606   0.49102   0.45090   0.00000  Uiso   1.00
C292   C     0.53985   0.51240   0.04681   0.00000  Uiso   1.00
C293   C     0.40831   0.45475   0.46824   0.00000  Uiso   1.00
C294   C     0.60427   0.53095   0.02647   0.00000  Uiso   1.00
C295   C     0.51287   0.50391   0.47552   0.00000  Uiso   1.00
C296   C     0.49589   0.49323   0.02071   0.00000  Uiso   1.00
Cu297  Cu    0.44071   0.49441   0.24516   0.00000  Uiso   1.00
Cu298  Cu    0.55929   0.50559   0.25483   0.00000  Uiso   1.00
H299   H     0.42665   0.44435   0.07094   0.00000  Uiso   1.00
H300   H     0.59340   0.52830   0.42047   0.00000  Uiso   1.00
H301   H     0.56843   0.34709   0.25555   0.00000  Uiso   1.00
H302   H     0.43169   0.65289   0.24416   0.00000  Uiso   1.00
N303   N     0.64839   0.51401   0.26212   0.00000  Uiso   1.00
N304   N     0.35161   0.48599   0.23788   0.00000  Uiso   1.00
O305   O     0.46148   0.57142   0.24686   0.00000  Uiso   1.00
O306   O     0.53852   0.42858   0.25314   0.00000  Uiso   1.00
O307   O     0.56163   0.58086   0.25502   0.00000  Uiso   1.00
O308   O     0.43837   0.41914   0.24497   0.00000  Uiso   1.00
O309   O     0.42185   0.49263   0.30854   0.00000  Uiso   1.00
O310   O     0.57815   0.50737   0.19145   0.00000  Uiso   1.00
O311   O     0.52199   0.50207   0.31671   0.00000  Uiso   1.00
O312   O     0.47801   0.49793   0.18329   0.00000  Uiso   1.00
O313   O     0.34534   0.39781   0.02972   0.00000  Uiso   1.00
H314   H     0.34259   0.36851   0.00739   0.00000  Uiso   1.00
O315   O     0.34818   0.56288   0.45848   0.00000  Uiso   1.00
H316   H     0.35950   0.59698   0.47441   0.00000  Uiso   1.00
N317   N     0.46300   0.53314   0.11112   0.00000  Uiso   1.00
H318   H     0.42593   0.50547   0.12823   0.00000  Uiso   1.00
C319   C     0.46951   0.58706   0.12923   0.00000  Uiso   1.00
H320   H     0.44619   0.58686   0.16493   0.00000  Uiso   1.00
H321   H     0.44700   0.60983   0.11227   0.00000  Uiso   1.00
H322   H     0.51960   0.60824   0.12482   0.00000  Uiso   1.00
N323   N     0.51740   0.56443   0.39937   0.00000  Uiso   1.00
H324   H     0.53153   0.57445   0.36681   0.00000  Uiso   1.00
C325   C     0.50142   0.60891   0.42732   0.00000  Uiso   1.00
H326   H     0.54213   0.64332   0.42100   0.00000  Uiso   1.00
H327   H     0.49007   0.59987   0.46277   0.00000  Uiso   1.00
H328   H     0.46082   0.62005   0.41957   0.00000  Uiso   1.00
O329   O     0.33776   0.54579   0.12393   0.00000  Uiso   1.00
H330   H     0.65708   0.57191   0.14697   0.00000  Uiso   1.00
O331   O     0.34595   0.42663   0.36817   0.00000  Uiso   1.00
H332   H     0.65443   0.39182   0.37978   0.00000  Uiso   1.00
O333   O     0.63652   0.41212   0.46154   0.00000  Uiso   1.00
H334   H     0.60744   0.41779   0.44437   0.00000  Uiso   1.00
O335   O     0.37870   0.55673   0.03253   0.00000  Uiso   1.00
H336   H     0.40411   0.56341   0.05462   0.00000  Uiso   1.00
O337   O     0.33824   0.54494   0.29313   0.00000  Uiso   1.00
H338   H     0.63756   0.56276   0.30874   0.00000  Uiso   1.00
O339   O     0.66175   0.45505   0.20688   0.00000  Uiso   1.00
H340   H     0.36241   0.43717   0.19132   0.00000  Uiso   1.00
C341   C     0.84847   0.60004   0.25131   0.00000  Uiso   1.00
C342   C     0.81823   0.39996   0.24860   0.00000  Uiso   1.00
C343   C     0.77114   0.45882   0.03793   0.00000  Uiso   1.00
C344   C     0.91005   0.52459   0.45577   0.00000  Uiso   1.00
C345   C     0.72964   0.43698   0.01171   0.00000  Uiso   1.00
C346   C     0.95501   0.53901   0.48045   0.00000  Uiso   1.00
C347   C     0.85681   0.65621   0.25185   0.00000  Uiso   1.00
C348   C     0.80996   0.34378   0.24789   0.00000  Uiso   1.00
C349   C     0.79487   0.49642   0.33320   0.00000  Uiso   1.00
C350   C     0.87220   0.50752   0.16691   0.00000  Uiso   1.00
C351   C     0.77083   0.48894   0.38102   0.00000  Uiso   1.00
C352   C     0.89632   0.51809   0.11887   0.00000  Uiso   1.00
C353   C     0.69700   0.43880   0.44232   0.00000  Uiso   1.00
C354   C     0.98209   0.54088   0.05266   0.00000  Uiso   1.00
C355   C     0.71486   0.45135   0.39717   0.00000  Uiso   1.00
C356   C     0.96118   0.53351   0.09876   0.00000  Uiso   1.00
C357   C     0.80805   0.51422   0.40995   0.00000  Uiso   1.00
C358   C     0.85336   0.51608   0.09287   0.00000  Uiso   1.00
C359   C     0.79939   0.49102   0.45090   0.00000  Uiso   1.00
C360   C     0.87318   0.51240   0.04681   0.00000  Uiso   1.00
C361   C     0.74164   0.45475   0.46824   0.00000  Uiso   1.00
C362   C     0.93761   0.53095   0.02647   0.00000  Uiso   1.00
C363   C     0.84621   0.50391   0.47552   0.00000  Uiso   1.00
C364   C     0.82922   0.49323   0.02071   0.00000  Uiso   1.00
Cu365  Cu    0.77404   0.49441   0.24516   0.00000  Uiso   1.00
Cu366  Cu    0.89263   0.50559   0.25483   0.00000  Uiso   1.00
H367   H     0.75998   0.44435   0.07094   0.00000  Uiso   1.00
H368   H     0.92673   0.52830   0.42047   0.00000  Uiso   1.00
H369   H     0.90176   0.34709   0.25555   0.00000  Uiso   1.00
H370   H     0.76503   0.65289   0.24416   0.00000  Uiso   1.00
N371   N     0.98173   0.51401   0.26212   0.00000  Uiso   1.00
N372   N     0.68494   0.48599   0.23788   0.00000  Uiso   1.00
O373   O     0.79482   0.57142   0.24686   0.00000  Uiso   1.00
O374   O     0.87185   0.42858   0.25314   0.00000  Uiso   1.00
O375   O     0.89496   0.58086   0.25502   0.00000  Uiso   1.00
O376   O     0.77171   0.41914   0.24497   0.00000  Uiso   1.00
O377   O     0.75518   0.49263   0.30854   0.00000  Uiso   1.00
O378   O     0.91149   0.50737   0.19145   0.00000  Uiso   1.00
O379   O     0.85532   0.50207   0.31671   0.00000  Uiso   1.00
O380   O     0.81134   0.49793   0.18329   0.00000  Uiso   1.00
O381   O     0.67867   0.39781   0.02972   0.00000  Uiso   1.00
H382   H     0.67592   0.36851   0.00739   0.00000  Uiso   1.00
O383   O     0.68151   0.56288   0.45848   0.00000  Uiso   1.00
H384   H     0.69284   0.59698   0.47441   0.00000  Uiso   1.00
N385   N     0.79633   0.53314   0.11112   0.00000  Uiso   1.00
H386   H     0.75926   0.50547   0.12823   0.00000  Uiso   1.00
C387   C     0.80285   0.58706   0.12923   0.00000  Uiso   1.00
H388   H     0.77952   0.58686   0.16493   0.00000  Uiso   1.00
H389   H     0.78033   0.60983   0.11227   0.00000  Uiso   1.00
H390   H     0.85294   0.60824   0.12482   0.00000  Uiso   1.00
N391   N     0.85073   0.56443   0.39937   0.00000  Uiso   1.00
H392   H     0.86486   0.57445   0.36681   0.00000  Uiso   1.00
C393   C     0.83476   0.60891   0.42732   0.00000  Uiso   1.00
H394   H     0.87546   0.64332   0.42100   0.00000  Uiso   1.00
H395   H     0.82340   0.59987   0.46277   0.00000  Uiso   1.00
H396   H     0.79416   0.62005   0.41957   0.00000  Uiso   1.00
O397   O     0.67109   0.54579   0.12393   0.00000  Uiso   1.00
H398   H     0.99042   0.57191   0.14697   0.00000  Uiso   1.00
O399   O     0.67928   0.42663   0.36817   0.00000  Uiso   1.00
H400   H     0.98777   0.39182   0.37978   0.00000  Uiso   1.00
O401   O     0.96985   0.41212   0.46154   0.00000  Uiso   1.00
H402   H     0.94078   0.41779   0.44437   0.00000  Uiso   1.00
O403   O     0.71203   0.55673   0.03253   0.00000  Uiso   1.00
H404   H     0.73744   0.56341   0.05462   0.00000  Uiso   1.00
O405   O     0.67158   0.54494   0.29313   0.00000  Uiso   1.00
H406   H     0.97090   0.56276   0.30874   0.00000  Uiso   1.00
O407   O     0.99509   0.45505   0.20688   0.00000  Uiso   1.00
H408   H     0.69574   0.43717   0.19132   0.00000  Uiso   1.00
C409   C     0.18180   0.93337   0.25131   0.00000  Uiso   1.00
C410   C     0.15157   0.73330   0.24860   0.00000  Uiso   1.00
C411   C     0.10448   0.79215   0.03793   0.00000  Uiso   1.00
C412   C     0.24338   0.85793   0.45577   0.00000  Uiso   1.00
C413   C     0.06298   0.77032   0.01171   0.00000  Uiso   1.00
C414   C     0.28834   0.87235   0.48045   0.00000  Uiso   1.00
C415   C     0.19015   0.98954   0.25185   0.00000  Uiso   1.00
C416   C     0.14330   0.67711   0.24789   0.00000  Uiso   1.00
C417   C     0.12820   0.82976   0.33320   0.00000  Uiso   1.00
C418   C     0.20554   0.84085   0.16691   0.00000  Uiso   1.00
C419   C     0.10416   0.82227   0.38102   0.00000  Uiso   1.00
C420   C     0.22965   0.85142   0.11887   0.00000  Uiso   1.00
C421   C     0.03034   0.77213   0.44232   0.00000  Uiso   1.00
C422   C     0.31542   0.87422   0.05266   0.00000  Uiso   1.00
C423   C     0.04820   0.78468   0.39717   0.00000  Uiso   1.00
C424   C     0.29451   0.86685   0.09876   0.00000  Uiso   1.00
C425   C     0.14138   0.84755   0.40995   0.00000  Uiso   1.00
C426   C     0.18669   0.84941   0.09287   0.00000  Uiso   1.00
C427   C     0.13273   0.82435   0.45090   0.00000  Uiso   1.00
C428   C     0.20651   0.84573   0.04681   0.00000  Uiso   1.00
C429   C     0.07497   0.78808   0.46824   0.00000  Uiso   1.00
C430   C     0.27094   0.86429   0.02647   0.00000  Uiso   1.00
C431   C     0.17954   0.83724   0.47552   0.00000  Uiso   1.00
C432   C     0.16256   0.82657   0.02071   0.00000  Uiso   1.00
Cu433  Cu    0.10737   0.82775   0.24516   0.00000  Uiso   1.00
Cu434  Cu    0.22596   0.83892   0.25483   0.00000  Uiso   1.00
H435   H     0.09331   0.77768   0.07094   0.00000  Uiso   1.00
H436   H     0.26006   0.86163   0.42047   0.00000  Uiso   1.00
H437   H     0.23509   0.68042   0.25555   0.00000  Uiso   1.00
H438   H     0.09836   0.98622   0.24416   0.00000  Uiso   1.00
N439   N     0.31506   0.84735   0.26212   0.00000  Uiso   1.00
N440   N     0.01827   0.81932   0.23788   0.00000  Uiso   1.00
O441   O     0.12815   0.90476   0.24686   0.00000  Uiso   1.00
O442   O     0.20518   0.76191   0.25314   0.00000  Uiso   1.00
O443   O     0.22829   0.91420   0.25502   0.00000  Uiso   1.00
O444   O     0.10504   0.75247   0.24497   0.00000  Uiso   1.00
O445   O     0.08851   0.82597   0.30854   0.00000  Uiso   1.00
O446   O     0.24482   0.84070   0.19145   0.00000  Uiso   1.00
O447   O     0.18866   0.83540   0.31671   0.00000  Uiso   1.00
O448   O     0.14468   0.83126   0.18329   0.00000  Uiso   1.00
O449   O     0.01201   0.73114   0.02972   0.00000  Uiso   1.00
H450   H     0.00925   0.70185   0.00739   0.00000  Uiso   1.00
O451   O     0.01484   0.89621   0.45848   0.00000  Uiso   1.00
H452   H     0.02617   0.93031   0.47441   0.00000  Uiso   1.00
N453   N     0.12966   0.86647   0.11112   0.00000  Uiso   1.00
H454   H     0.09260   0.83880   0.12823   0.00000  Uiso   1.00
C455   C     0.13618   0.92039   0.12923   0.00000  Uiso   1.00
H456   H     0.11286   0.92019   0.16493   0.00000  Uiso   1.00
H457   H     0.11366   0.94316   0.11227   0.00000  Uiso   1.00
H458   H     0.18627   0.94158   0.12482   0.00000  Uiso   1.00
N459   N     0.18407   0.89776   0.39937   0.00000  Uiso   1.00
H460   H     0.19820   0.90778   0.36681   0.00000  Uiso   1.00
C461   C     0.16809   0.94225   0.42732   0.00000  Uiso   1.00
H462   H     0.20879   0.97666   0.42100   0.00000  Uiso   1.00
H463   H     0.15673   0.93320   0.46277   0.00000  Uiso   1.00
H464   H     0.12749   0.95339   0.41957   0.00000  Uiso   1.00
O465   O     0.00442   0.87912   0.12393   0.00000  Uiso   1.00
H466   H     0.32375   0.90525   0.14697   0.00000  Uiso   1.00
O467   O     0.01261   0.75997   0.36817   0.00000  Uiso   1.00
H468   H     0.32110   0.72515   0.37978   0.00000  Uiso   1.00
O469   O     0.30319   0.74546   0.46154   0.00000  Uiso   1.00
H470   H     0.27411   0.75112   0.44437   0.00000  Uiso   1.00
O471   O     0.04536   0.89006   0.03253   0.00000  Uiso   1.00
H472   H     0.07077   0.89675   0.05462   0.00000  Uiso   1.00
O473   O     0.00491   0.87827   0.29313   0.00000  Uiso   1.00
H474   H     0.30423   0.89609   0.30874   0.00000  Uiso   1.00
O475   O     0.32842   0.78838   0.20688   0.00000  Uiso   1.00
H476   H     0.02907   0.77051   0.19132   0.00000  Uiso   1.00
C477   C     0.51514   0.93337   0.25131   0.00000  Uiso   1.00
C478   C     0.48490   0.73330   0.24860   0.00000  Uiso   1.00
C479   C     0.43781   0.79215   0.03793   0.00000  Uiso   1.00
C480   C     0.57672   0.85793   0.45577   0.00000  Uiso   1.00
C481   C     0.39631   0.77032   0.01171   0.00000  Uiso   1.00
C482   C     0.62168   0.87235   0.48045   0.00000  Uiso   1.00
C483   C     0.52348   0.98954   0.25185   0.00000  Uiso   1.00
C484   C     0.47663   0.67711   0.24789   0.00000  Uiso   1.00
C485   C     0.46154   0.82976   0.33320   0.00000  Uiso   1.00
C486   C     0.53887   0.84085   0.16691   0.00000  Uiso   1.00
C487   C     0.43750   0.82227   0.38102   0.00000  Uiso   1.00
C488   C     0.56299   0.85142   0.11887   0.00000  Uiso   1.00
C489   C     0.36367   0.77213   0.44232   0.00000  Uiso   1.00
C490   C     0.64876   0.87422   0.05266   0.00000  Uiso   1.00
C491   C     0.38153   0.78468   0.39717   0.00000  Uiso   1.00
C492   C     0.62784   0.86685   0.09876   0.00000  Uiso   1.00
C493   C     0.47472   0.84755   0.40995   0.00000  Uiso   1.00
C494   C     0.52002   0.84941   0.09287   0.00000  Uiso   1.00
C495   C     0.46606   0.82435   0.45090   0.00000  Uiso   1.00
C496   C     0.53985   0.84573   0.04681   0.00000  Uiso   1.00
C497   C     0.40831   0.78808   0.46824   0.00000  Uiso   1.00
C498   C     0.60427   0.86429   0.02647   0.00000  Uiso   1.00
C499   C     0.51287   0.83724   0.47552   0.00000  Uiso   1.00
C500   C     0.49589   0.82657   0.02071   0.00000  Uiso   1.00
Cu501  Cu    0.44071   0.82775   0.24516   0.00000  Uiso   1.00
Cu502  Cu    0.55929   0.83892   0.25483   0.00000  Uiso   1.00
H503   H     0.42665   0.77768   0.07094   0.00000  Uiso   1.00
H504   H     0.59340   0.86163   0.42047   0.00000  Uiso   1.00
H505   H     0.56843   0.68042   0.25555   0.00000  Uiso   1.00
H506   H     0.43169   0.98622   0.24416   0.00000  Uiso   1.00
N507   N     0.64839   0.84735   0.26212   0.00000  Uiso   1.00
N508   N     0.35161   0.81932   0.23788   0.00000  Uiso   1.00
O509   O     0.46148   0.90476   0.24686   0.00000  Uiso   1.00
O510   O     0.53852   0.76191   0.25314   0.00000  Uiso   1.00
O511   O     0.56163   0.91420   0.25502   0.00000  Uiso   1.00
O512   O     0.43837   0.75247   0.24497   0.00000  Uiso   1.00
O513   O     0.42185   0.82597   0.30854   0.00000  Uiso   1.00
O514   O     0.57815   0.84070   0.19145   0.00000  Uiso   1.00
O515   O     0.52199   0.83540   0.31671   0.00000  Uiso   1.00
O516   O     0.47801   0.83126   0.18329   0.00000  Uiso   1.00
O517   O     0.34534   0.73114   0.02972   0.00000  Uiso   1.00
H518   H     0.34259   0.70185   0.00739   0.00000  Uiso   1.00
O519   O     0.34818   0.89621   0.45848   0.00000  Uiso   1.00
H520   H     0.35950   0.93031   0.47441   0.00000  Uiso   1.00
N521   N     0.46300   0.86647   0.11112   0.00000  Uiso   1.00
H522   H     0.42593   0.83880   0.12823   0.00000  Uiso   1.00
C523   C     0.46951   0.92039   0.12923   0.00000  Uiso   1.00
H524   H     0.44619   0.92019   0.16493   0.00000  Uiso   1.00
H525   H     0.44700   0.94316   0.11227   0.00000  Uiso   1.00
H526   H     0.51960   0.94158   0.12482   0.00000  Uiso   1.00
N527   N     0.51740   0.89776   0.39937   0.00000  Uiso   1.00
H528   H     0.53153   0.90778   0.36681   0.00000  Uiso   1.00
C529   C     0.50142   0.94225   0.42732   0.00000  Uiso   1.00
H530   H     0.54213   0.97666   0.42100   0.00000  Uiso   1.00
H531   H     0.49007   0.93320   0.46277   0.00000  Uiso   1.00
H532   H     0.46082   0.95339   0.41957   0.00000  Uiso   1.00
O533   O     0.33776   0.87912   0.12393   0.00000  Uiso   1.00
H534   H     0.65708   0.90525   0.14697   0.00000  Uiso   1.00
O535   O     0.34595   0.75997   0.36817   0.00000  Uiso   1.00
H536   H     0.65443   0.72515   0.37978   0.00000  Uiso   1.00
O537   O     0.63652   0.74546   0.46154   0.00000  Uiso   1.00
H538   H     0.60744   0.75112   0.44437   0.00000  Uiso   1.00
O539   O     0.37870   0.89006   0.03253   0.00000  Uiso   1.00
H540   H     0.40411   0.89675   0.05462   0.00000  Uiso   1.00
O541   O     0.33824   0.87827   0.29313   0.00000  Uiso   1.00
H542   H     0.63756   0.89609   0.30874   0.00000  Uiso   1.00
O543   O     0.66175   0.78838   0.20688   0.00000  Uiso   1.00
H544   H     0.36241   0.77051   0.19132   0.00000  Uiso   1.00
C545   C     0.84847   0.93337   0.25131   0.00000  Uiso   1.00
C546   C     0.81823   0.73330   0.24860   0.00000  Uiso   1.00
C547   C     0.77114   0.79215   0.03793   0.00000  Uiso   1.00
C548   C     0.91005   0.85793   0.45577   0.00000  Uiso   1.00
C549   C     0.72964   0.77032   0.01171   0.00000  Uiso   1.00
C550   C     0.95501   0.87235   0.48045   0.00000  Uiso   1.00
C551   C     0.85681   0.98954   0.25185   0.00000  Uiso   1.00
C552   C     0.80996   0.67711   0.24789   0.00000  Uiso   1.00
C553   C     0.79487   0.82976   0.33320   0.00000  Uiso   1.00
C554   C     0.87220   0.84085   0.16691   0.00000  Uiso   1.00
C555   C     0.77083   0.82227   0.38102   0.00000  Uiso   1.00
C556   C     0.89632   0.85142   0.11887   0.00000  Uiso   1.00
C557   C     0.69700   0.77213   0.44232   0.00000  Uiso   1.00
C558   C     0.98209   0.87422   0.05266   0.00000  Uiso   1.00
C559   C     0.71486   0.78468   0.39717   0.00000  Uiso   1.00
C560   C     0.96118   0.86685   0.09876   0.00000  Uiso   1.00
C561   C     0.80805   0.84755   0.40995   0.00000  Uiso   1.00
C562   C     0.85336   0.84941   0.09287   0.00000  Uiso   1.00
C563   C     0.79939   0.82435   0.45090   0.00000  Uiso   1.00
C564   C     0.87318   0.84573   0.04681   0.00000  Uiso   1.00
C565   C     0.74164   0.78808   0.46824   0.00000  Uiso   1.00
C566   C     0.93761   0.86429   0.02647   0.00000  Uiso   1.00
C567   C     0.84621   0.83724   0.47552   0.00000  Uiso   1.00
C568   C     0.82922   0.82657   0.02071   0.00000  Uiso   1.00
Cu569  Cu    0.77404   0.82775   0.24516   0.00000  Uiso   1.00
Cu570  Cu    0.89263   0.83892   0.25483   0.00000  Uiso   1.00
H571   H     0.75998   0.77768   0.07094   0.00000  Uiso   1.00
H572   H     0.92673   0.86163   0.42047   0.00000  Uiso   1.00
H573   H     0.90176   0.68042   0.25555   0.00000  Uiso   1.00
H574   H     0.76503   0.98622   0.24416   0.00000  Uiso   1.00
N575   N     0.98173   0.84735   0.26212   0.00000  Uiso   1.00
N576   N     0.68494   0.81932   0.23788   0.00000  Uiso   1.00
O577   O     0.79482   0.90476   0.24686   0.00000  Uiso   1.00
O578   O     0.87185   0.76191   0.25314   0.00000  Uiso   1.00
O579   O     0.89496   0.91420   0.25502   0.00000  Uiso   1.00
O580   O     0.77171   0.75247   0.24497   0.00000  Uiso   1.00
O581   O     0.75518   0.82597   0.30854   0.00000  Uiso   1.00
O582   O     0.91149   0.84070   0.19145   0.00000  Uiso   1.00
O583   O     0.85532   0.83540   0.31671   0.00000  Uiso   1.00
O584   O     0.81134   0.83126   0.18329   0.00000  Uiso   1.00
O585   O     0.67867   0.73114   0.02972   0.00000  Uiso   1.00
H586   H     0.67592   0.70185   0.00739   0.00000  Uiso   1.00
O587   O     0.68151   0.89621   0.45848   0.00000  Uiso   1.00
H588   H     0.69284   0.93031   0.47441   0.00000  Uiso   1.00
N589   N     0.79633   0.86647   0.11112   0.00000  Uiso   1.00
H590   H     0.75926   0.83880   0.12823   0.00000  Uiso   1.00
C591   C     0.80285   0.92039   0.12923   0.00000  Uiso   1.00
H592   H     0.77952   0.92019   0.16493   0.00000  Uiso   1.00
H593   H     0.78033   0.94316   0.11227   0.00000  Uiso   1.00
H594   H     0.85294   0.94158   0.12482   0.00000  Uiso   1.00
N595   N     0.85073   0.89776   0.39937   0.00000  Uiso   1.00
H596   H     0.86486   0.90778   0.36681   0.00000  Uiso   1.00
C597   C     0.83476   0.94225   0.42732   0.00000  Uiso   1.00
H598   H     0.87546   0.97666   0.42100   0.00000  Uiso   1.00
H599   H     0.82340   0.93320   0.46277   0.00000  Uiso   1.00
H600   H     0.79416   0.95339   0.41957   0.00000  Uiso   1.00
O601   O     0.67109   0.87912   0.12393   0.00000  Uiso   1.00
H602   H     0.99042   0.90525   0.14697   0.00000  Uiso   1.00
O603   O     0.67928   0.75997   0.36817   0.00000  Uiso   1.00
H604   H     0.98777   0.72515   0.37978   0.00000  Uiso   1.00
O605   O     0.96985   0.74546   0.46154   0.00000  Uiso   1.00
H606   H     0.94078   0.75112   0.44437   0.00000  Uiso   1.00
O607   O     0.71203   0.89006   0.03253   0.00000  Uiso   1.00
H608   H     0.73744   0.89675   0.05462   0.00000  Uiso   1.00
O609   O     0.67158   0.87827   0.29313   0.00000  Uiso   1.00
H610   H     0.97090   0.89609   0.30874   0.00000  Uiso   1.00
O611   O     0.99509   0.78838   0.20688   0.00000  Uiso   1.00
H612   H     0.69574   0.77051   0.19132   0.00000  Uiso   1.00
C613   C     0.18180   0.26670   0.75131   0.00000  Uiso   1.00
C614   C     0.15157   0.06663   0.74860   0.00000  Uiso   1.00
C615   C     0.10448   0.12549   0.53793   0.00000  Uiso   1.00
C616   C     0.24338   0.19126   0.95577   0.00000  Uiso   1.00
C617   C     0.06298   0.10365   0.51171   0.00000  Uiso   1.00
C618   C     0.28834   0.20568   0.98045   0.00000  Uiso   1.00
C619   C     0.19015   0.32287   0.75185   0.00000  Uiso   1.00
C620   C     0.14330   0.01044   0.74789   0.00000  Uiso   1.00
C621   C     0.12820   0.16309   0.83320   0.00000  Uiso   1.00
C622   C     0.20554   0.17418   0.66691   0.00000  Uiso   1.00
C623   C     0.10416   0.15561   0.88102   0.00000  Uiso   1.00
C624   C     0.22965   0.18475   0.61887   0.00000  Uiso   1.00
C625   C     0.03034   0.10546   0.94232   0.00000  Uiso   1.00
C626   C     0.31542   0.20755   0.55266   0.00000  Uiso   1.00
C627   C     0.04820   0.11802   0.89717   0.00000  Uiso   1.00
C628   C     0.29451   0.20018   0.59876   0.00000  Uiso   1.00
C629   C     0.14138   0.18089   0.90995   0.00000  Uiso   1.00
C630   C     0.18669   0.18274   0.59287   0.00000  Uiso   1.00
C631   C     0.13273   0.15768   0.95090   0.00000  Uiso   1.00
C632   C     0.20651   0.17906   0.54681   0.00000  Uiso   1.00
C633   C     0.07497   0.12141   0.96824   0.00000  Uiso   1.00
C634   C     0.27094   0.19762   0.52647   0.00000  Uiso   1.00
C635   C     0.17954   0.17057   0.97552   0.00000  Uiso   1.00
C636   C     0.16256   0.15990   0.52071   0.00000  Uiso   1.00
Cu637  Cu    0.10737   0.16108   0.74516   0.00000  Uiso   1.00
Cu638  Cu    0.22596   0.17225   0.75483   0.00000  Uiso   1.00
H639   H     0.09331   0.11101   0.57094   0.00000  Uiso   1.00
H640   H     0.26006   0.19496   0.92047   0.00000  Uiso   1.00
H641   H     0.23509   0.01376   0.75555   0.00000  Uiso   1.00
H642   H     0.09836   0.31956   0.74416   0.00000  Uiso   1.00
N643   N     0.31506   0.18068   0.76212   0.00000  Uiso   1.00
N644   N     0.01827   0.15265   0.73788   0.00000  Uiso   1.00
O645   O     0.12815   0.23809   0.74686   0.00000  Uiso   1.00
O646   O     0.20518   0.09524   0.75314   0.00000  Uiso   1.00
O647   O     0.22829   0.24753   0.75502   0.00000  Uiso   1.00
O648   O     0.10504   0.08580   0.74497   0.00000  Uiso   1.00
O649   O     0.08851   0.15930   0.80854   0.00000  Uiso   1.00
O650   O     0.24482   0.17403   0.69145   0.00000  Uiso   1.00
O651   O     0.18866   0.16874   0.81671   0.00000  Uiso   1.00
O652   O     0.14468   0.16460   0.68329   0.00000  Uiso   1.00
O653   O     0.01201   0.06447   0.52972   0.00000  Uiso   1.00
H654   H     0.00925   0.03518   0.50739   0.00000  Uiso   1.00
O655   O     0.01484   0.22955   0.95848   0.00000  Uiso   1.00
H656   H     0.02617   0.26365   0.97441   0.00000  Uiso   1.00
N657   N     0.12966   0.19981   0.61112   0.00000  Uiso   1.00
H658   H     0.09260   0.17214   0.62823   0.00000  Uiso   1.00
C659   C     0.13618   0.25372   0.62923   0.00000  Uiso   1.00
H660   H     0.11286   0.25352   0.66493   0.00000  Uiso   1.00
H661   H     0.11366   0.27650   0.61227   0.00000  Uiso   1.00
H662   H     0.18627   0.27491   0.62482   0.00000  Uiso   1.00
N663   N     0.18407   0.23109   0.89937   0.00000  Uiso   1.00
H664   H     0.19820   0.24112   0.86681   0.00000  Uiso   1.00
C665   C     0.16809   0.27558   0.92732   0.00000  Uiso   1.00
H666   H     0.20879   0.30999   0.92100   0.00000  Uiso   1.00
H667   H     0.15673   0.26653   0.96277   0.00000  Uiso   1.00
H668   H     0.12749   0.28672   0.91957   0.00000  Uiso   1.00
O669   O     0.00442   0.21246   0.62393   0.00000  Uiso   1.00
H670   H     0.32375   0.23858   0.64697   0.00000  Uiso   1.00
O671   O     0.01261   0.09330   0.86817   0.00000  Uiso   1.00
H672   H     0.32110   0.05848   0.87978   0.00000  Uiso   1.00
O673   O     0.30319   0.07879   0.96154   0.00000  Uiso   1.00
H674   H     0.27411   0.08446   0.94437   0.00000  Uiso   1.00
O675   O     0.04536   0.22340   0.53253   0.00000  Uiso   1.00
H676   H     0.07077   0.23008   0.55462   0.00000  Uiso   1.00
O677   O     0.00491   0.21160   0.79313   0.00000  Uiso   1.00
H678   H     0.30423   0.22942   0.80874   0.00000  Uiso   1.00
O679   O     0.32842   0.12172   0.70688   0.00000  Uiso   1.00
H680   H     0.02907   0.10384   0.69132   0.00000  Uiso   1.00
C681   C     0.51514   0.26670   0.75131   0.00000  Uiso   1.00
C682   C     0.48490   0.06663   0.74860   0.00000  Uiso   1.00
C683   C     0.43781   0.12549   0.53793   0.00000  Uiso   1.00
C684   C     0.57672   0.19126   0.95577   0.00000  Uiso   1.00
C685   C     0.39631   0.10365   0.51171   0.00000  Uiso   1.00
C686   C     0.62168   0.20568   0.98045   0.00000  Uiso   1.00
C687   C     0.52348   0.32287   0.75185   0.00000  Uiso   1.00
C688   C     0.47663   0.01044   0.74789   0.00000  Uiso   1.00
C689   C     0.46154   0.16309   0.83320   0.00000  Uiso   1.00
C690   C     0.53887   0.17418   0.66691   0.00000  Uiso   1.00
C691   C     0.43750   0.15561   0.88102   0.00000  Uiso   1.00
C692   C     0.56299   0.18475   0.61887   0.00000  Uiso   1.00
C693   C     0.36367   0.10546   0.94232   0.00000  Uiso   1.00
C694   C     0.64876   0.20755   0.55266   0.00000  Uiso   1.00
C695   C     0.38153   0.11802   0.89717   0.00000  Uiso   1.00
C696   C     0.62784   0.20018   0.59876   0.00000  Uiso   1.00
C697   C     0.47472   0.18089   0.90995   0.00000  Uiso   1.00
C698   C     0.52002   0.18274   0.59287   0.00000  Uiso   1.00
C699   C     0.46606   0.15768   0.95090   0.00000  Uiso   1.00
C700   C     0.53985   0.17906   0.54681   0.00000  Uiso   1.00
C701   C     0.40831   0.12141   0.96824   0.00000  Uiso   1.00
C702   C     0.60427   0.19762   0.52647   0.00000  Uiso   1.00
C703   C     0.51287   0.17057   0.97552   0.00000  Uiso   1.00
C704   C     0.49589   0.15990   0.52071   0.00000  Uiso   1.00
Cu705  Cu    0.44071   0.16108   0.74516   0.00000  Uiso   1.00
Cu706  Cu    0.55929   0.17225   0.75483   0.00000  Uiso   1.00
H707   H     0.42665   0.11101   0.57094   0.00000  Uiso   1.00
H708   H     0.59340   0.19496   0.92047   0.00000  Uiso   1.00
H709   H     0.56843   0.01376   0.75555   0.00000  Uiso   1.00
H710   H     0.43169   0.31956   0.74416   0.00000  Uiso   1.00
N711   N     0.64839   0.18068   0.76212   0.00000  Uiso   1.00
N712   N     0.35161   0.15265   0.73788   0.00000  Uiso   1.00
O713   O     0.46148   0.23809   0.74686   0.00000  Uiso   1.00
O714   O     0.53852   0.09524   0.75314   0.00000  Uiso   1.00
O715   O     0.56163   0.24753   0.75502   0.00000  Uiso   1.00
O716   O     0.43837   0.08580   0.74497   0.00000  Uiso   1.00
O717   O     0.42185   0.15930   0.80854   0.00000  Uiso   1.00
O718   O     0.57815   0.17403   0.69145   0.00000  Uiso   1.00
O719   O     0.52199   0.16874   0.81671   0.00000  Uiso   1.00
O720   O     0.47801   0.16460   0.68329   0.00000  Uiso   1.00
O721   O     0.34534   0.06447   0.52972   0.00000  Uiso   1.00
H722   H     0.34259   0.03518   0.50739   0.00000  Uiso   1.00
O723   O     0.34818   0.22955   0.95848   0.00000  Uiso   1.00
H724   H     0.35950   0.26365   0.97441   0.00000  Uiso   1.00
N725   N     0.46300   0.19981   0.61112   0.00000  Uiso   1.00
H726   H     0.42593   0.17214   0.62823   0.00000  Uiso   1.00
C727   C     0.46951   0.25372   0.62923   0.00000  Uiso   1.00
H728   H     0.44619   0.25352   0.66493   0.00000  Uiso   1.00
H729   H     0.44700   0.27650   0.61227   0.00000  Uiso   1.00
H730   H     0.51960   0.27491   0.62482   0.00000  Uiso   1.00
N731   N     0.51740   0.23109   0.89937   0.00000  Uiso   1.00
H732   H     0.53153   0.24112   0.86681   0.00000  Uiso   1.00
C733   C     0.50142   0.27558   0.92732   0.00000  Uiso   1.00
H734   H     0.54213   0.30999   0.92100   0.00000  Uiso   1.00
H735   H     0.49007   0.26653   0.96277   0.00000  Uiso   1.00
H736   H     0.46082   0.28672   0.91957   0.00000  Uiso   1.00
O737   O     0.33776   0.21246   0.62393   0.00000  Uiso   1.00
H738   H     0.65708   0.23858   0.64697   0.00000  Uiso   1.00
O739   O     0.34595   0.09330   0.86817   0.00000  Uiso   1.00
H740   H     0.65443   0.05848   0.87978   0.00000  Uiso   1.00
O741   O     0.63652   0.07879   0.96154   0.00000  Uiso   1.00
H742   H     0.60744   0.08446   0.94437   0.00000  Uiso   1.00
O743   O     0.37870   0.22340   0.53253   0.00000  Uiso   1.00
H744   H     0.40411   0.23008   0.55462   0.00000  Uiso   1.00
O745   O     0.33824   0.21160   0.79313   0.00000  Uiso   1.00
H746   H     0.63756   0.22942   0.80874   0.00000  Uiso   1.00
O747   O     0.66175   0.12172   0.70688   0.00000  Uiso   1.00
H748   H     0.36241   0.10384   0.69132   0.00000  Uiso   1.00
C749   C     0.84847   0.26670   0.75131   0.00000  Uiso   1.00
C750   C     0.81823   0.06663   0.74860   0.00000  Uiso   1.00
C751   C     0.77114   0.12549   0.53793   0.00000  Uiso   1.00
C752   C     0.91005   0.19126   0.95577   0.00000  Uiso   1.00
C753   C     0.72964   0.10365   0.51171   0.00000  Uiso   1.00
C754   C     0.95501   0.20568   0.98045   0.00000  Uiso   1.00
C755   C     0.85681   0.32287   0.75185   0.00000  Uiso   1.00
C756   C     0.80996   0.01044   0.74789   0.00000  Uiso   1.00
C757   C     0.79487   0.16309   0.83320   0.00000  Uiso   1.00
C758   C     0.87220   0.17418   0.66691   0.00000  Uiso   1.00
C759   C     0.77083   0.15561   0.88102   0.00000  Uiso   1.00
C760   C     0.89632   0.18475   0.61887   0.00000  Uiso   1.00
C761   C     0.69700   0.10546   0.94232   0.00000  Uiso   1.00
C762   C     0.98209   0.20755   0.55266   0.00000  Uiso   1.00
C763   C     0.71486   0.11802   0.89717   0.00000  Uiso   1.00
C764   C     0.96118   0.20018   0.59876   0.00000  Uiso   1.00
C765   C     0.80805   0.18089   0.90995   0.00000  Uiso   1.00
C766   C     0.85336   0.18274   0.59287   0.00000  Uiso   1.00
C767   C     0.79939   0.15768   0.95090   0.00000  Uiso   1.00
C768   C     0.87318   0.17906   0.54681   0.00000  Uiso   1.00
C769   C     0.74164   0.12141   0.96824   0.00000  Uiso   1.00
C770   C     0.93761   0.19762   0.52647   0.00000  Uiso   1.00
C771   C     0.84621   0.17057   0.97552   0.00000  Uiso   1.00
C772   C     0.82922   0.15990   0.52071   0.00000  Uiso   1.00
Cu773  Cu    0.77404   0.16108   0.74516   0.00000  Uiso   1.00
Cu774  Cu    0.89263   0.17225   0.75483   0.00000  Uiso   1.00
H775   H     0.75998   0.11101   0.57094   0.00000  Uiso   1.00
H776   H     0.92673   0.19496   0.92047   0.00000  Uiso   1.00
H777   H     0.90176   0.01376   0.75555   0.00000  Uiso   1.00
H778   H     0.76503   0.31956   0.74416   0.00000  Uiso   1.00
N779   N     0.98173   0.18068   0.76212   0.00000  Uiso   1.00
N780   N     0.68494   0.15265   0.73788   0.00000  Uiso   1.00
O781   O     0.79482   0.23809   0.74686   0.00000  Uiso   1.00
O782   O     0.87185   0.09524   0.75314   0.00000  Uiso   1.00
O783   O     0.89496   0.24753   0.75502   0.00000  Uiso   1.00
O784   O     0.77171   0.08580   0.74497   0.00000  Uiso   1.00
O785   O     0.75518   0.15930   0.80854   0.00000  Uiso   1.00
O786   O     0.91149   0.17403   0.69145   0.00000  Uiso   1.00
O787   O     0.85532   0.16874   0.81671   0.00000  Uiso   1.00
O788   O     0.81134   0.16460   0.68329   0.00000  Uiso   1.00
O789   O     0.67867   0.06447   0.52972   0.00000  Uiso   1.00
H790   H     0.67592   0.03518   0.50739   0.00000  Uiso   1.00
O791   O     0.68151   0.22955   0.95848   0.00000  Uiso   1.00
H792   H     0.69284   0.26365   0.97441   0.00000  Uiso   1.00
N793   N     0.79633   0.19981   0.61112   0.00000  Uiso   1.00
H794   H     0.75926   0.17214   0.62823   0.00000  Uiso   1.00
C795   C     0.80285   0.25372   0.62923   0.00000  Uiso   1.00
H796   H     0.77952   0.25352   0.66493   0.00000  Uiso   1.00
H797   H     0.78033   0.27650   0.61227   0.00000  Uiso   1.00
H798   H     0.85294   0.27491   0.62482   0.00000  Uiso   1.00
N799   N     0.85073   0.23109   0.89937   0.00000  Uiso   1.00
H800   H     0.86486   0.24112   0.86681   0.00000  Uiso   1.00
C801   C     0.83476   0.27558   0.92732   0.00000  Uiso   1.00
H802   H     0.87546   0.30999   0.92100   0.00000  Uiso   1.00
H803   H     0.82340   0.26653   0.96277   0.00000  Uiso   1.00
H804   H     0.79416   0.28672   0.91957   0.00000  Uiso   1.00
O805   O     0.67109   0.21246   0.62393   0.00000  Uiso   1.00
H806   H     0.99042   0.23858   0.64697   0.00000  Uiso   1.00
O807   O     0.67928   0.09330   0.86817   0.00000  Uiso   1.00
H808   H     0.98777   0.05848   0.87978   0.00000  Uiso   1.00
O809   O     0.96985   0.07879   0.96154   0.00000  Uiso   1.00
H810   H     0.94078   0.08446   0.94437   0.00000  Uiso   1.00
O811   O     0.71203   0.22340   0.53253   0.00000  Uiso   1.00
H812   H     0.73744   0.23008   0.55462   0.00000  Uiso   1.00
O813   O     0.67158   0.21160   0.79313   0.00000  Uiso   1.00
H814   H     0.97090   0.22942   0.80874   0.00000  Uiso   1.00
O815   O     0.99509   0.12172   0.70688   0.00000  Uiso   1.00
H816   H     0.69574   0.10384   0.69132   0.00000  Uiso   1.00
C817   C     0.18180   0.60004   0.75131   0.00000  Uiso   1.00
C818   C     0.15157   0.39996   0.74860   0.00000  Uiso   1.00
C819   C     0.10448   0.45882   0.53793   0.00000  Uiso   1.00
C820   C     0.24338   0.52459   0.95577   0.00000  Uiso   1.00
C821   C     0.06298   0.43698   0.51171   0.00000  Uiso   1.00
C822   C     0.28834   0.53901   0.98045   0.00000  Uiso   1.00
C823   C     0.19015   0.65621   0.75185   0.00000  Uiso   1.00
C824   C     0.14330   0.34378   0.74789   0.00000  Uiso   1.00
C825   C     0.12820   0.49642   0.83320   0.00000  Uiso   1.00
C826   C     0.20554   0.50752   0.66691   0.00000  Uiso   1.00
C827   C     0.10416   0.48894   0.88102   0.00000  Uiso   1.00
C828   C     0.22965   0.51809   0.61887   0.00000  Uiso   1.00
C829   C     0.03034   0.43880   0.94232   0.00000  Uiso   1.00
C830   C     0.31542   0.54088   0.55266   0.00000  Uiso   1.00
C831   C     0.04820   0.45135   0.89717   0.00000  Uiso   1.00
C832   C     0.29451   0.53351   0.59876   0.00000  Uiso   1.00
C833   C     0.14138   0.51422   0.90995   0.00000  Uiso   1.00
C834   C     0.18669   0.51608   0.59287   0.00000  Uiso   1.00
C835   C     0.13273   0.49102   0.95090   0.00000  Uiso   1.00
C836   C     0.20651   0.51240   0.54681   0.00000  Uiso   1.00
C837   C     0.07497   0.45475   0.96824   0.00000  Uiso   1.00
C838   C     0.27094   0.53095   0.52647   0.00000  Uiso   1.00
C839   C     0.17954   0.50391   0.97552   0.00000  Uiso   1.00
C840   C     0.16256   0.49323   0.52071   0.00000  Uiso   1.00
Cu841  Cu    0.10737   0.49441   0.74516   0.00000  Uiso   1.00
Cu842  Cu    0.22596   0.50559   0.75483   0.00000  Uiso   1.00
H843   H     0.09331   0.44435   0.57094   0.00000  Uiso   1.00
H844   H     0.26006   0.52830   0.92047   0.00000  Uiso   1.00
H845   H     0.23509   0.34709   0.75555   0.00000  Uiso   1.00
H846   H     0.09836   0.65289   0.74416   0.00000  Uiso   1.00
N847   N     0.31506   0.51401   0.76212   0.00000  Uiso   1.00
N848   N     0.01827   0.48599   0.73788   0.00000  Uiso   1.00
O849   O     0.12815   0.57142   0.74686   0.00000  Uiso   1.00
O850   O     0.20518   0.42858   0.75314   0.00000  Uiso   1.00
O851   O     0.22829   0.58086   0.75502   0.00000  Uiso   1.00
O852   O     0.10504   0.41914   0.74497   0.00000  Uiso   1.00
O853   O     0.08851   0.49263   0.80854   0.00000  Uiso   1.00
O854   O     0.24482   0.50737   0.69145   0.00000  Uiso   1.00
O855   O     0.18866   0.50207   0.81671   0.00000  Uiso   1.00
O856   O     0.14468   0.49793   0.68329   0.00000  Uiso   1.00
O857   O     0.01201   0.39781   0.52972   0.00000  Uiso   1.00
H858   H     0.00925   0.36851   0.50739   0.00000  Uiso   1.00
O859   O     0.01484   0.56288   0.95848   0.00000  Uiso   1.00
H860   H     0.02617   0.59698   0.97441   0.00000  Uiso   1.00
N861   N     0.12966   0.53314   0.61112   0.00000  Uiso   1.00
H862   H     0.09260   0.50547   0.62823   0.00000  Uiso   1.00
C863   C     0.13618   0.58706   0.62923   0.00000  Uiso   1.00
H864   H     0.11286   0.58686   0.66493   0.00000  Uiso   1.00
H865   H     0.11366   0.60983   0.61227   0.00000  Uiso   1.00
H866   H     0.18627   0.60824   0.62482   0.00000  Uiso   1.00
N867   N     0.18407   0.56443   0.89937   0.00000  Uiso   1.00
H868   H     0.19820   0.57445   0.86681   0.00000  Uiso   1.00
C869   C     0.16809   0.60891   0.92732   0.00000  Uiso   1.00
H870   H     0.20879   0.64332   0.92100   0.00000  Uiso   1.00
H871   H     0.15673   0.59987   0.96277   0.00000  Uiso   1.00
H872   H     0.12749   0.62005   0.91957   0.00000  Uiso   1.00
O873   O     0.00442   0.54579   0.62393   0.00000  Uiso   1.00
H874   H     0.32375   0.57191   0.64697   0.00000  Uiso   1.00
O875   O     0.01261   0.42663   0.86817   0.00000  Uiso   1.00
H876   H     0.32110   0.39182   0.87978   0.00000  Uiso   1.00
O877   O     0.30319   0.41212   0.96154   0.00000  Uiso   1.00
H878   H     0.27411   0.41779   0.94437   0.00000  Uiso   1.00
O879   O     0.04536   0.55673   0.53253   0.00000  Uiso   1.00
H880   H     0.07077   0.56341   0.55462   0.00000  Uiso   1.00
O881   O     0.00491   0.54494   0.79313   0.00000  Uiso   1.00
H882   H     0.30423   0.56276   0.80874   0.00000  Uiso   1.00
O883   O     0.32842   0.45505   0.70688   0.00000  Uiso   1.00
H884   H     0.02907   0.43717   0.69132   0.00000  Uiso   1.00
C885   C     0.51514   0.60004   0.75131   0.00000  Uiso   1.00
C886   C     0.48490   0.39996   0.74860   0.00000  Uiso   1.00
C887   C     0.43781   0.45882   0.53793   0.00000  Uiso   1.00
C888   C     0.57672   0.52459   0.95577   0.00000  Uiso   1.00
C889   C     0.39631   0.43698   0.51171   0.00000  Uiso   1.00
C890   C     0.62168   0.53901   0.98045   0.00000  Uiso   1.00
C891   C     0.52348   0.65621   0.75185   0.00000  Uiso   1.00
C892   C     0.47663   0.34378   0.74789   0.00000  Uiso   1.00
C893   C     0.46154   0.49642   0.83320   0.00000  Uiso   1.00
C894   C     0.53887   0.50752   0.66691   0.00000  Uiso   1.00
C895   C     0.43750   0.48894   0.88102   0.00000  Uiso   1.00
C896   C     0.56299   0.51809   0.61887   0.00000  Uiso   1.00
C897   C     0.36367   0.43880   0.94232   0.00000  Uiso   1.00
C898   C     0.64876   0.54088   0.55266   0.00000  Uiso   1.00
C899   C     0.38153   0.45135   0.89717   0.00000  Uiso   1.00
C900   C     0.62784   0.53351   0.59876   0.00000  Uiso   1.00
C901   C     0.47472   0.51422   0.90995   0.00000  Uiso   1.00
C902   C     0.52002   0.51608   0.59287   0.00000  Uiso   1.00
C903   C     0.46606   0.49102   0.95090   0.00000  Uiso   1.00
C904   C     0.53985   0.51240   0.54681   0.00000  Uiso   1.00
C905   C     0.40831   0.45475   0.96824   0.00000  Uiso   1.00
C906   C     0.60427   0.53095   0.52647   0.00000  Uiso   1.00
C907   C     0.51287   0.50391   0.97552   0.00000  Uiso   1.00
C908   C     0.49589   0.49323   0.52071   0.00000  Uiso   1.00
Cu909  Cu    0.44071   0.49441   0.74516   0.00000  Uiso   1.00
Cu910  Cu    0.55929   0.50559   0.75483   0.00000  Uiso   1.00
H911   H     0.42665   0.44435   0.57094   0.00000  Uiso   1.00
H912   H     0.59340   0.52830   0.92047   0.00000  Uiso   1.00
H913   H     0.56843   0.34709   0.75555   0.00000  Uiso   1.00
H914   H     0.43169   0.65289   0.74416   0.00000  Uiso   1.00
N915   N     0.64839   0.51401   0.76212   0.00000  Uiso   1.00
N916   N     0.35161   0.48599   0.73788   0.00000  Uiso   1.00
O917   O     0.46148   0.57142   0.74686   0.00000  Uiso   1.00
O918   O     0.53852   0.42858   0.75314   0.00000  Uiso   1.00
O919   O     0.56163   0.58086   0.75502   0.00000  Uiso   1.00
O920   O     0.43837   0.41914   0.74497   0.00000  Uiso   1.00
O921   O     0.42185   0.49263   0.80854   0.00000  Uiso   1.00
O922   O     0.57815   0.50737   0.69145   0.00000  Uiso   1.00
O923   O     0.52199   0.50207   0.81671   0.00000  Uiso   1.00
O924   O     0.47801   0.49793   0.68329   0.00000  Uiso   1.00
O925   O     0.34534   0.39781   0.52972   0.00000  Uiso   1.00
H926   H     0.34259   0.36851   0.50739   0.00000  Uiso   1.00
O927   O     0.34818   0.56288   0.95848   0.00000  Uiso   1.00
H928   H     0.35950   0.59698   0.97441   0.00000  Uiso   1.00
N929   N     0.46300   0.53314   0.61112   0.00000  Uiso   1.00
H930   H     0.42593   0.50547   0.62823   0.00000  Uiso   1.00
C931   C     0.46951   0.58706   0.62923   0.00000  Uiso   1.00
H932   H     0.44619   0.58686   0.66493   0.00000  Uiso   1.00
H933   H     0.44700   0.60983   0.61227   0.00000  Uiso   1.00
H934   H     0.51960   0.60824   0.62482   0.00000  Uiso   1.00
N935   N     0.51740   0.56443   0.89937   0.00000  Uiso   1.00
H936   H     0.53153   0.57445   0.86681   0.00000  Uiso   1.00
C937   C     0.50142   0.60891   0.92732   0.00000  Uiso   1.00
H938   H     0.54213   0.64332   0.92100   0.00000  Uiso   1.00
H939   H     0.49007   0.59987   0.96277   0.00000  Uiso   1.00
H940   H     0.46082   0.62005   0.91957   0.00000  Uiso   1.00
O941   O     0.33776   0.54579   0.62393   0.00000  Uiso   1.00
H942   H     0.65708   0.57191   0.64697   0.00000  Uiso   1.00
O943   O     0.34595   0.42663   0.86817   0.00000  Uiso   1.00
H944   H     0.65443   0.39182   0.87978   0.00000  Uiso   1.00
O945   O     0.63652   0.41212   0.96154   0.00000  Uiso   1.00
H946   H     0.60744   0.41779   0.94437   0.00000  Uiso   1.00
O947   O     0.37870   0.55673   0.53253   0.00000  Uiso   1.00
H948   H     0.40411   0.56341   0.55462   0.00000  Uiso   1.00
O949   O     0.33824   0.54494   0.79313   0.00000  Uiso   1.00
H950   H     0.63756   0.56276   0.80874   0.00000  Uiso   1.00
O951   O     0.66175   0.45505   0.70688   0.00000  Uiso   1.00
H952   H     0.36241   0.43717   0.69132   0.00000  Uiso   1.00
C953   C     0.84847   0.60004   0.75131   0.00000  Uiso   1.00
C954   C     0.81823   0.39996   0.74860   0.00000  Uiso   1.00
C955   C     0.77114   0.45882   0.53793   0.00000  Uiso   1.00
C956   C     0.91005   0.52459   0.95577   0.00000  Uiso   1.00
C957   C     0.72964   0.43698   0.51171   0.00000  Uiso   1.00
C958   C     0.95501   0.53901   0.98045   0.00000  Uiso   1.00
C959   C     0.85681   0.65621   0.75185   0.00000  Uiso   1.00
C960   C     0.80996   0.34378   0.74789   0.00000  Uiso   1.00
C961   C     0.79487   0.49642   0.83320   0.00000  Uiso   1.00
C962   C     0.87220   0.50752   0.66691   0.00000  Uiso   1.00
C963   C     0.77083   0.48894   0.88102   0.00000  Uiso   1.00
C964   C     0.89632   0.51809   0.61887   0.00000  Uiso   1.00
C965   C     0.69700   0.43880   0.94232   0.00000  Uiso   1.00
C966   C     0.98209   0.54088   0.55266   0.00000  Uiso   1.00
C967   C     0.71486   0.45135   0.89717   0.00000  Uiso   1.00
C968   C     0.96118   0.53351   0.59876   0.00000  Uiso   1.00
C969   C     0.80805   0.51422   0.90995   0.00000  Uiso   1.00
C970   C     0.85336   0.51608   0.59287   0.00000  Uiso   1.00
C971   C     0.79939   0.49102   0.95090   0.00000  Uiso   1.00
C972   C     0.87318   0.51240   0.54681   0.00000  Uiso   1.00
C973   C     0.74164   0.45475   0.96824   0.00000  Uiso   1.00
C974   C     0.93761   0.53095   0.52647   0.00000  Uiso   1.00
C975   C     0.84621   0.50391   0.97552   0.00000  Uiso   1.00
C976   C     0.82922   0.49323   0.52071   0.00000  Uiso   1.00
Cu977  Cu    0.77404   0.49441   0.74516   0.00000  Uiso   1.00
Cu978  Cu    0.89263   0.50559   0.75483   0.00000  Uiso   1.00
H979   H     0.75998   0.44435   0.57094   0.00000  Uiso   1.00
H980   H     0.92673   0.52830   0.92047   0.00000  Uiso   1.00
H981   H     0.90176   0.34709   0.75555   0.00000  Uiso   1.00
H982   H     0.76503   0.65289   0.74416   0.00000  Uiso   1.00
N983   N     0.98173   0.51401   0.76212   0.00000  Uiso   1.00
N984   N     0.68494   0.48599   0.73788   0.00000  Uiso   1.00
O985   O     0.79482   0.57142   0.74686   0.00000  Uiso   1.00
O986   O     0.87185   0.42858   0.75314   0.00000  Uiso   1.00
O987   O     0.89496   0.58086   0.75502   0.00000  Uiso   1.00
O988   O     0.77171   0.41914   0.74497   0.00000  Uiso   1.00
O989   O     0.75518   0.49263   0.80854   0.00000  Uiso   1.00
O990   O     0.91149   0.50737   0.69145   0.00000  Uiso   1.00
O991   O     0.85532   0.50207   0.81671   0.00000  Uiso   1.00
O992   O     0.81134   0.49793   0.68329   0.00000  Uiso   1.00
O993   O     0.67867   0.39781   0.52972   0.00000  Uiso   1.00
H994   H     0.67592   0.36851   0.50739   0.00000  Uiso   1.00
O995   O     0.68151   0.56288   0.95848   0.00000  Uiso   1.00
H996   H     0.69284   0.59698   0.97441   0.00000  Uiso   1.00
N997   N     0.79633   0.53314   0.61112   0.00000  Uiso   1.00
H998   H     0.75926   0.50547   0.62823   0.00000  Uiso   1.00
C999   C     0.80285   0.58706   0.62923   0.00000  Uiso   1.00
H1000  H     0.77952   0.58686   0.66493   0.00000  Uiso   1.00
H1001  H     0.78033   0.60983   0.61227   0.00000  Uiso   1.00
H1002  H     0.85294   0.60824   0.62482   0.00000  Uiso   1.00
N1003  N     0.85073   0.56443   0.89937   0.00000  Uiso   1.00
H1004  H     0.86486   0.57445   0.86681   0.00000  Uiso   1.00
C1005  C     0.83476   0.60891   0.92732   0.00000  Uiso   1.00
H1006  H     0.87546   0.64332   0.92100   0.00000  Uiso   1.00
H1007  H     0.82340   0.59987   0.96277   0.00000  Uiso   1.00
H1008  H     0.79416   0.62005   0.91957   0.00000  Uiso   1.00
O1009  O     0.67109   0.54579   0.62393   0.00000  Uiso   1.00
H1010  H     0.99042   0.57191   0.64697   0.00000  Uiso   1.00
O1011  O     0.67928   0.42663   0.86817   0.00000  Uiso   1.00
H1012  H     0.98777   0.39182   0.87978   0.00000  Uiso   1.00
O1013  O     0.96985   0.41212   0.96154   0.00000  Uiso   1.00
H1014  H     0.94078   0.41779   0.94437   0.00000  Uiso   1.00
O1015  O     0.71203   0.55673   0.53253   0.00000  Uiso   1.00
H1016  H     0.73744   0.56341   0.55462   0.00000  Uiso   1.00
O1017  O     0.67158   0.54494   0.79313   0.00000  Uiso   1.00
H1018  H     0.97090   0.56276   0.80874   0.00000  Uiso   1.00
O1019  O     0.99509   0.45505   0.70688   0.00000  Uiso   1.00
H1020  H     0.69574   0.43717   0.69132   0.00000  Uiso   1.00
C1021  C     0.18180   0.93337   0.75131   0.00000  Uiso   1.00
C1022  C     0.15157   0.73330   0.74860   0.00000  Uiso   1.00
C1023  C     0.10448   0.79215   0.53793   0.00000  Uiso   1.00
C1024  C     0.24338   0.85793   0.95577   0.00000  Uiso   1.00
C1025  C     0.06298   0.77032   0.51171   0.00000  Uiso   1.00
C1026  C     0.28834   0.87235   0.98045   0.00000  Uiso   1.00
C1027  C     0.19015   0.98954   0.75185   0.00000  Uiso   1.00
C1028  C     0.14330   0.67711   0.74789   0.00000  Uiso   1.00
C1029  C     0.12820   0.82976   0.83320   0.00000  Uiso   1.00
C1030  C     0.20554   0.84085   0.66691   0.00000  Uiso   1.00
C1031  C     0.10416   0.82227   0.88102   0.00000  Uiso   1.00
C1032  C     0.22965   0.85142   0.61887   0.00000  Uiso   1.00
C1033  C     0.03034   0.77213   0.94232   0.00000  Uiso   1.00
C1034  C     0.31542   0.87422   0.55266   0.00000  Uiso   1.00
C1035  C     0.04820   0.78468   0.89717   0.00000  Uiso   1.00
C1036  C     0.29451   0.86685   0.59876   0.00000  Uiso   1.00
C1037  C     0.14138   0.84755   0.90995   0.00000  Uiso   1.00
C1038  C     0.18669   0.84941   0.59287   0.00000  Uiso   1.00
C1039  C     0.13273   0.82435   0.95090   0.00000  Uiso   1.00
C1040  C     0.20651   0.84573   0.54681   0.00000  Uiso   1.00
C1041  C     0.07497   0.78808   0.96824   0.00000  Uiso   1.00
C1042  C     0.27094   0.86429   0.52647   0.00000  Uiso   1.00
C1043  C     0.17954   0.83724   0.97552   0.00000  Uiso   1.00
C1044  C     0.16256   0.82657   0.52071   0.00000  Uiso   1.00
Cu1045 Cu    0.10737   0.82775   0.74516   0.00000  Uiso   1.00
Cu1046 Cu    0.22596   0.83892   0.75483   0.00000  Uiso   1.00
H1047  H     0.09331   0.77768   0.57094   0.00000  Uiso   1.00
H1048  H     0.26006   0.86163   0.92047   0.00000  Uiso   1.00
H1049  H     0.23509   0.68042   0.75555   0.00000  Uiso   1.00
H1050  H     0.09836   0.98622   0.74416   0.00000  Uiso   1.00
N1051  N     0.31506   0.84735   0.76212   0.00000  Uiso   1.00
N1052  N     0.01827   0.81932   0.73788   0.00000  Uiso   1.00
O1053  O     0.12815   0.90476   0.74686   0.00000  Uiso   1.00
O1054  O     0.20518   0.76191   0.75314   0.00000  Uiso   1.00
O1055  O     0.22829   0.91420   0.75502   0.00000  Uiso   1.00
O1056  O     0.10504   0.75247   0.74497   0.00000  Uiso   1.00
O1057  O     0.08851   0.82597   0.80854   0.00000  Uiso   1.00
O1058  O     0.24482   0.84070   0.69145   0.00000  Uiso   1.00
O1059  O     0.18866   0.83540   0.81671   0.00000  Uiso   1.00
O1060  O     0.14468   0.83126   0.68329   0.00000  Uiso   1.00
O1061  O     0.01201   0.73114   0.52972   0.00000  Uiso   1.00
H1062  H     0.00925   0.70185   0.50739   0.00000  Uiso   1.00
O1063  O     0.01484   0.89621   0.95848   0.00000  Uiso   1.00
H1064  H     0.02617   0.93031   0.97441   0.00000  Uiso   1.00
N1065  N     0.12966   0.86647   0.61112   0.00000  Uiso   1.00
H1066  H     0.09260   0.83880   0.62823   0.00000  Uiso   1.00
C1067  C     0.13618   0.92039   0.62923   0.00000  Uiso   1.00
H1068  H     0.11286   0.92019   0.66493   0.00000  Uiso   1.00
H1069  H     0.11366   0.94316   0.61227   0.00000  Uiso   1.00
H1070  H     0.18627   0.94158   0.62482   0.00000  Uiso   1.00
N1071  N     0.18407   0.89776   0.89937   0.00000  Uiso   1.00
H1072  H     0.19820   0.90778   0.86681   0.00000  Uiso   1.00
C1073  C     0.16809   0.94225   0.92732   0.00000  Uiso   1.00
H1074  H     0.20879   0.97666   0.92100   0.00000  Uiso   1.00
H1075  H     0.15673   0.93320   0.96277   0.00000  Uiso   1.00
H1076  H     0.12749   0.95339   0.91957   0.00000  Uiso   1.00
O1077  O     0.00442   0.87912   0.62393   0.00000  Uiso   1.00
H1078  H     0.32375   0.90525   0.64697   0.00000  Uiso   1.00
O1079  O     0.01261   0.75997   0.86817   0.00000  Uiso   1.00
H1080  H     0.32110   0.72515   0.87978   0.00000  Uiso   1.00
O1081  O     0.30319   0.74546   0.96154   0.00000  Uiso   1.00
H1082  H     0.27411   0.75112   0.94437   0.00000  Uiso   1.00
O1083  O     0.04536   0.89006   0.53253   0.00000  Uiso   1.00
H1084  H     0.07077   0.89675   0.55462   0.00000  Uiso   1.00
O1085  O     0.00491   0.87827   0.79313   0.00000  Uiso   1.00
H1086  H     0.30423   0.89609   0.80874   0.00000  Uiso   1.00
O1087  O     0.32842   0.78838   0.70688   0.00000  Uiso   1.00
H1088  H     0.02907   0.77051   0.69132   0.00000  Uiso   1.00
C1089  C     0.51514   0.93337   0.75131   0.00000  Uiso   1.00
C1090  C     0.48490   0.73330   0.74860   0.00000  Uiso   1.00
C1091  C     0.43781   0.79215   0.53793   0.00000  Uiso   1.00
C1092  C     0.57672   0.85793   0.95577   0.00000  Uiso   1.00
C1093  C     0.39631   0.77032   0.51171   0.00000  Uiso   1.00
C1094  C     0.62168   0.87235   0.98045   0.00000  Uiso   1.00
C1095  C     0.52348   0.98954   0.75185   0.00000  Uiso   1.00
C1096  C     0.47663   0.67711   0.74789   0.00000  Uiso   1.00
C1097  C     0.46154   0.82976   0.83320   0.00000  Uiso   1.00
C1098  C     0.53887   0.84085   0.66691   0.00000  Uiso   1.00
C1099  C     0.43750   0.82227   0.88102   0.00000  Uiso   1.00
C1100  C     0.56299   0.85142   0.61887   0.00000  Uiso   1.00
C1101  C     0.36367   0.77213   0.94232   0.00000  Uiso   1.00
C1102  C     0.64876   0.87422   0.55266   0.00000  Uiso   1.00
C1103  C     0.38153   0.78468   0.89717   0.00000  Uiso   1.00
C1104  C     0.62784   0.86685   0.59876   0.00000  Uiso   1.00
C1105  C     0.47472   0.84755   0.90995   0.00000  Uiso   1.00
C1106  C     0.52002   0.84941   0.59287   0.00000  Uiso   1.00
C1107  C     0.46606   0.82435   0.95090   0.00000  Uiso   1.00
C1108  C     0.53985   0.84573   0.54681   0.00000  Uiso   1.00
C1109  C     0.40831   0.78808   0.96824   0.00000  Uiso   1.00
C1110  C     0.60427   0.86429   0.52647   0.00000  Uiso   1.00
C1111  C     0.51287   0.83724   0.97552   0.00000  Uiso   1.00
C1112  C     0.49589   0.82657   0.52071   0.00000  Uiso   1.00
Cu1113 Cu    0.44071   0.82775   0.74516   0.00000  Uiso   1.00
Cu1114 Cu    0.55929   0.83892   0.75483   0.00000  Uiso   1.00
H1115  H     0.42665   0.77768   0.57094   0.00000  Uiso   1.00
H1116  H     0.59340   0.86163   0.92047   0.00000  Uiso   1.00
H1117  H     0.56843   0.68042   0.75555   0.00000  Uiso   1.00
H1118  H     0.43169   0.98622   0.74416   0.00000  Uiso   1.00
N1119  N     0.64839   0.84735   0.76212   0.00000  Uiso   1.00
N1120  N     0.35161   0.81932   0.73788   0.00000  Uiso   1.00
O1121  O     0.46148   0.90476   0.74686   0.00000  Uiso   1.00
O1122  O     0.53852   0.76191   0.75314   0.00000  Uiso   1.00
O1123  O     0.56163   0.91420   0.75502   0.00000  Uiso   1.00
O1124  O     0.43837   0.75247   0.74497   0.00000  Uiso   1.00
O1125  O     0.42185   0.82597   0.80854   0.00000  Uiso   1.00
O1126  O     0.57815   0.84070   0.69145   0.00000  Uiso   1.00
O1127  O     0.52199   0.83540   0.81671   0.00000  Uiso   1.00
O1128  O     0.47801   0.83126   0.68329   0.00000  Uiso   1.00
O1129  O     0.34534   0.73114   0.52972   0.00000  Uiso   1.00
H1130  H     0.34259   0.70185   0.50739   0.00000  Uiso   1.00
O1131  O     0.34818   0.89621   0.95848   0.00000  Uiso   1.00
H1132  H     0.35950   0.93031   0.97441   0.00000  Uiso   1.00
N1133  N     0.46300   0.86647   0.61112   0.00000  Uiso   1.00
H1134  H     0.42593   0.83880   0.62823   0.00000  Uiso   1.00
C1135  C     0.46951   0.92039   0.62923   0.00000  Uiso   1.00
H1136  H     0.44619   0.92019   0.66493   0.00000  Uiso   1.00
H1137  H     0.44700   0.94316   0.61227   0.00000  Uiso   1.00
H1138  H     0.51960   0.94158   0.62482   0.00000  Uiso   1.00
N1139  N     0.51740   0.89776   0.89937   0.00000  Uiso   1.00
H1140  H     0.53153   0.90778   0.86681   0.00000  Uiso   1.00
C1141  C     0.50142   0.94225   0.92732   0.00000  Uiso   1.00
H1142  H     0.54213   0.97666   0.92100   0.00000  Uiso   1.00
H1143  H     0.49007   0.93320   0.96277   0.00000  Uiso   1.00
H1144  H     0.46082   0.95339   0.91957   0.00000  Uiso   1.00
O1145  O     0.33776   0.87912   0.62393   0.00000  Uiso   1.00
H1146  H     0.65708   0.90525   0.64697   0.00000  Uiso   1.00
O1147  O     0.34595   0.75997   0.86817   0.00000  Uiso   1.00
H1148  H     0.65443   0.72515   0.87978   0.00000  Uiso   1.00
O1149  O     0.63652   0.74546   0.96154   0.00000  Uiso   1.00
H1150  H     0.60744   0.75112   0.94437   0.00000  Uiso   1.00
O1151  O     0.37870   0.89006   0.53253   0.00000  Uiso   1.00
H1152  H     0.40411   0.89675   0.55462   0.00000  Uiso   1.00
O1153  O     0.33824   0.87827   0.79313   0.00000  Uiso   1.00
H1154  H     0.63756   0.89609   0.80874   0.00000  Uiso   1.00
O1155  O     0.66175   0.78838   0.70688   0.00000  Uiso   1.00
H1156  H     0.36241   0.77051   0.69132   0.00000  Uiso   1.00
C1157  C     0.84847   0.93337   0.75131   0.00000  Uiso   1.00
C1158  C     0.81823   0.73330   0.74860   0.00000  Uiso   1.00
C1159  C     0.77114   0.79215   0.53793   0.00000  Uiso   1.00
C1160  C     0.91005   0.85793   0.95577   0.00000  Uiso   1.00
C1161  C     0.72964   0.77032   0.51171   0.00000  Uiso   1.00
C1162  C     0.95501   0.87235   0.98045   0.00000  Uiso   1.00
C1163  C     0.85681   0.98954   0.75185   0.00000  Uiso   1.00
C1164  C     0.80996   0.67711   0.74789   0.00000  Uiso   1.00
C1165  C     0.79487   0.82976   0.83320   0.00000  Uiso   1.00
C1166  C     0.87220   0.84085   0.66691   0.00000  Uiso   1.00
C1167  C     0.77083   0.82227   0.88102   0.00000  Uiso   1.00
C1168  C     0.89632   0.85142   0.61887   0.00000  Uiso   1.00
C1169  C     0.69700   0.77213   0.94232   0.00000  Uiso   1.00
C1170  C     0.98209   0.87422   0.55266   0.00000  Uiso   1.00
C1171  C     0.71486   0.78468   0.89717   0.00000  Uiso   1.00
C1172  C     0.96118   0.86685   0.59876   0.00000  Uiso   1.00
C1173  C     0.80805   0.84755   0.90995   0.00000  Uiso   1.00
C1174  C     0.85336   0.84941   0.59287   0.00000  Uiso   1.00
C1175  C     0.79939   0.82435   0.95090   0.00000  Uiso   1.00
C1176  C     0.87318   0.84573   0.54681   0.00000  Uiso   1.00
C1177  C     0.74164   0.78808   0.96824   0.00000  Uiso   1.00
C1178  C     0.93761   0.86429   0.52647   0.00000  Uiso   1.00
C1179  C     0.84621   0.83724   0.97552   0.00000  Uiso   1.00
C1180  C     0.82922   0.82657   0.52071   0.00000  Uiso   1.00
Cu1181 Cu    0.77404   0.82775   0.74516   0.00000  Uiso   1.00
Cu1182 Cu    0.89263   0.83892   0.75483   0.00000  Uiso   1.00
H1183  H     0.75998   0.77768   0.57094   0.00000  Uiso   1.00
H1184  H     0.92673   0.86163   0.92047   0.00000  Uiso   1.00
H1185  H     0.90176   0.68042   0.75555   0.00000  Uiso   1.00
H1186  H     0.76503   0.98622   0.74416   0.00000  Uiso   1.00
N1187  N     0.98173   0.84735   0.76212   0.00000  Uiso   1.00
N1188  N     0.68494   0.81932   0.73788   0.00000  Uiso   1.00
O1189  O     0.79482   0.90476   0.74686   0.00000  Uiso   1.00
O1190  O     0.87185   0.76191   0.75314   0.00000  Uiso   1.00
O1191  O     0.89496   0.91420   0.75502   0.00000  Uiso   1.00
O1192  O     0.77171   0.75247   0.74497   0.00000  Uiso   1.00
O1193  O     0.75518   0.82597   0.80854   0.00000  Uiso   1.00
O1194  O     0.91149   0.84070   0.69145   0.00000  Uiso   1.00
O1195  O     0.85532   0.83540   0.81671   0.00000  Uiso   1.00
O1196  O     0.81134   0.83126   0.68329   0.00000  Uiso   1.00
O1197  O     0.67867   0.73114   0.52972   0.00000  Uiso   1.00
H1198  H     0.67592   0.70185   0.50739   0.00000  Uiso   1.00
O1199  O     0.68151   0.89621   0.95848   0.00000  Uiso   1.00
H1200  H     0.69284   0.93031   0.97441   0.00000  Uiso   1.00
N1201  N     0.79633   0.86647   0.61112   0.00000  Uiso   1.00
H1202  H     0.75926   0.83880   0.62823   0.00000  Uiso   1.00
C1203  C     0.80285   0.92039   0.62923   0.00000  Uiso   1.00
H1204  H     0.77952   0.92019   0.66493   0.00000  Uiso   1.00
H1205  H     0.78033   0.94316   0.61227   0.00000  Uiso   1.00
H1206  H     0.85294   0.94158   0.62482   0.00000  Uiso   1.00
N1207  N     0.85073   0.89776   0.89937   0.00000  Uiso   1.00
H1208  H     0.86486   0.90778   0.86681   0.00000  Uiso   1.00
C1209  C     0.83476   0.94225   0.92732   0.00000  Uiso   1.00
H1210  H     0.87546   0.97666   0.92100   0.00000  Uiso   1.00
H1211  H     0.82340   0.93320   0.96277   0.00000  Uiso   1.00
H1212  H     0.79416   0.95339   0.91957   0.00000  Uiso   1.00
O1213  O     0.67109   0.87912   0.62393   0.00000  Uiso   1.00
H1214  H     0.99042   0.90525   0.64697   0.00000  Uiso   1.00
O1215  O     0.67928   0.75997   0.86817   0.00000  Uiso   1.00
H1216  H     0.98777   0.72515   0.87978   0.00000  Uiso   1.00
O1217  O     0.96985   0.74546   0.96154   0.00000  Uiso   1.00
H1218  H     0.94078   0.75112   0.94437   0.00000  Uiso   1.00
O1219  O     0.71203   0.89006   0.53253   0.00000  Uiso   1.00
H1220  H     0.73744   0.89675   0.55462   0.00000  Uiso   1.00
O1221  O     0.67158   0.87827   0.79313   0.00000  Uiso   1.00
H1222  H     0.97090   0.89609   0.80874   0.00000  Uiso   1.00
O1223  O     0.99509   0.78838   0.70688   0.00000  Uiso   1.00
H1224  H     0.69574   0.77051   0.69132   0.00000  Uiso   1.00
loop_
_geom_bond_atom_site_label_1
_geom_bond_atom_site_label_2
_geom_bond_distance
_geom_bond_site_symmetry_2
_ccdc_geom_bond_type
C1     C7      1.428   .     S
C1     O33     1.296   .     A
C1     O35     1.296   .     A
C2     C8      1.428   .     S
C2     O36     1.296   .     A
C2     O34     1.296   .     A
C3     C24     1.407   .     A
C3     H27     1.082   .     S
C3     C5      1.391   .     A
C4     C6      1.392   .     A
C4     H28     1.081   .     S
C4     C23     1.408   .     A
C5     O41     1.377   .     S
C5     C633    1.419   1_554 S
C6     C634    1.418   .     S
C6     O111    1.373   .     S
C7     C212    1.333   .     S
C7     H233    1.087   .     S
C8     C415    1.333   1_545 S
C8     H438    1.088   1_545 S
C9     O37     1.307   .     A
C9     C11     1.474   .     S
C9     O39     1.306   .     A
C10    O38     1.314   .     A
C10    C12     1.493   .     S
C10    O40     1.307   .     A
C11    C15     1.408   .     A
C11    C17     1.408   .     A
C12    C16     1.412   .     A
C12    C18     1.406   .     A
C13    C15     1.417   .     A
C13    C21     1.417   .     A
C13    O197    1.383   1_455 S
C14    C22     1.417   .     A
C14    C16     1.418   .     A
C14    O131    1.383   .     S
C15    O59     1.382   .     S
C16    O125    1.370   .     S
C17    N51     1.436   .     S
C17    C19     1.417   .     A
C18    C20     1.402   .     A
C18    N45     1.424   .     S
C19    C23     1.423   .     A
C19    C21     1.425   .     A
C20    C22     1.414   .     A
C20    C24     1.418   .     A
C21    C617    1.419   .     S
C22    C618    1.418   1_554 S
C23    C636    1.407   .     S
C24    C635    1.407   1_554 S
Cu25   N32     2.037   .     S
Cu25   Cu26    2.711   .     S
Cu25   O40     1.911   .     S
Cu25   O36     1.947   .     S
Cu25   O37     1.928   .     S
Cu25   O33     1.947   .     S
Cu26   O38     1.928   .     S
Cu26   N31     2.037   .     S
Cu26   O39     1.911   .     S
Cu26   O35     1.947   .     S
Cu26   O34     1.947   .     S
H29    C415    1.087   1_545 S
H30    C212    1.088   .     S
N31    N100    1.287   .     S
N31    O133    1.338   .     S
N32    N167    1.287   1_455 S
N32    O203    1.338   1_455 S
O41    H42     0.991   .     S
O43    H44     0.991   .     S
O43    C142    1.373   1_455 S
N45    C47     1.456   .     S
N45    H46     1.030   .     S
C47    H48     1.110   .     S
C47    H49     1.108   .     S
C47    H50     1.112   .     S
N51    H52     1.028   .     S
N51    C53     1.448   .     S
C53    H55     1.110   .     S
C53    H54     1.111   .     S
C53    H56     1.110   .     S
O57    C152    1.370   1_455 S
O57    H194    0.992   1_455 S
H58    O125    0.992   .     S
O59    H196    0.991   1_455 S
H60    O127    0.991   .     S
O61    H62     0.991   .     S
O61    C81     1.383   .     S
O63    H64     0.986   .     S
O63    C150    1.383   1_455 S
O65    N167    1.338   1_455 S
O65    H202    0.990   1_455 S
H66    O133    0.990   .     S
O67    N100    1.338   .     S
O67    H136    0.990   .     S
H68    O203    0.990   1_455 S
C69    C75     1.428   .     S
C69    O101    1.296   .     A
C69    O103    1.296   .     A
C70    C76     1.428   .     S
C70    O104    1.296   .     A
C70    O102    1.296   .     A
C71    C92     1.407   .     A
C71    H95     1.082   .     S
C71    C73     1.391   .     A
C72    C74     1.392   .     A
C72    H96     1.081   .     S
C72    C91     1.408   .     A
C73    O109    1.377   .     S
C73    C701    1.419   1_554 S
C74    C702    1.418   .     S
C74    O179    1.373   .     S
C75    C280    1.333   .     S
C75    H301    1.087   .     S
C76    C483    1.333   1_545 S
C76    H506    1.088   1_545 S
C77    O105    1.307   .     A
C77    C79     1.474   .     S
C77    O107    1.306   .     A
C78    O106    1.314   .     A
C78    C80     1.493   .     S
C78    O108    1.307   .     A
C79    C83     1.408   .     A
C79    C85     1.408   .     A
C80    C84     1.412   .     A
C80    C86     1.406   .     A
C81    C83     1.417   .     A
C81    C89     1.417   .     A
C82    C90     1.417   .     A
C82    C84     1.418   .     A
C82    O199    1.383   .     S
C83    O127    1.382   .     S
C84    O193    1.370   .     S
C85    N119    1.436   .     S
C85    C87     1.417   .     A
C86    C88     1.402   .     A
C86    N113    1.424   .     S
C87    C91     1.423   .     A
C87    C89     1.425   .     A
C88    C90     1.414   .     A
C88    C92     1.418   .     A
C89    C685    1.419   .     S
C90    C686    1.418   1_554 S
C91    C704    1.407   .     S
C92    C703    1.407   1_554 S
Cu93   N100    2.037   .     S
Cu93   Cu94    2.711   .     S
Cu93   O108    1.911   .     S
Cu93   O104    1.947   .     S
Cu93   O105    1.928   .     S
Cu93   O101    1.947   .     S
Cu94   O106    1.928   .     S
Cu94   N99     2.037   .     S
Cu94   O107    1.911   .     S
Cu94   O103    1.947   .     S
Cu94   O102    1.947   .     S
H97    C483    1.087   1_545 S
H98    C280    1.088   .     S
N99    N168    1.287   .     S
N99    O201    1.338   .     S
O109   H110    0.991   .     S
O111   H112    0.991   .     S
N113   C115    1.456   .     S
N113   H114    1.030   .     S
C115   H116    1.110   .     S
C115   H117    1.108   .     S
C115   H118    1.112   .     S
N119   H120    1.028   .     S
N119   C121    1.448   .     S
C121   H123    1.110   .     S
C121   H122    1.111   .     S
C121   H124    1.110   .     S
H126   O193    0.992   .     S
H128   O195    0.991   .     S
O129   H130    0.991   .     S
O129   C149    1.383   .     S
O131   H132    0.986   .     S
H134   O201    0.990   .     S
O135   N168    1.338   .     S
O135   H204    0.990   .     S
C137   C143    1.428   .     S
C137   O169    1.296   .     A
C137   O171    1.296   .     A
C138   C144    1.428   .     S
C138   O172    1.296   .     A
C138   O170    1.296   .     A
C139   C160    1.407   .     A
C139   H163    1.082   .     S
C139   C141    1.391   .     A
C140   C142    1.392   .     A
C140   H164    1.081   .     S
C140   C159    1.408   .     A
C141   O177    1.377   .     S
C141   C769    1.419   1_554 S
C142   C770    1.418   .     S
C142   O43     1.373   1_655 S
C143   C348    1.333   .     S
C143   H369    1.087   .     S
C144   C551    1.333   1_545 S
C144   H574    1.088   1_545 S
C145   O173    1.307   .     A
C145   C147    1.474   .     S
C145   O175    1.306   .     A
C146   O174    1.314   .     A
C146   C148    1.493   .     S
C146   O176    1.307   .     A
C147   C151    1.408   .     A
C147   C153    1.408   .     A
C148   C152    1.412   .     A
C148   C154    1.406   .     A
C149   C151    1.417   .     A
C149   C157    1.417   .     A
C150   C158    1.417   .     A
C150   C152    1.418   .     A
C150   O63     1.383   1_655 S
C151   O195    1.382   .     S
C152   O57     1.370   1_655 S
C153   N187    1.436   .     S
C153   C155    1.417   .     A
C154   C156    1.402   .     A
C154   N181    1.424   .     S
C155   C159    1.423   .     A
C155   C157    1.425   .     A
C156   C158    1.414   .     A
C156   C160    1.418   .     A
C157   C753    1.419   .     S
C158   C754    1.418   1_554 S
C159   C772    1.407   .     S
C160   C771    1.407   1_554 S
Cu161  N168    2.037   .     S
Cu161  Cu162   2.711   .     S
Cu161  O176    1.911   .     S
Cu161  O172    1.947   .     S
Cu161  O173    1.928   .     S
Cu161  O169    1.947   .     S
Cu162  O174    1.928   .     S
Cu162  N167    2.037   .     S
Cu162  O175    1.911   .     S
Cu162  O171    1.947   .     S
Cu162  O170    1.947   .     S
H165   C551    1.087   1_545 S
H166   C348    1.088   .     S
N167   N32     1.287   1_655 S
N167   O65     1.338   1_655 S
O177   H178    0.991   .     S
O179   H180    0.991   .     S
N181   C183    1.456   .     S
N181   H182    1.030   .     S
C183   H184    1.110   .     S
C183   H185    1.108   .     S
C183   H186    1.112   .     S
N187   H188    1.028   .     S
N187   C189    1.448   .     S
C189   H191    1.110   .     S
C189   H190    1.111   .     S
C189   H192    1.110   .     S
H194   O57     0.992   1_655 S
H196   O59     0.991   1_655 S
O197   H198    0.991   .     S
O197   C13     1.383   1_655 S
O199   H200    0.986   .     S
H202   O65     0.990   1_655 S
O203   N32     1.338   1_655 S
O203   H68     0.990   1_655 S
C205   C211    1.428   .     S
C205   O237    1.296   .     A
C205   O239    1.296   .     A
C206   C212    1.428   .     S
C206   O240    1.296   .     A
C206   O238    1.296   .     A
C207   C228    1.407   .     A
C207   H231    1.082   .     S
C207   C209    1.391   .     A
C208   C210    1.392   .     A
C208   H232    1.081   .     S
C208   C227    1.408   .     A
C209   O245    1.377   .     S
C209   C837    1.419   1_554 S
C210   C838    1.418   .     S
C210   O315    1.373   .     S
C211   C416    1.333   .     S
C211   H437    1.087   .     S
C213   O241    1.307   .     A
C213   C215    1.474   .     S
C213   O243    1.306   .     A
C214   O242    1.314   .     A
C214   C216    1.493   .     S
C214   O244    1.307   .     A
C215   C219    1.408   .     A
C215   C221    1.408   .     A
C216   C220    1.412   .     A
C216   C222    1.406   .     A
C217   C219    1.417   .     A
C217   C225    1.417   .     A
C217   O401    1.383   1_455 S
C218   C226    1.417   .     A
C218   C220    1.418   .     A
C218   O335    1.383   .     S
C219   O263    1.382   .     S
C220   O329    1.370   .     S
C221   N255    1.436   .     S
C221   C223    1.417   .     A
C222   C224    1.402   .     A
C222   N249    1.424   .     S
C223   C227    1.423   .     A
C223   C225    1.425   .     A
C224   C226    1.414   .     A
C224   C228    1.418   .     A
C225   C821    1.419   .     S
C226   C822    1.418   1_554 S
C227   C840    1.407   .     S
C228   C839    1.407   1_554 S
Cu229  N236    2.037   .     S
Cu229  Cu230   2.711   .     S
Cu229  O244    1.911   .     S
Cu229  O240    1.947   .     S
Cu229  O241    1.928   .     S
Cu229  O237    1.947   .     S
Cu230  O242    1.928   .     S
Cu230  N235    2.037   .     S
Cu230  O243    1.911   .     S
Cu230  O239    1.947   .     S
Cu230  O238    1.947   .     S
H234   C416    1.088   .     S
N235   N304    1.287   .     S
N235   O337    1.338   .     S
N236   N371    1.287   1_455 S
N236   O407    1.338   1_455 S
O245   H246    0.991   .     S
O247   H248    0.991   .     S
O247   C346    1.373   1_455 S
N249   C251    1.456   .     S
N249   H250    1.030   .     S
C251   H252    1.110   .     S
C251   H253    1.108   .     S
C251   H254    1.112   .     S
N255   H256    1.028   .     S
N255   C257    1.448   .     S
C257   H259    1.110   .     S
C257   H258    1.111   .     S
C257   H260    1.110   .     S
O261   C356    1.370   1_455 S
O261   H398    0.992   1_455 S
H262   O329    0.992   .     S
O263   H400    0.991   1_455 S
H264   O331    0.991   .     S
O265   H266    0.991   .     S
O265   C285    1.383   .     S
O267   H268    0.986   .     S
O267   C354    1.383   1_455 S
O269   N371    1.338   1_455 S
O269   H406    0.990   1_455 S
H270   O337    0.990   .     S
O271   N304    1.338   .     S
O271   H340    0.990   .     S
H272   O407    0.990   1_455 S
C273   C279    1.428   .     S
C273   O305    1.296   .     A
C273   O307    1.296   .     A
C274   C280    1.428   .     S
C274   O308    1.296   .     A
C274   O306    1.296   .     A
C275   C296    1.407   .     A
C275   H299    1.082   .     S
C275   C277    1.391   .     A
C276   C278    1.392   .     A
C276   H300    1.081   .     S
C276   C295    1.408   .     A
C277   O313    1.377   .     S
C277   C905    1.419   1_554 S
C278   C906    1.418   .     S
C278   O383    1.373   .     S
C279   C484    1.333   .     S
C279   H505    1.087   .     S
C281   O309    1.307   .     A
C281   C283    1.474   .     S
C281   O311    1.306   .     A
C282   O310    1.314   .     A
C282   C284    1.493   .     S
C282   O312    1.307   .     A
C283   C287    1.408   .     A
C283   C289    1.408   .     A
C284   C288    1.412   .     A
C284   C290    1.406   .     A
C285   C287    1.417   .     A
C285   C293    1.417   .     A
C286   C294    1.417   .     A
C286   C288    1.418   .     A
C286   O403    1.383   .     S
C287   O331    1.382   .     S
C288   O397    1.370   .     S
C289   N323    1.436   .     S
C289   C291    1.417   .     A
C290   C292    1.402   .     A
C290   N317    1.424   .     S
C291   C295    1.423   .     A
C291   C293    1.425   .     A
C292   C294    1.414   .     A
C292   C296    1.418   .     A
C293   C889    1.419   .     S
C294   C890    1.418   1_554 S
C295   C908    1.407   .     S
C296   C907    1.407   1_554 S
Cu297  N304    2.037   .     S
Cu297  Cu298   2.711   .     S
Cu297  O312    1.911   .     S
Cu297  O308    1.947   .     S
Cu297  O309    1.928   .     S
Cu297  O305    1.947   .     S
Cu298  O310    1.928   .     S
Cu298  N303    2.037   .     S
Cu298  O311    1.911   .     S
Cu298  O307    1.947   .     S
Cu298  O306    1.947   .     S
H302   C484    1.088   .     S
N303   N372    1.287   .     S
N303   O405    1.338   .     S
O313   H314    0.991   .     S
O315   H316    0.991   .     S
N317   C319    1.456   .     S
N317   H318    1.030   .     S
C319   H320    1.110   .     S
C319   H321    1.108   .     S
C319   H322    1.112   .     S
N323   H324    1.028   .     S
N323   C325    1.448   .     S
C325   H327    1.110   .     S
C325   H326    1.111   .     S
C325   H328    1.110   .     S
H330   O397    0.992   .     S
H332   O399    0.991   .     S
O333   H334    0.991   .     S
O333   C353    1.383   .     S
O335   H336    0.986   .     S
H338   O405    0.990   .     S
O339   N372    1.338   .     S
O339   H408    0.990   .     S
C341   C347    1.428   .     S
C341   O373    1.296   .     A
C341   O375    1.296   .     A
C342   C348    1.428   .     S
C342   O376    1.296   .     A
C342   O374    1.296   .     A
C343   C364    1.407   .     A
C343   H367    1.082   .     S
C343   C345    1.391   .     A
C344   C346    1.392   .     A
C344   H368    1.081   .     S
C344   C363    1.408   .     A
C345   O381    1.377   .     S
C345   C973    1.419   1_554 S
C346   C974    1.418   .     S
C346   O247    1.373   1_655 S
C347   C552    1.333   .     S
C347   H573    1.087   .     S
C349   O377    1.307   .     A
C349   C351    1.474   .     S
C349   O379    1.306   .     A
C350   O378    1.314   .     A
C350   C352    1.493   .     S
C350   O380    1.307   .     A
C351   C355    1.408   .     A
C351   C357    1.408   .     A
C352   C356    1.412   .     A
C352   C358    1.406   .     A
C353   C355    1.417   .     A
C353   C361    1.417   .     A
C354   C362    1.417   .     A
C354   C356    1.418   .     A
C354   O267    1.383   1_655 S
C355   O399    1.382   .     S
C356   O261    1.370   1_655 S
C357   N391    1.436   .     S
C357   C359    1.417   .     A
C358   C360    1.402   .     A
C358   N385    1.424   .     S
C359   C363    1.423   .     A
C359   C361    1.425   .     A
C360   C362    1.414   .     A
C360   C364    1.418   .     A
C361   C957    1.419   .     S
C362   C958    1.418   1_554 S
C363   C976    1.407   .     S
C364   C975    1.407   1_554 S
Cu365  N372    2.037   .     S
Cu365  Cu366   2.711   .     S
Cu365  O380    1.911   .     S
Cu365  O376    1.947   .     S
Cu365  O377    1.928   .     S
Cu365  O373    1.947   .     S
Cu366  O378    1.928   .     S
Cu366  N371    2.037   .     S
Cu366  O379    1.911   .     S
Cu366  O375    1.947   .     S
Cu366  O374    1.947   .     S
H370   C552    1.088   .     S
N371   N236    1.287   1_655 S
N371   O269    1.338   1_655 S
O381   H382    0.991   .     S
O383   H384    0.991   .     S
N385   C387    1.456   .     S
N385   H386    1.030   .     S
C387   H388    1.110   .     S
C387   H389    1.108   .     S
C387   H390    1.112   .     S
N391   H392    1.028   .     S
N391   C393    1.448   .     S
C393   H395    1.110   .     S
C393   H394    1.111   .     S
C393   H396    1.110   .     S
H398   O261    0.992   1_655 S
H400   O263    0.991   1_655 S
O401   H402    0.991   .     S
O401   C217    1.383   1_655 S
O403   H404    0.986   .     S
H406   O269    0.990   1_655 S
O407   N236    1.338   1_655 S
O407   H272    0.990   1_655 S
C409   C415    1.428   .     S
C409   O441    1.296   .     A
C409   O443    1.296   .     A
C410   C416    1.428   .     S
C410   O444    1.296   .     A
C410   O442    1.296   .     A
C411   C432    1.407   .     A
C411   H435    1.082   .     S
C411   C413    1.391   .     A
C412   C414    1.392   .     A
C412   H436    1.081   .     S
C412   C431    1.408   .     A
C413   O449    1.377   .     S
C413   C1041   1.419   1_554 S
C414   C1042   1.418   .     S
C414   O519    1.373   .     S
C415   C8      1.333   1_565 S
C415   H29     1.087   1_565 S
C417   O445    1.307   .     A
C417   C419    1.474   .     S
C417   O447    1.306   .     A
C418   O446    1.314   .     A
C418   C420    1.493   .     S
C418   O448    1.307   .     A
C419   C423    1.408   .     A
C419   C425    1.408   .     A
C420   C424    1.412   .     A
C420   C426    1.406   .     A
C421   C423    1.417   .     A
C421   C429    1.417   .     A
C421   O605    1.383   1_455 S
C422   C430    1.417   .     A
C422   C424    1.418   .     A
C422   O539    1.383   .     S
C423   O467    1.382   .     S
C424   O533    1.370   .     S
C425   N459    1.436   .     S
C425   C427    1.417   .     A
C426   C428    1.402   .     A
C426   N453    1.424   .     S
C427   C431    1.423   .     A
C427   C429    1.425   .     A
C428   C430    1.414   .     A
C428   C432    1.418   .     A
C429   C1025   1.419   .     S
C430   C1026   1.418   1_554 S
C431   C1044   1.407   .     S
C432   C1043   1.407   1_554 S
Cu433  N440    2.037   .     S
Cu433  Cu434   2.711   .     S
Cu433  O448    1.911   .     S
Cu433  O444    1.947   .     S
Cu433  O445    1.928   .     S
Cu433  O441    1.947   .     S
Cu434  O446    1.928   .     S
Cu434  N439    2.037   .     S
Cu434  O447    1.911   .     S
Cu434  O443    1.947   .     S
Cu434  O442    1.947   .     S
H438   C8      1.088   1_565 S
N439   N508    1.287   .     S
N439   O541    1.338   .     S
N440   N575    1.287   1_455 S
N440   O611    1.338   1_455 S
O449   H450    0.991   .     S
O451   H452    0.991   .     S
O451   C550    1.373   1_455 S
N453   C455    1.456   .     S
N453   H454    1.030   .     S
C455   H456    1.110   .     S
C455   H457    1.108   .     S
C455   H458    1.112   .     S
N459   H460    1.028   .     S
N459   C461    1.448   .     S
C461   H463    1.110   .     S
C461   H462    1.111   .     S
C461   H464    1.110   .     S
O465   C560    1.370   1_455 S
O465   H602    0.992   1_455 S
H466   O533    0.992   .     S
O467   H604    0.991   1_455 S
H468   O535    0.991   .     S
O469   H470    0.991   .     S
O469   C489    1.383   .     S
O471   H472    0.986   .     S
O471   C558    1.383   1_455 S
O473   N575    1.338   1_455 S
O473   H610    0.990   1_455 S
H474   O541    0.990   .     S
O475   N508    1.338   .     S
O475   H544    0.990   .     S
H476   O611    0.990   1_455 S
C477   C483    1.428   .     S
C477   O509    1.296   .     A
C477   O511    1.296   .     A
C478   C484    1.428   .     S
C478   O512    1.296   .     A
C478   O510    1.296   .     A
C479   C500    1.407   .     A
C479   H503    1.082   .     S
C479   C481    1.391   .     A
C480   C482    1.392   .     A
C480   H504    1.081   .     S
C480   C499    1.408   .     A
C481   O517    1.377   .     S
C481   C1109   1.419   1_554 S
C482   C1110   1.418   .     S
C482   O587    1.373   .     S
C483   C76     1.333   1_565 S
C483   H97     1.087   1_565 S
C485   O513    1.307   .     A
C485   C487    1.474   .     S
C485   O515    1.306   .     A
C486   O514    1.314   .     A
C486   C488    1.493   .     S
C486   O516    1.307   .     A
C487   C491    1.408   .     A
C487   C493    1.408   .     A
C488   C492    1.412   .     A
C488   C494    1.406   .     A
C489   C491    1.417   .     A
C489   C497    1.417   .     A
C490   C498    1.417   .     A
C490   C492    1.418   .     A
C490   O607    1.383   .     S
C491   O535    1.382   .     S
C492   O601    1.370   .     S
C493   N527    1.436   .     S
C493   C495    1.417   .     A
C494   C496    1.402   .     A
C494   N521    1.424   .     S
C495   C499    1.423   .     A
C495   C497    1.425   .     A
C496   C498    1.414   .     A
C496   C500    1.418   .     A
C497   C1093   1.419   .     S
C498   C1094   1.418   1_554 S
C499   C1112   1.407   .     S
C500   C1111   1.407   1_554 S
Cu501  N508    2.037   .     S
Cu501  Cu502   2.711   .     S
Cu501  O516    1.911   .     S
Cu501  O512    1.947   .     S
Cu501  O513    1.928   .     S
Cu501  O509    1.947   .     S
Cu502  O514    1.928   .     S
Cu502  N507    2.037   .     S
Cu502  O515    1.911   .     S
Cu502  O511    1.947   .     S
Cu502  O510    1.947   .     S
H506   C76     1.088   1_565 S
N507   N576    1.287   .     S
N507   O609    1.338   .     S
O517   H518    0.991   .     S
O519   H520    0.991   .     S
N521   C523    1.456   .     S
N521   H522    1.030   .     S
C523   H524    1.110   .     S
C523   H525    1.108   .     S
C523   H526    1.112   .     S
N527   H528    1.028   .     S
N527   C529    1.448   .     S
C529   H531    1.110   .     S
C529   H530    1.111   .     S
C529   H532    1.110   .     S
H534   O601    0.992   .     S
H536   O603    0.991   .     S
O537   H538    0.991   .     S
O537   C557    1.383   .     S
O539   H540    0.986   .     S
H542   O609    0.990   .     S
O543   N576    1.338   .     S
O543   H612    0.990   .     S
C545   C551    1.428   .     S
C545   O577    1.296   .     A
C545   O579    1.296   .     A
C546   C552    1.428   .     S
C546   O580    1.296   .     A
C546   O578    1.296   .     A
C547   C568    1.407   .     A
C547   H571    1.082   .     S
C547   C549    1.391   .     A
C548   C550    1.392   .     A
C548   H572    1.081   .     S
C548   C567    1.408   .     A
C549   O585    1.377   .     S
C549   C1177   1.419   1_554 S
C550   C1178   1.418   .     S
C550   O451    1.373   1_655 S
C551   C144    1.333   1_565 S
C551   H165    1.087   1_565 S
C553   O581    1.307   .     A
C553   C555    1.474   .     S
C553   O583    1.306   .     A
C554   O582    1.314   .     A
C554   C556    1.493   .     S
C554   O584    1.307   .     A
C555   C559    1.408   .     A
C555   C561    1.408   .     A
C556   C560    1.412   .     A
C556   C562    1.406   .     A
C557   C559    1.417   .     A
C557   C565    1.417   .     A
C558   C566    1.417   .     A
C558   C560    1.418   .     A
C558   O471    1.383   1_655 S
C559   O603    1.382   .     S
C560   O465    1.370   1_655 S
C561   N595    1.436   .     S
C561   C563    1.417   .     A
C562   C564    1.402   .     A
C562   N589    1.424   .     S
C563   C567    1.423   .     A
C563   C565    1.425   .     A
C564   C566    1.414   .     A
C564   C568    1.418   .     A
C565   C1161   1.419   .     S
C566   C1162   1.418   1_554 S
C567   C1180   1.407   .     S
C568   C1179   1.407   1_554 S
Cu569  N576    2.037   .     S
Cu569  Cu570   2.711   .     S
Cu569  O584    1.911   .     S
Cu569  O580    1.947   .     S
Cu569  O581    1.928   .     S
Cu569  O577    1.947   .     S
Cu570  O582    1.928   .     S
Cu570  N575    2.037   .     S
Cu570  O583    1.911   .     S
Cu570  O579    1.947   .     S
Cu570  O578    1.947   .     S
H574   C144    1.088   1_565 S
N575   N440    1.287   1_655 S
N575   O473    1.338   1_655 S
O585   H586    0.991   .     S
O587   H588    0.991   .     S
N589   C591    1.456   .     S
N589   H590    1.030   .     S
C591   H592    1.110   .     S
C591   H593    1.108   .     S
C591   H594    1.112   .     S
N595   H596    1.028   .     S
N595   C597    1.448   .     S
C597   H599    1.110   .     S
C597   H598    1.111   .     S
C597   H600    1.110   .     S
H602   O465    0.992   1_655 S
H604   O467    0.991   1_655 S
O605   H606    0.991   .     S
O605   C421    1.383   1_655 S
O607   H608    0.986   .     S
H610   O473    0.990   1_655 S
O611   N440    1.338   1_655 S
O611   H476    0.990   1_655 S
C613   C619    1.428   .     S
C613   O645    1.296   .     A
C613   O647    1.296   .     A
C614   C620    1.428   .     S
C614   O648    1.296   .     A
C614   O646    1.296   .     A
C615   C636    1.407   .     A
C615   H639    1.082   .     S
C615   C617    1.391   .     A
C616   C618    1.392   .     A
C616   H640    1.081   .     S
C616   C635    1.408   .     A
C617   O653    1.377   .     S
C618   C22     1.418   1_556 S
C618   O723    1.373   .     S
C619   C824    1.333   .     S
C619   H845    1.087   .     S
C620   C1027   1.333   1_545 S
C620   H1050   1.088   1_545 S
C621   O649    1.307   .     A
C621   C623    1.474   .     S
C621   O651    1.306   .     A
C622   O650    1.314   .     A
C622   C624    1.493   .     S
C622   O652    1.307   .     A
C623   C627    1.408   .     A
C623   C629    1.408   .     A
C624   C628    1.412   .     A
C624   C630    1.406   .     A
C625   C627    1.417   .     A
C625   C633    1.417   .     A
C625   O809    1.383   1_455 S
C626   C634    1.417   .     A
C626   C628    1.418   .     A
C626   O743    1.383   .     S
C627   O671    1.382   .     S
C628   O737    1.370   .     S
C629   N663    1.436   .     S
C629   C631    1.417   .     A
C630   C632    1.402   .     A
C630   N657    1.424   .     S
C631   C635    1.423   .     A
C631   C633    1.425   .     A
C632   C634    1.414   .     A
C632   C636    1.418   .     A
C633   C5      1.419   1_556 S
C635   C24     1.407   1_556 S
Cu637  N644    2.037   .     S
Cu637  Cu638   2.711   .     S
Cu637  O652    1.911   .     S
Cu637  O648    1.947   .     S
Cu637  O649    1.928   .     S
Cu637  O645    1.947   .     S
Cu638  O650    1.928   .     S
Cu638  N643    2.037   .     S
Cu638  O651    1.911   .     S
Cu638  O647    1.947   .     S
Cu638  O646    1.947   .     S
H641   C1027   1.087   1_545 S
H642   C824    1.088   .     S
N643   N712    1.287   .     S
N643   O745    1.338   .     S
N644   N779    1.287   1_455 S
N644   O815    1.338   1_455 S
O653   H654    0.991   .     S
O655   H656    0.991   .     S
O655   C754    1.373   1_455 S
N657   C659    1.456   .     S
N657   H658    1.030   .     S
C659   H660    1.110   .     S
C659   H661    1.108   .     S
C659   H662    1.112   .     S
N663   H664    1.028   .     S
N663   C665    1.448   .     S
C665   H667    1.110   .     S
C665   H666    1.111   .     S
C665   H668    1.110   .     S
O669   C764    1.370   1_455 S
O669   H806    0.992   1_455 S
H670   O737    0.992   .     S
O671   H808    0.991   1_455 S
H672   O739    0.991   .     S
O673   H674    0.991   .     S
O673   C693    1.383   .     S
O675   H676    0.986   .     S
O675   C762    1.383   1_455 S
O677   N779    1.338   1_455 S
O677   H814    0.990   1_455 S
H678   O745    0.990   .     S
O679   N712    1.338   .     S
O679   H748    0.990   .     S
H680   O815    0.990   1_455 S
C681   C687    1.428   .     S
C681   O713    1.296   .     A
C681   O715    1.296   .     A
C682   C688    1.428   .     S
C682   O716    1.296   .     A
C682   O714    1.296   .     A
C683   C704    1.407   .     A
C683   H707    1.082   .     S
C683   C685    1.391   .     A
C684   C686    1.392   .     A
C684   H708    1.081   .     S
C684   C703    1.408   .     A
C685   O721    1.377   .     S
C686   C90     1.418   1_556 S
C686   O791    1.373   .     S
C687   C892    1.333   .     S
C687   H913    1.087   .     S
C688   C1095   1.333   1_545 S
C688   H1118   1.088   1_545 S
C689   O717    1.307   .     A
C689   C691    1.474   .     S
C689   O719    1.306   .     A
C690   O718    1.314   .     A
C690   C692    1.493   .     S
C690   O720    1.307   .     A
C691   C695    1.408   .     A
C691   C697    1.408   .     A
C692   C696    1.412   .     A
C692   C698    1.406   .     A
C693   C695    1.417   .     A
C693   C701    1.417   .     A
C694   C702    1.417   .     A
C694   C696    1.418   .     A
C694   O811    1.383   .     S
C695   O739    1.382   .     S
C696   O805    1.370   .     S
C697   N731    1.436   .     S
C697   C699    1.417   .     A
C698   C700    1.402   .     A
C698   N725    1.424   .     S
C699   C703    1.423   .     A
C699   C701    1.425   .     A
C700   C702    1.414   .     A
C700   C704    1.418   .     A
C701   C73     1.419   1_556 S
C703   C92     1.407   1_556 S
Cu705  N712    2.037   .     S
Cu705  Cu706   2.711   .     S
Cu705  O720    1.911   .     S
Cu705  O716    1.947   .     S
Cu705  O717    1.928   .     S
Cu705  O713    1.947   .     S
Cu706  O718    1.928   .     S
Cu706  N711    2.037   .     S
Cu706  O719    1.911   .     S
Cu706  O715    1.947   .     S
Cu706  O714    1.947   .     S
H709   C1095   1.087   1_545 S
H710   C892    1.088   .     S
N711   N780    1.287   .     S
N711   O813    1.338   .     S
O721   H722    0.991   .     S
O723   H724    0.991   .     S
N725   C727    1.456   .     S
N725   H726    1.030   .     S
C727   H728    1.110   .     S
C727   H729    1.108   .     S
C727   H730    1.112   .     S
N731   H732    1.028   .     S
N731   C733    1.448   .     S
C733   H735    1.110   .     S
C733   H734    1.111   .     S
C733   H736    1.110   .     S
H738   O805    0.992   .     S
H740   O807    0.991   .     S
O741   H742    0.991   .     S
O741   C761    1.383   .     S
O743   H744    0.986   .     S
H746   O813    0.990   .     S
O747   N780    1.338   .     S
O747   H816    0.990   .     S
C749   C755    1.428   .     S
C749   O781    1.296   .     A
C749   O783    1.296   .     A
C750   C756    1.428   .     S
C750   O784    1.296   .     A
C750   O782    1.296   .     A
C751   C772    1.407   .     A
C751   H775    1.082   .     S
C751   C753    1.391   .     A
C752   C754    1.392   .     A
C752   H776    1.081   .     S
C752   C771    1.408   .     A
C753   O789    1.377   .     S
C754   C158    1.418   1_556 S
C754   O655    1.373   1_655 S
C755   C960    1.333   .     S
C755   H981    1.087   .     S
C756   C1163   1.333   1_545 S
C756   H1186   1.088   1_545 S
C757   O785    1.307   .     A
C757   C759    1.474   .     S
C757   O787    1.306   .     A
C758   O786    1.314   .     A
C758   C760    1.493   .     S
C758   O788    1.307   .     A
C759   C763    1.408   .     A
C759   C765    1.408   .     A
C760   C764    1.412   .     A
C760   C766    1.406   .     A
C761   C763    1.417   .     A
C761   C769    1.417   .     A
C762   C770    1.417   .     A
C762   C764    1.418   .     A
C762   O675    1.383   1_655 S
C763   O807    1.382   .     S
C764   O669    1.370   1_655 S
C765   N799    1.436   .     S
C765   C767    1.417   .     A
C766   C768    1.402   .     A
C766   N793    1.424   .     S
C767   C771    1.423   .     A
C767   C769    1.425   .     A
C768   C770    1.414   .     A
C768   C772    1.418   .     A
C769   C141    1.419   1_556 S
C771   C160    1.407   1_556 S
Cu773  N780    2.037   .     S
Cu773  Cu774   2.711   .     S
Cu773  O788    1.911   .     S
Cu773  O784    1.947   .     S
Cu773  O785    1.928   .     S
Cu773  O781    1.947   .     S
Cu774  O786    1.928   .     S
Cu774  N779    2.037   .     S
Cu774  O787    1.911   .     S
Cu774  O783    1.947   .     S
Cu774  O782    1.947   .     S
H777   C1163   1.087   1_545 S
H778   C960    1.088   .     S
N779   N644    1.287   1_655 S
N779   O677    1.338   1_655 S
O789   H790    0.991   .     S
O791   H792    0.991   .     S
N793   C795    1.456   .     S
N793   H794    1.030   .     S
C795   H796    1.110   .     S
C795   H797    1.108   .     S
C795   H798    1.112   .     S
N799   H800    1.028   .     S
N799   C801    1.448   .     S
C801   H803    1.110   .     S
C801   H802    1.111   .     S
C801   H804    1.110   .     S
H806   O669    0.992   1_655 S
H808   O671    0.991   1_655 S
O809   H810    0.991   .     S
O809   C625    1.383   1_655 S
O811   H812    0.986   .     S
H814   O677    0.990   1_655 S
O815   N644    1.338   1_655 S
O815   H680    0.990   1_655 S
C817   C823    1.428   .     S
C817   O849    1.296   .     A
C817   O851    1.296   .     A
C818   C824    1.428   .     S
C818   O852    1.296   .     A
C818   O850    1.296   .     A
C819   C840    1.407   .     A
C819   H843    1.082   .     S
C819   C821    1.391   .     A
C820   C822    1.392   .     A
C820   H844    1.081   .     S
C820   C839    1.408   .     A
C821   O857    1.377   .     S
C822   C226    1.418   1_556 S
C822   O927    1.373   .     S
C823   C1028   1.333   .     S
C823   H1049   1.087   .     S
C825   O853    1.307   .     A
C825   C827    1.474   .     S
C825   O855    1.306   .     A
C826   O854    1.314   .     A
C826   C828    1.493   .     S
C826   O856    1.307   .     A
C827   C831    1.408   .     A
C827   C833    1.408   .     A
C828   C832    1.412   .     A
C828   C834    1.406   .     A
C829   C831    1.417   .     A
C829   C837    1.417   .     A
C829   O1013   1.383   1_455 S
C830   C838    1.417   .     A
C830   C832    1.418   .     A
C830   O947    1.383   .     S
C831   O875    1.382   .     S
C832   O941    1.370   .     S
C833   N867    1.436   .     S
C833   C835    1.417   .     A
C834   C836    1.402   .     A
C834   N861    1.424   .     S
C835   C839    1.423   .     A
C835   C837    1.425   .     A
C836   C838    1.414   .     A
C836   C840    1.418   .     A
C837   C209    1.419   1_556 S
C839   C228    1.407   1_556 S
Cu841  N848    2.037   .     S
Cu841  Cu842   2.711   .     S
Cu841  O856    1.911   .     S
Cu841  O852    1.947   .     S
Cu841  O853    1.928   .     S
Cu841  O849    1.947   .     S
Cu842  O854    1.928   .     S
Cu842  N847    2.037   .     S
Cu842  O855    1.911   .     S
Cu842  O851    1.947   .     S
Cu842  O850    1.947   .     S
H846   C1028   1.088   .     S
N847   N916    1.287   .     S
N847   O949    1.338   .     S
N848   N983    1.287   1_455 S
N848   O1019   1.338   1_455 S
O857   H858    0.991   .     S
O859   H860    0.991   .     S
O859   C958    1.373   1_455 S
N861   C863    1.456   .     S
N861   H862    1.030   .     S
C863   H864    1.110   .     S
C863   H865    1.108   .     S
C863   H866    1.112   .     S
N867   H868    1.028   .     S
N867   C869    1.448   .     S
C869   H871    1.110   .     S
C869   H870    1.111   .     S
C869   H872    1.110   .     S
O873   C968    1.370   1_455 S
O873   H1010   0.992   1_455 S
H874   O941    0.992   .     S
O875   H1012   0.991   1_455 S
H876   O943    0.991   .     S
O877   H878    0.991   .     S
O877   C897    1.383   .     S
O879   H880    0.986   .     S
O879   C966    1.383   1_455 S
O881   N983    1.338   1_455 S
O881   H1018   0.990   1_455 S
H882   O949    0.990   .     S
O883   N916    1.338   .     S
O883   H952    0.990   .     S
H884   O1019   0.990   1_455 S
C885   C891    1.428   .     S
C885   O917    1.296   .     A
C885   O919    1.296   .     A
C886   C892    1.428   .     S
C886   O920    1.296   .     A
C886   O918    1.296   .     A
C887   C908    1.407   .     A
C887   H911    1.082   .     S
C887   C889    1.391   .     A
C888   C890    1.392   .     A
C888   H912    1.081   .     S
C888   C907    1.408   .     A
C889   O925    1.377   .     S
C890   C294    1.418   1_556 S
C890   O995    1.373   .     S
C891   C1096   1.333   .     S
C891   H1117   1.087   .     S
C893   O921    1.307   .     A
C893   C895    1.474   .     S
C893   O923    1.306   .     A
C894   O922    1.314   .     A
C894   C896    1.493   .     S
C894   O924    1.307   .     A
C895   C899    1.408   .     A
C895   C901    1.408   .     A
C896   C900    1.412   .     A
C896   C902    1.406   .     A
C897   C899    1.417   .     A
C897   C905    1.417   .     A
C898   C906    1.417   .     A
C898   C900    1.418   .     A
C898   O1015   1.383   .     S
C899   O943    1.382   .     S
C900   O1009   1.370   .     S
C901   N935    1.436   .     S
C901   C903    1.417   .     A
C902   C904    1.402   .     A
C902   N929    1.424   .     S
C903   C907    1.423   .     A
C903   C905    1.425   .     A
C904   C906    1.414   .     A
C904   C908    1.418   .     A
C905   C277    1.419   1_556 S
C907   C296    1.407   1_556 S
Cu909  N916    2.037   .     S
Cu909  Cu910   2.711   .     S
Cu909  O924    1.911   .     S
Cu909  O920    1.947   .     S
Cu909  O921    1.928   .     S
Cu909  O917    1.947   .     S
Cu910  O922    1.928   .     S
Cu910  N915    2.037   .     S
Cu910  O923    1.911   .     S
Cu910  O919    1.947   .     S
Cu910  O918    1.947   .     S
H914   C1096   1.088   .     S
N915   N984    1.287   .     S
N915   O1017   1.338   .     S
O925   H926    0.991   .     S
O927   H928    0.991   .     S
N929   C931    1.456   .     S
N929   H930    1.030   .     S
C931   H932    1.110   .     S
C931   H933    1.108   .     S
C931   H934    1.112   .     S
N935   H936    1.028   .     S
N935   C937    1.448   .     S
C937   H939    1.110   .     S
C937   H938    1.111   .     S
C937   H940    1.110   .     S
H942   O1009   0.992   .     S
H944   O1011   0.991   .     S
O945   H946    0.991   .     S
O945   C965    1.383   .     S
O947   H948    0.986   .     S
H950   O1017   0.990   .     S
O951   N984    1.338   .     S
O951   H1020   0.990   .     S
C953   C959    1.428   .     S
C953   O985    1.296   .     A
C953   O987    1.296   .     A
C954   C960    1.428   .     S
C954   O988    1.296   .     A
C954   O986    1.296   .     A
C955   C976    1.407   .     A
C955   H979    1.082   .     S
C955   C957    1.391   .     A
C956   C958    1.392   .     A
C956   H980    1.081   .     S
C956   C975    1.408   .     A
C957   O993    1.377   .     S
C958   C362    1.418   1_556 S
C958   O859    1.373   1_655 S
C959   C1164   1.333   .     S
C959   H1185   1.087   .     S
C961   O989    1.307   .     A
C961   C963    1.474   .     S
C961   O991    1.306   .     A
C962   O990    1.314   .     A
C962   C964    1.493   .     S
C962   O992    1.307   .     A
C963   C967    1.408   .     A
C963   C969    1.408   .     A
C964   C968    1.412   .     A
C964   C970    1.406   .     A
C965   C967    1.417   .     A
C965   C973    1.417   .     A
C966   C974    1.417   .     A
C966   C968    1.418   .     A
C966   O879    1.383   1_655 S
C967   O1011   1.382   .     S
C968   O873    1.370   1_655 S
C969   N1003   1.436   .     S
C969   C971    1.417   .     A
C970   C972    1.402   .     A
C970   N997    1.424   .     S
C971   C975    1.423   .     A
C971   C973    1.425   .     A
C972   C974    1.414   .     A
C972   C976    1.418   .     A
C973   C345    1.419   1_556 S
C975   C364    1.407   1_556 S
Cu977  N984    2.037   .     S
Cu977  Cu978   2.711   .     S
Cu977  O992    1.911   .     S
Cu977  O988    1.947   .     S
Cu977  O989    1.928   .     S
Cu977  O985    1.947   .     S
Cu978  O990    1.928   .     S
Cu978  N983    2.037   .     S
Cu978  O991    1.911   .     S
Cu978  O987    1.947   .     S
Cu978  O986    1.947   .     S
H982   C1164   1.088   .     S
N983   N848    1.287   1_655 S
N983   O881    1.338   1_655 S
O993   H994    0.991   .     S
O995   H996    0.991   .     S
N997   C999    1.456   .     S
N997   H998    1.030   .     S
C999   H1000   1.110   .     S
C999   H1001   1.108   .     S
C999   H1002   1.112   .     S
N1003  H1004   1.028   .     S
N1003  C1005   1.448   .     S
C1005  H1007   1.110   .     S
C1005  H1006   1.111   .     S
C1005  H1008   1.110   .     S
H1010  O873    0.992   1_655 S
H1012  O875    0.991   1_655 S
O1013  H1014   0.991   .     S
O1013  C829    1.383   1_655 S
O1015  H1016   0.986   .     S
H1018  O881    0.990   1_655 S
O1019  N848    1.338   1_655 S
O1019  H884    0.990   1_655 S
C1021  C1027   1.428   .     S
C1021  O1053   1.296   .     A
C1021  O1055   1.296   .     A
C1022  C1028   1.428   .     S
C1022  O1056   1.296   .     A
C1022  O1054   1.296   .     A
C1023  C1044   1.407   .     A
C1023  H1047   1.082   .     S
C1023  C1025   1.391   .     A
C1024  C1026   1.392   .     A
C1024  H1048   1.081   .     S
C1024  C1043   1.408   .     A
C1025  O1061   1.377   .     S
C1026  C430    1.418   1_556 S
C1026  O1131   1.373   .     S
C1027  C620    1.333   1_565 S
C1027  H641    1.087   1_565 S
C1029  O1057   1.307   .     A
C1029  C1031   1.474   .     S
C1029  O1059   1.306   .     A
C1030  O1058   1.314   .     A
C1030  C1032   1.493   .     S
C1030  O1060   1.307   .     A
C1031  C1035   1.408   .     A
C1031  C1037   1.408   .     A
C1032  C1036   1.412   .     A
C1032  C1038   1.406   .     A
C1033  C1035   1.417   .     A
C1033  C1041   1.417   .     A
C1033  O1217   1.383   1_455 S
C1034  C1042   1.417   .     A
C1034  C1036   1.418   .     A
C1034  O1151   1.383   .     S
C1035  O1079   1.382   .     S
C1036  O1145   1.370   .     S
C1037  N1071   1.436   .     S
C1037  C1039   1.417   .     A
C1038  C1040   1.402   .     A
C1038  N1065   1.424   .     S
C1039  C1043   1.423   .     A
C1039  C1041   1.425   .     A
C1040  C1042   1.414   .     A
C1040  C1044   1.418   .     A
C1041  C413    1.419   1_556 S
C1043  C432    1.407   1_556 S
Cu1045 N1052   2.037   .     S
Cu1045 Cu1046  2.711   .     S
Cu1045 O1060   1.911   .     S
Cu1045 O1056   1.947   .     S
Cu1045 O1057   1.928   .     S
Cu1045 O1053   1.947   .     S
Cu1046 O1058   1.928   .     S
Cu1046 N1051   2.037   .     S
Cu1046 O1059   1.911   .     S
Cu1046 O1055   1.947   .     S
Cu1046 O1054   1.947   .     S
H1050  C620    1.088   1_565 S
N1051  N1120   1.287   .     S
N1051  O1153   1.338   .     S
N1052  N1187   1.287   1_455 S
N1052  O1223   1.338   1_455 S
O1061  H1062   0.991   .     S
O1063  H1064   0.991   .     S
O1063  C1162   1.373   1_455 S
N1065  C1067   1.456   .     S
N1065  H1066   1.030   .     S
C1067  H1068   1.110   .     S
C1067  H1069   1.108   .     S
C1067  H1070   1.112   .     S
N1071  H1072   1.028   .     S
N1071  C1073   1.448   .     S
C1073  H1075   1.110   .     S
C1073  H1074   1.111   .     S
C1073  H1076   1.110   .     S
O1077  C1172   1.370   1_455 S
O1077  H1214   0.992   1_455 S
H1078  O1145   0.992   .     S
O1079  H1216   0.991   1_455 S
H1080  O1147   0.991   .     S
O1081  H1082   0.991   .     S
O1081  C1101   1.383   .     S
O1083  H1084   0.986   .     S
O1083  C1170   1.383   1_455 S
O1085  N1187   1.338   1_455 S
O1085  H1222   0.990   1_455 S
H1086  O1153   0.990   .     S
O1087  N1120   1.338   .     S
O1087  H1156   0.990   .     S
H1088  O1223   0.990   1_455 S
C1089  C1095   1.428   .     S
C1089  O1121   1.296   .     A
C1089  O1123   1.296   .     A
C1090  C1096   1.428   .     S
C1090  O1124   1.296   .     A
C1090  O1122   1.296   .     A
C1091  C1112   1.407   .     A
C1091  H1115   1.082   .     S
C1091  C1093   1.391   .     A
C1092  C1094   1.392   .     A
C1092  H1116   1.081   .     S
C1092  C1111   1.408   .     A
C1093  O1129   1.377   .     S
C1094  C498    1.418   1_556 S
C1094  O1199   1.373   .     S
C1095  C688    1.333   1_565 S
C1095  H709    1.087   1_565 S
C1097  O1125   1.307   .     A
C1097  C1099   1.474   .     S
C1097  O1127   1.306   .     A
C1098  O1126   1.314   .     A
C1098  C1100   1.493   .     S
C1098  O1128   1.307   .     A
C1099  C1103   1.408   .     A
C1099  C1105   1.408   .     A
C1100  C1104   1.412   .     A
C1100  C1106   1.406   .     A
C1101  C1103   1.417   .     A
C1101  C1109   1.417   .     A
C1102  C1110   1.417   .     A
C1102  C1104   1.418   .     A
C1102  O1219   1.383   .     S
C1103  O1147   1.382   .     S
C1104  O1213   1.370   .     S
C1105  N1139   1.436   .     S
C1105  C1107   1.417   .     A
C1106  C1108   1.402   .     A
C1106  N1133   1.424   .     S
C1107  C1111   1.423   .     A
C1107  C1109   1.425   .     A
C1108  C1110   1.414   .     A
C1108  C1112   1.418   .     A
C1109  C481    1.419   1_556 S
C1111  C500    1.407   1_556 S
Cu1113 N1120   2.037   .     S
Cu1113 Cu1114  2.711   .     S
Cu1113 O1128   1.911   .     S
Cu1113 O1124   1.947   .     S
Cu1113 O1125   1.928   .     S
Cu1113 O1121   1.947   .     S
Cu1114 O1126   1.928   .     S
Cu1114 N1119   2.037   .     S
Cu1114 O1127   1.911   .     S
Cu1114 O1123   1.947   .     S
Cu1114 O1122   1.947   .     S
H1118  C688    1.088   1_565 S
N1119  N1188   1.287   .     S
N1119  O1221   1.338   .     S
O1129  H1130   0.991   .     S
O1131  H1132   0.991   .     S
N1133  C1135   1.456   .     S
N1133  H1134   1.030   .     S
C1135  H1136   1.110   .     S
C1135  H1137   1.108   .     S
C1135  H1138   1.112   .     S
N1139  H1140   1.028   .     S
N1139  C1141   1.448   .     S
C1141  H1143   1.110   .     S
C1141  H1142   1.111   .     S
C1141  H1144   1.110   .     S
H1146  O1213   0.992   .     S
H1148  O1215   0.991   .     S
O1149  H1150   0.991   .     S
O1149  C1169   1.383   .     S
O1151  H1152   0.986   .     S
H1154  O1221   0.990   .     S
O1155  N1188   1.338   .     S
O1155  H1224   0.990   .     S
C1157  C1163   1.428   .     S
C1157  O1189   1.296   .     A
C1157  O1191   1.296   .     A
C1158  C1164   1.428   .     S
C1158  O1192   1.296   .     A
C1158  O1190   1.296   .     A
C1159  C1180   1.407   .     A
C1159  H1183   1.082   .     S
C1159  C1161   1.391   .     A
C1160  C1162   1.392   .     A
C1160  H1184   1.081   .     S
C1160  C1179   1.408   .     A
C1161  O1197   1.377   .     S
C1162  C566    1.418   1_556 S
C1162  O1063   1.373   1_655 S
C1163  C756    1.333   1_565 S
C1163  H777    1.087   1_565 S
C1165  O1193   1.307   .     A
C1165  C1167   1.474   .     S
C1165  O1195   1.306   .     A
C1166  O1194   1.314   .     A
C1166  C1168   1.493   .     S
C1166  O1196   1.307   .     A
C1167  C1171   1.408   .     A
C1167  C1173   1.408   .     A
C1168  C1172   1.412   .     A
C1168  C1174   1.406   .     A
C1169  C1171   1.417   .     A
C1169  C1177   1.417   .     A
C1170  C1178   1.417   .     A
C1170  C1172   1.418   .     A
C1170  O1083   1.383   1_655 S
C1171  O1215   1.382   .     S
C1172  O1077   1.370   1_655 S
C1173  N1207   1.436   .     S
C1173  C1175   1.417   .     A
C1174  C1176   1.402   .     A
C1174  N1201   1.424   .     S
C1175  C1179   1.423   .     A
C1175  C1177   1.425   .     A
C1176  C1178   1.414   .     A
C1176  C1180   1.418   .     A
C1177  C549    1.419   1_556 S
C1179  C568    1.407   1_556 S
Cu1181 N1188   2.037   .     S
Cu1181 Cu1182  2.711   .     S
Cu1181 O1196   1.911   .     S
Cu1181 O1192   1.947   .     S
Cu1181 O1193   1.928   .     S
Cu1181 O1189   1.947   .     S
Cu1182 O1194   1.928   .     S
Cu1182 N1187   2.037   .     S
Cu1182 O1195   1.911   .     S
Cu1182 O1191   1.947   .     S
Cu1182 O1190   1.947   .     S
H1186  C756    1.088   1_565 S
N1187  N1052   1.287   1_655 S
N1187  O1085   1.338   1_655 S
O1197  H1198   0.991   .     S
O1199  H1200   0.991   .     S
N1201  C1203   1.456   .     S
N1201  H1202   1.030   .     S
C1203  H1204   1.110   .     S
C1203  H1205   1.108   .     S
C1203  H1206   1.112   .     S
N1207  H1208   1.028   .     S
N1207  C1209   1.448   .     S
C1209  H1211   1.110   .     S
C1209  H1210   1.111   .     S
C1209  H1212   1.110   .     S
H1214  O1077   0.992   1_655 S
H1216  O1079   0.991   1_655 S
O1217  H1218   0.991   .     S
O1217  C1033   1.383   1_655 S
O1219  H1220   0.986   .     S
H1222  O1085   0.990   1_655 S
O1223  N1052   1.338   1_655 S
O1223  H1088   0.990   1_655 S
