data_str_m2_o1_o17_pcu_sym.53
_audit_creation_date              2020-01-03
_audit_creation_method            'Materials Studio'
_symmetry_space_group_name_H-M    'P1'
_symmetry_Int_Tables_number       1
_symmetry_cell_setting            triclinic
loop_
_symmetry_equiv_pos_as_xyz
  x,y,z
_cell_length_a                    32.4890
_cell_length_b                    28.5612
_cell_length_c                    30.1187
_cell_angle_alpha                 90.3027
_cell_angle_beta                  90.1108
_cell_angle_gamma                 89.9486
loop_
_atom_site_label
_atom_site_type_symbol
_atom_site_fract_x
_atom_site_fract_y
_atom_site_fract_z
_atom_site_U_iso_or_equiv
_atom_site_adp_type
_atom_site_occupancy
Br1    Br    0.24064   0.22597   0.37481   0.00000  Uiso   1.00
Br2    Br    0.09270   0.10736   0.12519   0.00000  Uiso   1.00
C3     C     0.08736   0.16668   0.24995   0.00000  Uiso   1.00
C4     C     0.04274   0.16668   0.24993   0.00000  Uiso   1.00
C5     C     0.13923   0.02467   0.22458   0.00000  Uiso   1.00
C6     C     0.19411   0.30866   0.27542   0.00000  Uiso   1.00
C7     C     0.19409   0.02492   0.27545   0.00000  Uiso   1.00
C8     C     0.13924   0.30841   0.22455   0.00000  Uiso   1.00
C9     C     0.16561   0.16654   0.16447   0.00000  Uiso   1.00
C10    C     0.16772   0.16679   0.33553   0.00000  Uiso   1.00
C11    C     0.19791   0.19343   0.40724   0.00000  Uiso   1.00
C12    C     0.13543   0.13990   0.09276   0.00000  Uiso   1.00
C13    C     0.16858   0.16710   0.38375   0.00000  Uiso   1.00
C14    C     0.24598   0.16665   0.25005   0.00000  Uiso   1.00
C15    C     0.16475   0.16623   0.11625   0.00000  Uiso   1.00
C16    C     0.13934   0.14045   0.40593   0.00000  Uiso   1.00
C17    C     0.19399   0.19289   0.09407   0.00000  Uiso   1.00
C18    C     0.13723   0.14055   0.45233   0.00000  Uiso   1.00
C19    C     0.19611   0.19278   0.04767   0.00000  Uiso   1.00
C20    C     0.16687   0.16686   0.47658   0.00000  Uiso   1.00
C21    C     0.16646   0.16647   0.02342   0.00000  Uiso   1.00
C22    C     0.19710   0.19342   0.45398   0.00000  Uiso   1.00
C23    C     0.13623   0.13991   0.04602   0.00000  Uiso   1.00
C24    C     0.10678   0.11458   0.47511   0.00000  Uiso   1.00
C25    C     0.10713   0.11431   0.02150   0.00000  Uiso   1.00
C26    C     0.22655   0.21875   0.02489   0.00000  Uiso   1.00
C27    C     0.07332   0.08845   0.45183   0.00000  Uiso   1.00
C28    C     0.26002   0.24488   0.04817   0.00000  Uiso   1.00
C29    C     0.22620   0.21902   0.47850   0.00000  Uiso   1.00
C30    C     0.02132   0.12415   0.24835   0.00000  Uiso   1.00
C31    C     0.31201   0.20919   0.25165   0.00000  Uiso   1.00
C32    C     0.31208   0.12413   0.24845   0.00000  Uiso   1.00
C33    C     0.02125   0.20920   0.25155   0.00000  Uiso   1.00
C34    C     0.29059   0.16665   0.25007   0.00000  Uiso   1.00
Cu35   Cu    0.16667   0.21355   0.25000   0.00000  Uiso   1.00
Cu36   Cu    0.16667   0.11978   0.25000   0.00000  Uiso   1.00
H37    H     0.11840   0.11983   0.38600   0.00000  Uiso   1.00
H38    H     0.21613   0.29010   0.29573   0.00000  Uiso   1.00
H39    H     0.21605   0.04369   0.29587   0.00000  Uiso   1.00
H40    H     0.11728   0.28964   0.20413   0.00000  Uiso   1.00
H41    H     0.06372   0.09754   0.41855   0.00000  Uiso   1.00
H42    H     0.26962   0.23577   0.08144   0.00000  Uiso   1.00
H43    H     0.21494   0.21351   0.11400   0.00000  Uiso   1.00
H44    H     0.08372   0.09427   0.03827   0.00000  Uiso   1.00
H45    H     0.24962   0.23906   0.46173   0.00000  Uiso   1.00
H46    H     0.03737   0.09091   0.24699   0.00000  Uiso   1.00
H47    H     0.29596   0.24242   0.25301   0.00000  Uiso   1.00
H48    H     0.29609   0.09088   0.24718   0.00000  Uiso   1.00
H49    H     0.03724   0.24245   0.25282   0.00000  Uiso   1.00
H50    H     0.11720   0.04323   0.20427   0.00000  Uiso   1.00
N51    N     0.16667   0.28402   0.25000   0.00000  Uiso   1.00
N52    N     0.16667   0.04931   0.25000   0.00000  Uiso   1.00
O53    O     0.10655   0.20625   0.25000   0.00000  Uiso   1.00
O54    O     0.27811   0.27683   0.02979   0.00000  Uiso   1.00
O55    O     0.22679   0.12709   0.25000   0.00000  Uiso   1.00
O56    O     0.22679   0.20625   0.25001   0.00000  Uiso   1.00
O57    O     0.10655   0.12709   0.25000   0.00000  Uiso   1.00
O58    O     0.16666   0.20627   0.18513   0.00000  Uiso   1.00
O59    O     0.16668   0.12707   0.31487   0.00000  Uiso   1.00
O60    O     0.16668   0.20627   0.31487   0.00000  Uiso   1.00
O61    O     0.16666   0.12707   0.18513   0.00000  Uiso   1.00
O62    O     0.05520   0.05652   0.47022   0.00000  Uiso   1.00
Br63   Br    0.57397   0.22597   0.37481   0.00000  Uiso   1.00
Br64   Br    0.42603   0.10736   0.12519   0.00000  Uiso   1.00
C65    C     0.42069   0.16668   0.24995   0.00000  Uiso   1.00
C66    C     0.37608   0.16668   0.24993   0.00000  Uiso   1.00
C67    C     0.47256   0.02467   0.22458   0.00000  Uiso   1.00
C68    C     0.52744   0.30866   0.27542   0.00000  Uiso   1.00
C69    C     0.52743   0.02492   0.27545   0.00000  Uiso   1.00
C70    C     0.47257   0.30841   0.22455   0.00000  Uiso   1.00
C71    C     0.49895   0.16654   0.16447   0.00000  Uiso   1.00
C72    C     0.50105   0.16679   0.33553   0.00000  Uiso   1.00
C73    C     0.53124   0.19343   0.40724   0.00000  Uiso   1.00
C74    C     0.46876   0.13990   0.09276   0.00000  Uiso   1.00
C75    C     0.50191   0.16710   0.38375   0.00000  Uiso   1.00
C76    C     0.57931   0.16665   0.25005   0.00000  Uiso   1.00
C77    C     0.49809   0.16623   0.11625   0.00000  Uiso   1.00
C78    C     0.47268   0.14045   0.40593   0.00000  Uiso   1.00
C79    C     0.52732   0.19289   0.09407   0.00000  Uiso   1.00
C80    C     0.47056   0.14055   0.45233   0.00000  Uiso   1.00
C81    C     0.52944   0.19278   0.04767   0.00000  Uiso   1.00
C82    C     0.50020   0.16686   0.47658   0.00000  Uiso   1.00
C83    C     0.49979   0.16647   0.02342   0.00000  Uiso   1.00
C84    C     0.53044   0.19342   0.45398   0.00000  Uiso   1.00
C85    C     0.46957   0.13991   0.04602   0.00000  Uiso   1.00
C86    C     0.44011   0.11458   0.47511   0.00000  Uiso   1.00
C87    C     0.44047   0.11431   0.02150   0.00000  Uiso   1.00
C88    C     0.55989   0.21875   0.02489   0.00000  Uiso   1.00
C89    C     0.40665   0.08845   0.45183   0.00000  Uiso   1.00
C90    C     0.59335   0.24488   0.04817   0.00000  Uiso   1.00
C91    C     0.55953   0.21902   0.47850   0.00000  Uiso   1.00
C92    C     0.35466   0.12415   0.24835   0.00000  Uiso   1.00
C93    C     0.64534   0.20919   0.25165   0.00000  Uiso   1.00
C94    C     0.64541   0.12413   0.24845   0.00000  Uiso   1.00
C95    C     0.35459   0.20920   0.25155   0.00000  Uiso   1.00
C96    C     0.62392   0.16665   0.25007   0.00000  Uiso   1.00
Cu97   Cu    0.50000   0.21355   0.25000   0.00000  Uiso   1.00
Cu98   Cu    0.50000   0.11978   0.25000   0.00000  Uiso   1.00
H99    H     0.45173   0.11983   0.38600   0.00000  Uiso   1.00
H100   H     0.54946   0.29010   0.29573   0.00000  Uiso   1.00
H101   H     0.54938   0.04369   0.29587   0.00000  Uiso   1.00
H102   H     0.45062   0.28964   0.20413   0.00000  Uiso   1.00
H103   H     0.39705   0.09754   0.41855   0.00000  Uiso   1.00
H104   H     0.60296   0.23577   0.08144   0.00000  Uiso   1.00
H105   H     0.54827   0.21351   0.11400   0.00000  Uiso   1.00
H106   H     0.41705   0.09427   0.03827   0.00000  Uiso   1.00
H107   H     0.58295   0.23906   0.46173   0.00000  Uiso   1.00
H108   H     0.37070   0.09091   0.24699   0.00000  Uiso   1.00
H109   H     0.62929   0.24242   0.25301   0.00000  Uiso   1.00
H110   H     0.62942   0.09088   0.24718   0.00000  Uiso   1.00
H111   H     0.37057   0.24245   0.25282   0.00000  Uiso   1.00
H112   H     0.45054   0.04323   0.20427   0.00000  Uiso   1.00
N113   N     0.50000   0.28402   0.25000   0.00000  Uiso   1.00
N114   N     0.50000   0.04931   0.25000   0.00000  Uiso   1.00
O115   O     0.43988   0.20625   0.25000   0.00000  Uiso   1.00
O116   O     0.61145   0.27683   0.02979   0.00000  Uiso   1.00
O117   O     0.56012   0.12709   0.25000   0.00000  Uiso   1.00
O118   O     0.56012   0.20625   0.25001   0.00000  Uiso   1.00
O119   O     0.43988   0.12709   0.25000   0.00000  Uiso   1.00
O120   O     0.49999   0.20627   0.18513   0.00000  Uiso   1.00
O121   O     0.50001   0.12707   0.31487   0.00000  Uiso   1.00
O122   O     0.50001   0.20627   0.31487   0.00000  Uiso   1.00
O123   O     0.49999   0.12707   0.18513   0.00000  Uiso   1.00
O124   O     0.38853   0.05652   0.47022   0.00000  Uiso   1.00
Br125  Br    0.90730   0.22597   0.37481   0.00000  Uiso   1.00
Br126  Br    0.75936   0.10736   0.12519   0.00000  Uiso   1.00
C127   C     0.75402   0.16668   0.24995   0.00000  Uiso   1.00
C128   C     0.70941   0.16668   0.24993   0.00000  Uiso   1.00
C129   C     0.80589   0.02467   0.22458   0.00000  Uiso   1.00
C130   C     0.86077   0.30866   0.27542   0.00000  Uiso   1.00
C131   C     0.86076   0.02492   0.27545   0.00000  Uiso   1.00
C132   C     0.80591   0.30841   0.22455   0.00000  Uiso   1.00
C133   C     0.83228   0.16654   0.16447   0.00000  Uiso   1.00
C134   C     0.83439   0.16679   0.33553   0.00000  Uiso   1.00
C135   C     0.86457   0.19343   0.40724   0.00000  Uiso   1.00
C136   C     0.80209   0.13990   0.09276   0.00000  Uiso   1.00
C137   C     0.83524   0.16710   0.38375   0.00000  Uiso   1.00
C138   C     0.91264   0.16665   0.25005   0.00000  Uiso   1.00
C139   C     0.83142   0.16623   0.11625   0.00000  Uiso   1.00
C140   C     0.80601   0.14045   0.40593   0.00000  Uiso   1.00
C141   C     0.86066   0.19289   0.09407   0.00000  Uiso   1.00
C142   C     0.80389   0.14055   0.45233   0.00000  Uiso   1.00
C143   C     0.86277   0.19278   0.04767   0.00000  Uiso   1.00
C144   C     0.83354   0.16686   0.47658   0.00000  Uiso   1.00
C145   C     0.83313   0.16647   0.02342   0.00000  Uiso   1.00
C146   C     0.86377   0.19342   0.45398   0.00000  Uiso   1.00
C147   C     0.80290   0.13991   0.04602   0.00000  Uiso   1.00
C148   C     0.77345   0.11458   0.47511   0.00000  Uiso   1.00
C149   C     0.77380   0.11431   0.02150   0.00000  Uiso   1.00
C150   C     0.89322   0.21875   0.02489   0.00000  Uiso   1.00
C151   C     0.73998   0.08845   0.45183   0.00000  Uiso   1.00
C152   C     0.92668   0.24488   0.04817   0.00000  Uiso   1.00
C153   C     0.89287   0.21902   0.47850   0.00000  Uiso   1.00
C154   C     0.68799   0.12415   0.24835   0.00000  Uiso   1.00
C155   C     0.97868   0.20919   0.25165   0.00000  Uiso   1.00
C156   C     0.97875   0.12413   0.24845   0.00000  Uiso   1.00
C157   C     0.68792   0.20920   0.25155   0.00000  Uiso   1.00
C158   C     0.95726   0.16665   0.25007   0.00000  Uiso   1.00
Cu159  Cu    0.83333   0.21355   0.25000   0.00000  Uiso   1.00
Cu160  Cu    0.83333   0.11978   0.25000   0.00000  Uiso   1.00
H161   H     0.78506   0.11983   0.38600   0.00000  Uiso   1.00
H162   H     0.88280   0.29010   0.29573   0.00000  Uiso   1.00
H163   H     0.88272   0.04369   0.29587   0.00000  Uiso   1.00
H164   H     0.78395   0.28964   0.20413   0.00000  Uiso   1.00
H165   H     0.73038   0.09754   0.41855   0.00000  Uiso   1.00
H166   H     0.93629   0.23577   0.08144   0.00000  Uiso   1.00
H167   H     0.88160   0.21351   0.11400   0.00000  Uiso   1.00
H168   H     0.75038   0.09427   0.03827   0.00000  Uiso   1.00
H169   H     0.91628   0.23906   0.46173   0.00000  Uiso   1.00
H170   H     0.70404   0.09091   0.24699   0.00000  Uiso   1.00
H171   H     0.96263   0.24242   0.25301   0.00000  Uiso   1.00
H172   H     0.96276   0.09088   0.24718   0.00000  Uiso   1.00
H173   H     0.70391   0.24245   0.25282   0.00000  Uiso   1.00
H174   H     0.78387   0.04323   0.20427   0.00000  Uiso   1.00
N175   N     0.83333   0.28402   0.25000   0.00000  Uiso   1.00
N176   N     0.83333   0.04931   0.25000   0.00000  Uiso   1.00
O177   O     0.77321   0.20625   0.25000   0.00000  Uiso   1.00
O178   O     0.94478   0.27683   0.02979   0.00000  Uiso   1.00
O179   O     0.89345   0.12709   0.25000   0.00000  Uiso   1.00
O180   O     0.89345   0.20625   0.25001   0.00000  Uiso   1.00
O181   O     0.77321   0.12709   0.25000   0.00000  Uiso   1.00
O182   O     0.83332   0.20627   0.18513   0.00000  Uiso   1.00
O183   O     0.83334   0.12707   0.31487   0.00000  Uiso   1.00
O184   O     0.83334   0.20627   0.31487   0.00000  Uiso   1.00
O185   O     0.83332   0.12707   0.18513   0.00000  Uiso   1.00
O186   O     0.72187   0.05652   0.47022   0.00000  Uiso   1.00
Br187  Br    0.24064   0.55930   0.37481   0.00000  Uiso   1.00
Br188  Br    0.09270   0.44070   0.12519   0.00000  Uiso   1.00
C189   C     0.08736   0.50001   0.24995   0.00000  Uiso   1.00
C190   C     0.04274   0.50002   0.24993   0.00000  Uiso   1.00
C191   C     0.13923   0.35801   0.22458   0.00000  Uiso   1.00
C192   C     0.19411   0.64199   0.27542   0.00000  Uiso   1.00
C193   C     0.19409   0.35826   0.27545   0.00000  Uiso   1.00
C194   C     0.13924   0.64174   0.22455   0.00000  Uiso   1.00
C195   C     0.16561   0.49987   0.16447   0.00000  Uiso   1.00
C196   C     0.16772   0.50013   0.33553   0.00000  Uiso   1.00
C197   C     0.19791   0.52677   0.40724   0.00000  Uiso   1.00
C198   C     0.13543   0.47323   0.09276   0.00000  Uiso   1.00
C199   C     0.16858   0.50043   0.38375   0.00000  Uiso   1.00
C200   C     0.24598   0.49999   0.25005   0.00000  Uiso   1.00
C201   C     0.16475   0.49957   0.11625   0.00000  Uiso   1.00
C202   C     0.13934   0.47378   0.40593   0.00000  Uiso   1.00
C203   C     0.19399   0.52622   0.09407   0.00000  Uiso   1.00
C204   C     0.13723   0.47389   0.45233   0.00000  Uiso   1.00
C205   C     0.19611   0.52611   0.04767   0.00000  Uiso   1.00
C206   C     0.16687   0.50019   0.47658   0.00000  Uiso   1.00
C207   C     0.16646   0.49980   0.02342   0.00000  Uiso   1.00
C208   C     0.19710   0.52675   0.45398   0.00000  Uiso   1.00
C209   C     0.13623   0.47325   0.04602   0.00000  Uiso   1.00
C210   C     0.10678   0.44791   0.47511   0.00000  Uiso   1.00
C211   C     0.10713   0.44764   0.02150   0.00000  Uiso   1.00
C212   C     0.22655   0.55208   0.02489   0.00000  Uiso   1.00
C213   C     0.07332   0.42179   0.45183   0.00000  Uiso   1.00
C214   C     0.26002   0.57821   0.04817   0.00000  Uiso   1.00
C215   C     0.22620   0.55236   0.47850   0.00000  Uiso   1.00
C216   C     0.02132   0.45748   0.24835   0.00000  Uiso   1.00
C217   C     0.31201   0.54252   0.25165   0.00000  Uiso   1.00
C218   C     0.31208   0.45747   0.24845   0.00000  Uiso   1.00
C219   C     0.02125   0.54253   0.25155   0.00000  Uiso   1.00
C220   C     0.29059   0.49998   0.25007   0.00000  Uiso   1.00
Cu221  Cu    0.16667   0.54689   0.25000   0.00000  Uiso   1.00
Cu222  Cu    0.16667   0.45311   0.25000   0.00000  Uiso   1.00
H223   H     0.11840   0.45316   0.38600   0.00000  Uiso   1.00
H224   H     0.21613   0.62343   0.29573   0.00000  Uiso   1.00
H225   H     0.21605   0.37703   0.29587   0.00000  Uiso   1.00
H226   H     0.11728   0.62297   0.20413   0.00000  Uiso   1.00
H227   H     0.06372   0.43088   0.41855   0.00000  Uiso   1.00
H228   H     0.26962   0.56911   0.08144   0.00000  Uiso   1.00
H229   H     0.21494   0.54684   0.11400   0.00000  Uiso   1.00
H230   H     0.08372   0.42760   0.03827   0.00000  Uiso   1.00
H231   H     0.24962   0.57239   0.46173   0.00000  Uiso   1.00
H232   H     0.03737   0.42424   0.24699   0.00000  Uiso   1.00
H233   H     0.29596   0.57576   0.25301   0.00000  Uiso   1.00
H234   H     0.29609   0.42422   0.24718   0.00000  Uiso   1.00
H235   H     0.03724   0.57578   0.25282   0.00000  Uiso   1.00
H236   H     0.11720   0.37657   0.20427   0.00000  Uiso   1.00
N237   N     0.16667   0.61736   0.25000   0.00000  Uiso   1.00
N238   N     0.16667   0.38264   0.25000   0.00000  Uiso   1.00
O239   O     0.10655   0.53958   0.25000   0.00000  Uiso   1.00
O240   O     0.27811   0.61016   0.02979   0.00000  Uiso   1.00
O241   O     0.22679   0.46042   0.25000   0.00000  Uiso   1.00
O242   O     0.22679   0.53958   0.25001   0.00000  Uiso   1.00
O243   O     0.10655   0.46042   0.25000   0.00000  Uiso   1.00
O244   O     0.16666   0.53960   0.18513   0.00000  Uiso   1.00
O245   O     0.16668   0.46040   0.31487   0.00000  Uiso   1.00
O246   O     0.16668   0.53960   0.31487   0.00000  Uiso   1.00
O247   O     0.16666   0.46040   0.18513   0.00000  Uiso   1.00
O248   O     0.05520   0.38985   0.47022   0.00000  Uiso   1.00
Br249  Br    0.57397   0.55930   0.37481   0.00000  Uiso   1.00
Br250  Br    0.42603   0.44070   0.12519   0.00000  Uiso   1.00
C251   C     0.42069   0.50001   0.24995   0.00000  Uiso   1.00
C252   C     0.37608   0.50002   0.24993   0.00000  Uiso   1.00
C253   C     0.47256   0.35801   0.22458   0.00000  Uiso   1.00
C254   C     0.52744   0.64199   0.27542   0.00000  Uiso   1.00
C255   C     0.52743   0.35826   0.27545   0.00000  Uiso   1.00
C256   C     0.47257   0.64174   0.22455   0.00000  Uiso   1.00
C257   C     0.49895   0.49987   0.16447   0.00000  Uiso   1.00
C258   C     0.50105   0.50013   0.33553   0.00000  Uiso   1.00
C259   C     0.53124   0.52677   0.40724   0.00000  Uiso   1.00
C260   C     0.46876   0.47323   0.09276   0.00000  Uiso   1.00
C261   C     0.50191   0.50043   0.38375   0.00000  Uiso   1.00
C262   C     0.57931   0.49999   0.25005   0.00000  Uiso   1.00
C263   C     0.49809   0.49957   0.11625   0.00000  Uiso   1.00
C264   C     0.47268   0.47378   0.40593   0.00000  Uiso   1.00
C265   C     0.52732   0.52622   0.09407   0.00000  Uiso   1.00
C266   C     0.47056   0.47389   0.45233   0.00000  Uiso   1.00
C267   C     0.52944   0.52611   0.04767   0.00000  Uiso   1.00
C268   C     0.50020   0.50019   0.47658   0.00000  Uiso   1.00
C269   C     0.49979   0.49980   0.02342   0.00000  Uiso   1.00
C270   C     0.53044   0.52675   0.45398   0.00000  Uiso   1.00
C271   C     0.46957   0.47325   0.04602   0.00000  Uiso   1.00
C272   C     0.44011   0.44791   0.47511   0.00000  Uiso   1.00
C273   C     0.44047   0.44764   0.02150   0.00000  Uiso   1.00
C274   C     0.55989   0.55208   0.02489   0.00000  Uiso   1.00
C275   C     0.40665   0.42179   0.45183   0.00000  Uiso   1.00
C276   C     0.59335   0.57821   0.04817   0.00000  Uiso   1.00
C277   C     0.55953   0.55236   0.47850   0.00000  Uiso   1.00
C278   C     0.35466   0.45748   0.24835   0.00000  Uiso   1.00
C279   C     0.64534   0.54252   0.25165   0.00000  Uiso   1.00
C280   C     0.64541   0.45747   0.24845   0.00000  Uiso   1.00
C281   C     0.35459   0.54253   0.25155   0.00000  Uiso   1.00
C282   C     0.62392   0.49998   0.25007   0.00000  Uiso   1.00
Cu283  Cu    0.50000   0.54689   0.25000   0.00000  Uiso   1.00
Cu284  Cu    0.50000   0.45311   0.25000   0.00000  Uiso   1.00
H285   H     0.45173   0.45316   0.38600   0.00000  Uiso   1.00
H286   H     0.54946   0.62343   0.29573   0.00000  Uiso   1.00
H287   H     0.54938   0.37703   0.29587   0.00000  Uiso   1.00
H288   H     0.45062   0.62297   0.20413   0.00000  Uiso   1.00
H289   H     0.39705   0.43088   0.41855   0.00000  Uiso   1.00
H290   H     0.60296   0.56911   0.08144   0.00000  Uiso   1.00
H291   H     0.54827   0.54684   0.11400   0.00000  Uiso   1.00
H292   H     0.41705   0.42760   0.03827   0.00000  Uiso   1.00
H293   H     0.58295   0.57239   0.46173   0.00000  Uiso   1.00
H294   H     0.37070   0.42424   0.24699   0.00000  Uiso   1.00
H295   H     0.62929   0.57576   0.25301   0.00000  Uiso   1.00
H296   H     0.62942   0.42422   0.24718   0.00000  Uiso   1.00
H297   H     0.37057   0.57578   0.25282   0.00000  Uiso   1.00
H298   H     0.45054   0.37657   0.20427   0.00000  Uiso   1.00
N299   N     0.50000   0.61736   0.25000   0.00000  Uiso   1.00
N300   N     0.50000   0.38264   0.25000   0.00000  Uiso   1.00
O301   O     0.43988   0.53958   0.25000   0.00000  Uiso   1.00
O302   O     0.61145   0.61016   0.02979   0.00000  Uiso   1.00
O303   O     0.56012   0.46042   0.25000   0.00000  Uiso   1.00
O304   O     0.56012   0.53958   0.25001   0.00000  Uiso   1.00
O305   O     0.43988   0.46042   0.25000   0.00000  Uiso   1.00
O306   O     0.49999   0.53960   0.18513   0.00000  Uiso   1.00
O307   O     0.50001   0.46040   0.31487   0.00000  Uiso   1.00
O308   O     0.50001   0.53960   0.31487   0.00000  Uiso   1.00
O309   O     0.49999   0.46040   0.18513   0.00000  Uiso   1.00
O310   O     0.38853   0.38985   0.47022   0.00000  Uiso   1.00
Br311  Br    0.90730   0.55930   0.37481   0.00000  Uiso   1.00
Br312  Br    0.75936   0.44070   0.12519   0.00000  Uiso   1.00
C313   C     0.75402   0.50001   0.24995   0.00000  Uiso   1.00
C314   C     0.70941   0.50002   0.24993   0.00000  Uiso   1.00
C315   C     0.80589   0.35801   0.22458   0.00000  Uiso   1.00
C316   C     0.86077   0.64199   0.27542   0.00000  Uiso   1.00
C317   C     0.86076   0.35826   0.27545   0.00000  Uiso   1.00
C318   C     0.80591   0.64174   0.22455   0.00000  Uiso   1.00
C319   C     0.83228   0.49987   0.16447   0.00000  Uiso   1.00
C320   C     0.83439   0.50013   0.33553   0.00000  Uiso   1.00
C321   C     0.86457   0.52677   0.40724   0.00000  Uiso   1.00
C322   C     0.80209   0.47323   0.09276   0.00000  Uiso   1.00
C323   C     0.83524   0.50043   0.38375   0.00000  Uiso   1.00
C324   C     0.91264   0.49999   0.25005   0.00000  Uiso   1.00
C325   C     0.83142   0.49957   0.11625   0.00000  Uiso   1.00
C326   C     0.80601   0.47378   0.40593   0.00000  Uiso   1.00
C327   C     0.86066   0.52622   0.09407   0.00000  Uiso   1.00
C328   C     0.80389   0.47389   0.45233   0.00000  Uiso   1.00
C329   C     0.86277   0.52611   0.04767   0.00000  Uiso   1.00
C330   C     0.83354   0.50019   0.47658   0.00000  Uiso   1.00
C331   C     0.83313   0.49980   0.02342   0.00000  Uiso   1.00
C332   C     0.86377   0.52675   0.45398   0.00000  Uiso   1.00
C333   C     0.80290   0.47325   0.04602   0.00000  Uiso   1.00
C334   C     0.77345   0.44791   0.47511   0.00000  Uiso   1.00
C335   C     0.77380   0.44764   0.02150   0.00000  Uiso   1.00
C336   C     0.89322   0.55208   0.02489   0.00000  Uiso   1.00
C337   C     0.73998   0.42179   0.45183   0.00000  Uiso   1.00
C338   C     0.92668   0.57821   0.04817   0.00000  Uiso   1.00
C339   C     0.89287   0.55236   0.47850   0.00000  Uiso   1.00
C340   C     0.68799   0.45748   0.24835   0.00000  Uiso   1.00
C341   C     0.97868   0.54252   0.25165   0.00000  Uiso   1.00
C342   C     0.97875   0.45747   0.24845   0.00000  Uiso   1.00
C343   C     0.68792   0.54253   0.25155   0.00000  Uiso   1.00
C344   C     0.95726   0.49998   0.25007   0.00000  Uiso   1.00
Cu345  Cu    0.83333   0.54689   0.25000   0.00000  Uiso   1.00
Cu346  Cu    0.83333   0.45311   0.25000   0.00000  Uiso   1.00
H347   H     0.78506   0.45316   0.38600   0.00000  Uiso   1.00
H348   H     0.88280   0.62343   0.29573   0.00000  Uiso   1.00
H349   H     0.88272   0.37703   0.29587   0.00000  Uiso   1.00
H350   H     0.78395   0.62297   0.20413   0.00000  Uiso   1.00
H351   H     0.73038   0.43088   0.41855   0.00000  Uiso   1.00
H352   H     0.93629   0.56911   0.08144   0.00000  Uiso   1.00
H353   H     0.88160   0.54684   0.11400   0.00000  Uiso   1.00
H354   H     0.75038   0.42760   0.03827   0.00000  Uiso   1.00
H355   H     0.91628   0.57239   0.46173   0.00000  Uiso   1.00
H356   H     0.70404   0.42424   0.24699   0.00000  Uiso   1.00
H357   H     0.96263   0.57576   0.25301   0.00000  Uiso   1.00
H358   H     0.96276   0.42422   0.24718   0.00000  Uiso   1.00
H359   H     0.70391   0.57578   0.25282   0.00000  Uiso   1.00
H360   H     0.78387   0.37657   0.20427   0.00000  Uiso   1.00
N361   N     0.83333   0.61736   0.25000   0.00000  Uiso   1.00
N362   N     0.83333   0.38264   0.25000   0.00000  Uiso   1.00
O363   O     0.77321   0.53958   0.25000   0.00000  Uiso   1.00
O364   O     0.94478   0.61016   0.02979   0.00000  Uiso   1.00
O365   O     0.89345   0.46042   0.25000   0.00000  Uiso   1.00
O366   O     0.89345   0.53958   0.25001   0.00000  Uiso   1.00
O367   O     0.77321   0.46042   0.25000   0.00000  Uiso   1.00
O368   O     0.83332   0.53960   0.18513   0.00000  Uiso   1.00
O369   O     0.83334   0.46040   0.31487   0.00000  Uiso   1.00
O370   O     0.83334   0.53960   0.31487   0.00000  Uiso   1.00
O371   O     0.83332   0.46040   0.18513   0.00000  Uiso   1.00
O372   O     0.72187   0.38985   0.47022   0.00000  Uiso   1.00
Br373  Br    0.24064   0.89264   0.37481   0.00000  Uiso   1.00
Br374  Br    0.09270   0.77403   0.12519   0.00000  Uiso   1.00
C375   C     0.08736   0.83335   0.24995   0.00000  Uiso   1.00
C376   C     0.04274   0.83335   0.24993   0.00000  Uiso   1.00
C377   C     0.13923   0.69134   0.22458   0.00000  Uiso   1.00
C378   C     0.19411   0.97533   0.27542   0.00000  Uiso   1.00
C379   C     0.19409   0.69159   0.27545   0.00000  Uiso   1.00
C380   C     0.13924   0.97508   0.22455   0.00000  Uiso   1.00
C381   C     0.16561   0.83321   0.16447   0.00000  Uiso   1.00
C382   C     0.16772   0.83346   0.33553   0.00000  Uiso   1.00
C383   C     0.19791   0.86010   0.40724   0.00000  Uiso   1.00
C384   C     0.13543   0.80656   0.09276   0.00000  Uiso   1.00
C385   C     0.16858   0.83376   0.38375   0.00000  Uiso   1.00
C386   C     0.24598   0.83332   0.25005   0.00000  Uiso   1.00
C387   C     0.16475   0.83290   0.11625   0.00000  Uiso   1.00
C388   C     0.13934   0.80711   0.40593   0.00000  Uiso   1.00
C389   C     0.19399   0.85955   0.09407   0.00000  Uiso   1.00
C390   C     0.13723   0.80722   0.45233   0.00000  Uiso   1.00
C391   C     0.19611   0.85944   0.04767   0.00000  Uiso   1.00
C392   C     0.16687   0.83353   0.47658   0.00000  Uiso   1.00
C393   C     0.16646   0.83314   0.02342   0.00000  Uiso   1.00
C394   C     0.19710   0.86008   0.45398   0.00000  Uiso   1.00
C395   C     0.13623   0.80658   0.04602   0.00000  Uiso   1.00
C396   C     0.10678   0.78125   0.47511   0.00000  Uiso   1.00
C397   C     0.10713   0.78097   0.02150   0.00000  Uiso   1.00
C398   C     0.22655   0.88542   0.02489   0.00000  Uiso   1.00
C399   C     0.07332   0.75512   0.45183   0.00000  Uiso   1.00
C400   C     0.26002   0.91154   0.04817   0.00000  Uiso   1.00
C401   C     0.22620   0.88569   0.47850   0.00000  Uiso   1.00
C402   C     0.02132   0.79081   0.24835   0.00000  Uiso   1.00
C403   C     0.31201   0.87585   0.25165   0.00000  Uiso   1.00
C404   C     0.31208   0.79080   0.24845   0.00000  Uiso   1.00
C405   C     0.02125   0.87587   0.25155   0.00000  Uiso   1.00
C406   C     0.29059   0.83332   0.25007   0.00000  Uiso   1.00
Cu407  Cu    0.16667   0.88022   0.25000   0.00000  Uiso   1.00
Cu408  Cu    0.16667   0.78645   0.25000   0.00000  Uiso   1.00
H409   H     0.11840   0.78649   0.38600   0.00000  Uiso   1.00
H410   H     0.21613   0.95677   0.29573   0.00000  Uiso   1.00
H411   H     0.21605   0.71036   0.29587   0.00000  Uiso   1.00
H412   H     0.11728   0.95631   0.20413   0.00000  Uiso   1.00
H413   H     0.06372   0.76421   0.41855   0.00000  Uiso   1.00
H414   H     0.26962   0.90244   0.08144   0.00000  Uiso   1.00
H415   H     0.21494   0.88017   0.11400   0.00000  Uiso   1.00
H416   H     0.08372   0.76094   0.03827   0.00000  Uiso   1.00
H417   H     0.24962   0.90572   0.46173   0.00000  Uiso   1.00
H418   H     0.03737   0.75757   0.24699   0.00000  Uiso   1.00
H419   H     0.29596   0.90909   0.25301   0.00000  Uiso   1.00
H420   H     0.29609   0.75755   0.24718   0.00000  Uiso   1.00
H421   H     0.03724   0.90912   0.25282   0.00000  Uiso   1.00
H422   H     0.11720   0.70990   0.20427   0.00000  Uiso   1.00
N423   N     0.16667   0.95069   0.25000   0.00000  Uiso   1.00
N424   N     0.16667   0.71598   0.25000   0.00000  Uiso   1.00
O425   O     0.10655   0.87291   0.25000   0.00000  Uiso   1.00
O426   O     0.27811   0.94349   0.02979   0.00000  Uiso   1.00
O427   O     0.22679   0.79375   0.25000   0.00000  Uiso   1.00
O428   O     0.22679   0.87291   0.25001   0.00000  Uiso   1.00
O429   O     0.10655   0.79375   0.25000   0.00000  Uiso   1.00
O430   O     0.16666   0.87293   0.18513   0.00000  Uiso   1.00
O431   O     0.16668   0.79373   0.31487   0.00000  Uiso   1.00
O432   O     0.16668   0.87293   0.31487   0.00000  Uiso   1.00
O433   O     0.16666   0.79373   0.18513   0.00000  Uiso   1.00
O434   O     0.05520   0.72319   0.47022   0.00000  Uiso   1.00
Br435  Br    0.57397   0.89264   0.37481   0.00000  Uiso   1.00
Br436  Br    0.42603   0.77403   0.12519   0.00000  Uiso   1.00
C437   C     0.42069   0.83335   0.24995   0.00000  Uiso   1.00
C438   C     0.37608   0.83335   0.24993   0.00000  Uiso   1.00
C439   C     0.47256   0.69134   0.22458   0.00000  Uiso   1.00
C440   C     0.52744   0.97533   0.27542   0.00000  Uiso   1.00
C441   C     0.52743   0.69159   0.27545   0.00000  Uiso   1.00
C442   C     0.47257   0.97508   0.22455   0.00000  Uiso   1.00
C443   C     0.49895   0.83321   0.16447   0.00000  Uiso   1.00
C444   C     0.50105   0.83346   0.33553   0.00000  Uiso   1.00
C445   C     0.53124   0.86010   0.40724   0.00000  Uiso   1.00
C446   C     0.46876   0.80656   0.09276   0.00000  Uiso   1.00
C447   C     0.50191   0.83376   0.38375   0.00000  Uiso   1.00
C448   C     0.57931   0.83332   0.25005   0.00000  Uiso   1.00
C449   C     0.49809   0.83290   0.11625   0.00000  Uiso   1.00
C450   C     0.47268   0.80711   0.40593   0.00000  Uiso   1.00
C451   C     0.52732   0.85955   0.09407   0.00000  Uiso   1.00
C452   C     0.47056   0.80722   0.45233   0.00000  Uiso   1.00
C453   C     0.52944   0.85944   0.04767   0.00000  Uiso   1.00
C454   C     0.50020   0.83353   0.47658   0.00000  Uiso   1.00
C455   C     0.49979   0.83314   0.02342   0.00000  Uiso   1.00
C456   C     0.53044   0.86008   0.45398   0.00000  Uiso   1.00
C457   C     0.46957   0.80658   0.04602   0.00000  Uiso   1.00
C458   C     0.44011   0.78125   0.47511   0.00000  Uiso   1.00
C459   C     0.44047   0.78097   0.02150   0.00000  Uiso   1.00
C460   C     0.55989   0.88542   0.02489   0.00000  Uiso   1.00
C461   C     0.40665   0.75512   0.45183   0.00000  Uiso   1.00
C462   C     0.59335   0.91154   0.04817   0.00000  Uiso   1.00
C463   C     0.55953   0.88569   0.47850   0.00000  Uiso   1.00
C464   C     0.35466   0.79081   0.24835   0.00000  Uiso   1.00
C465   C     0.64534   0.87585   0.25165   0.00000  Uiso   1.00
C466   C     0.64541   0.79080   0.24845   0.00000  Uiso   1.00
C467   C     0.35459   0.87587   0.25155   0.00000  Uiso   1.00
C468   C     0.62392   0.83332   0.25007   0.00000  Uiso   1.00
Cu469  Cu    0.50000   0.88022   0.25000   0.00000  Uiso   1.00
Cu470  Cu    0.50000   0.78645   0.25000   0.00000  Uiso   1.00
H471   H     0.45173   0.78649   0.38600   0.00000  Uiso   1.00
H472   H     0.54946   0.95677   0.29573   0.00000  Uiso   1.00
H473   H     0.54938   0.71036   0.29587   0.00000  Uiso   1.00
H474   H     0.45062   0.95631   0.20413   0.00000  Uiso   1.00
H475   H     0.39705   0.76421   0.41855   0.00000  Uiso   1.00
H476   H     0.60296   0.90244   0.08144   0.00000  Uiso   1.00
H477   H     0.54827   0.88017   0.11400   0.00000  Uiso   1.00
H478   H     0.41705   0.76094   0.03827   0.00000  Uiso   1.00
H479   H     0.58295   0.90572   0.46173   0.00000  Uiso   1.00
H480   H     0.37070   0.75757   0.24699   0.00000  Uiso   1.00
H481   H     0.62929   0.90909   0.25301   0.00000  Uiso   1.00
H482   H     0.62942   0.75755   0.24718   0.00000  Uiso   1.00
H483   H     0.37057   0.90912   0.25282   0.00000  Uiso   1.00
H484   H     0.45054   0.70990   0.20427   0.00000  Uiso   1.00
N485   N     0.50000   0.95069   0.25000   0.00000  Uiso   1.00
N486   N     0.50000   0.71598   0.25000   0.00000  Uiso   1.00
O487   O     0.43988   0.87291   0.25000   0.00000  Uiso   1.00
O488   O     0.61145   0.94349   0.02979   0.00000  Uiso   1.00
O489   O     0.56012   0.79375   0.25000   0.00000  Uiso   1.00
O490   O     0.56012   0.87291   0.25001   0.00000  Uiso   1.00
O491   O     0.43988   0.79375   0.25000   0.00000  Uiso   1.00
O492   O     0.49999   0.87293   0.18513   0.00000  Uiso   1.00
O493   O     0.50001   0.79373   0.31487   0.00000  Uiso   1.00
O494   O     0.50001   0.87293   0.31487   0.00000  Uiso   1.00
O495   O     0.49999   0.79373   0.18513   0.00000  Uiso   1.00
O496   O     0.38853   0.72319   0.47022   0.00000  Uiso   1.00
Br497  Br    0.90730   0.89264   0.37481   0.00000  Uiso   1.00
Br498  Br    0.75936   0.77403   0.12519   0.00000  Uiso   1.00
C499   C     0.75402   0.83335   0.24995   0.00000  Uiso   1.00
C500   C     0.70941   0.83335   0.24993   0.00000  Uiso   1.00
C501   C     0.80589   0.69134   0.22458   0.00000  Uiso   1.00
C502   C     0.86077   0.97533   0.27542   0.00000  Uiso   1.00
C503   C     0.86076   0.69159   0.27545   0.00000  Uiso   1.00
C504   C     0.80591   0.97508   0.22455   0.00000  Uiso   1.00
C505   C     0.83228   0.83321   0.16447   0.00000  Uiso   1.00
C506   C     0.83439   0.83346   0.33553   0.00000  Uiso   1.00
C507   C     0.86457   0.86010   0.40724   0.00000  Uiso   1.00
C508   C     0.80209   0.80656   0.09276   0.00000  Uiso   1.00
C509   C     0.83524   0.83376   0.38375   0.00000  Uiso   1.00
C510   C     0.91264   0.83332   0.25005   0.00000  Uiso   1.00
C511   C     0.83142   0.83290   0.11625   0.00000  Uiso   1.00
C512   C     0.80601   0.80711   0.40593   0.00000  Uiso   1.00
C513   C     0.86066   0.85955   0.09407   0.00000  Uiso   1.00
C514   C     0.80389   0.80722   0.45233   0.00000  Uiso   1.00
C515   C     0.86277   0.85944   0.04767   0.00000  Uiso   1.00
C516   C     0.83354   0.83353   0.47658   0.00000  Uiso   1.00
C517   C     0.83313   0.83314   0.02342   0.00000  Uiso   1.00
C518   C     0.86377   0.86008   0.45398   0.00000  Uiso   1.00
C519   C     0.80290   0.80658   0.04602   0.00000  Uiso   1.00
C520   C     0.77345   0.78125   0.47511   0.00000  Uiso   1.00
C521   C     0.77380   0.78097   0.02150   0.00000  Uiso   1.00
C522   C     0.89322   0.88542   0.02489   0.00000  Uiso   1.00
C523   C     0.73998   0.75512   0.45183   0.00000  Uiso   1.00
C524   C     0.92668   0.91154   0.04817   0.00000  Uiso   1.00
C525   C     0.89287   0.88569   0.47850   0.00000  Uiso   1.00
C526   C     0.68799   0.79081   0.24835   0.00000  Uiso   1.00
C527   C     0.97868   0.87585   0.25165   0.00000  Uiso   1.00
C528   C     0.97875   0.79080   0.24845   0.00000  Uiso   1.00
C529   C     0.68792   0.87587   0.25155   0.00000  Uiso   1.00
C530   C     0.95726   0.83332   0.25007   0.00000  Uiso   1.00
Cu531  Cu    0.83333   0.88022   0.25000   0.00000  Uiso   1.00
Cu532  Cu    0.83333   0.78645   0.25000   0.00000  Uiso   1.00
H533   H     0.78506   0.78649   0.38600   0.00000  Uiso   1.00
H534   H     0.88280   0.95677   0.29573   0.00000  Uiso   1.00
H535   H     0.88272   0.71036   0.29587   0.00000  Uiso   1.00
H536   H     0.78395   0.95631   0.20413   0.00000  Uiso   1.00
H537   H     0.73038   0.76421   0.41855   0.00000  Uiso   1.00
H538   H     0.93629   0.90244   0.08144   0.00000  Uiso   1.00
H539   H     0.88160   0.88017   0.11400   0.00000  Uiso   1.00
H540   H     0.75038   0.76094   0.03827   0.00000  Uiso   1.00
H541   H     0.91628   0.90572   0.46173   0.00000  Uiso   1.00
H542   H     0.70404   0.75757   0.24699   0.00000  Uiso   1.00
H543   H     0.96263   0.90909   0.25301   0.00000  Uiso   1.00
H544   H     0.96276   0.75755   0.24718   0.00000  Uiso   1.00
H545   H     0.70391   0.90912   0.25282   0.00000  Uiso   1.00
H546   H     0.78387   0.70990   0.20427   0.00000  Uiso   1.00
N547   N     0.83333   0.95069   0.25000   0.00000  Uiso   1.00
N548   N     0.83333   0.71598   0.25000   0.00000  Uiso   1.00
O549   O     0.77321   0.87291   0.25000   0.00000  Uiso   1.00
O550   O     0.94478   0.94349   0.02979   0.00000  Uiso   1.00
O551   O     0.89345   0.79375   0.25000   0.00000  Uiso   1.00
O552   O     0.89345   0.87291   0.25001   0.00000  Uiso   1.00
O553   O     0.77321   0.79375   0.25000   0.00000  Uiso   1.00
O554   O     0.83332   0.87293   0.18513   0.00000  Uiso   1.00
O555   O     0.83334   0.79373   0.31487   0.00000  Uiso   1.00
O556   O     0.83334   0.87293   0.31487   0.00000  Uiso   1.00
O557   O     0.83332   0.79373   0.18513   0.00000  Uiso   1.00
O558   O     0.72187   0.72319   0.47022   0.00000  Uiso   1.00
Br559  Br    0.24064   0.22597   0.87481   0.00000  Uiso   1.00
Br560  Br    0.09270   0.10736   0.62519   0.00000  Uiso   1.00
C561   C     0.08736   0.16668   0.74995   0.00000  Uiso   1.00
C562   C     0.04274   0.16668   0.74993   0.00000  Uiso   1.00
C563   C     0.13923   0.02467   0.72458   0.00000  Uiso   1.00
C564   C     0.19411   0.30866   0.77542   0.00000  Uiso   1.00
C565   C     0.19409   0.02492   0.77545   0.00000  Uiso   1.00
C566   C     0.13924   0.30841   0.72455   0.00000  Uiso   1.00
C567   C     0.16561   0.16654   0.66447   0.00000  Uiso   1.00
C568   C     0.16772   0.16679   0.83553   0.00000  Uiso   1.00
C569   C     0.19791   0.19343   0.90724   0.00000  Uiso   1.00
C570   C     0.13543   0.13990   0.59276   0.00000  Uiso   1.00
C571   C     0.16858   0.16710   0.88375   0.00000  Uiso   1.00
C572   C     0.24598   0.16665   0.75005   0.00000  Uiso   1.00
C573   C     0.16475   0.16623   0.61625   0.00000  Uiso   1.00
C574   C     0.13934   0.14045   0.90593   0.00000  Uiso   1.00
C575   C     0.19399   0.19289   0.59407   0.00000  Uiso   1.00
C576   C     0.13723   0.14055   0.95233   0.00000  Uiso   1.00
C577   C     0.19611   0.19278   0.54767   0.00000  Uiso   1.00
C578   C     0.16687   0.16686   0.97658   0.00000  Uiso   1.00
C579   C     0.16646   0.16647   0.52342   0.00000  Uiso   1.00
C580   C     0.19710   0.19342   0.95398   0.00000  Uiso   1.00
C581   C     0.13623   0.13991   0.54602   0.00000  Uiso   1.00
C582   C     0.10678   0.11458   0.97511   0.00000  Uiso   1.00
C583   C     0.10713   0.11431   0.52150   0.00000  Uiso   1.00
C584   C     0.22655   0.21875   0.52489   0.00000  Uiso   1.00
C585   C     0.07332   0.08845   0.95183   0.00000  Uiso   1.00
C586   C     0.26002   0.24488   0.54817   0.00000  Uiso   1.00
C587   C     0.22620   0.21902   0.97850   0.00000  Uiso   1.00
C588   C     0.02132   0.12415   0.74835   0.00000  Uiso   1.00
C589   C     0.31201   0.20919   0.75165   0.00000  Uiso   1.00
C590   C     0.31208   0.12413   0.74845   0.00000  Uiso   1.00
C591   C     0.02125   0.20920   0.75155   0.00000  Uiso   1.00
C592   C     0.29059   0.16665   0.75007   0.00000  Uiso   1.00
Cu593  Cu    0.16667   0.21355   0.75000   0.00000  Uiso   1.00
Cu594  Cu    0.16667   0.11978   0.75000   0.00000  Uiso   1.00
H595   H     0.11840   0.11983   0.88600   0.00000  Uiso   1.00
H596   H     0.21613   0.29010   0.79573   0.00000  Uiso   1.00
H597   H     0.21605   0.04369   0.79587   0.00000  Uiso   1.00
H598   H     0.11728   0.28964   0.70413   0.00000  Uiso   1.00
H599   H     0.06372   0.09754   0.91855   0.00000  Uiso   1.00
H600   H     0.26962   0.23577   0.58144   0.00000  Uiso   1.00
H601   H     0.21494   0.21351   0.61400   0.00000  Uiso   1.00
H602   H     0.08372   0.09427   0.53827   0.00000  Uiso   1.00
H603   H     0.24962   0.23906   0.96173   0.00000  Uiso   1.00
H604   H     0.03737   0.09091   0.74699   0.00000  Uiso   1.00
H605   H     0.29596   0.24242   0.75301   0.00000  Uiso   1.00
H606   H     0.29609   0.09088   0.74718   0.00000  Uiso   1.00
H607   H     0.03724   0.24245   0.75282   0.00000  Uiso   1.00
H608   H     0.11720   0.04323   0.70427   0.00000  Uiso   1.00
N609   N     0.16667   0.28402   0.75000   0.00000  Uiso   1.00
N610   N     0.16667   0.04931   0.75000   0.00000  Uiso   1.00
O611   O     0.10655   0.20625   0.75000   0.00000  Uiso   1.00
O612   O     0.27811   0.27683   0.52979   0.00000  Uiso   1.00
O613   O     0.22679   0.12709   0.75000   0.00000  Uiso   1.00
O614   O     0.22679   0.20625   0.75001   0.00000  Uiso   1.00
O615   O     0.10655   0.12709   0.75000   0.00000  Uiso   1.00
O616   O     0.16666   0.20627   0.68513   0.00000  Uiso   1.00
O617   O     0.16668   0.12707   0.81487   0.00000  Uiso   1.00
O618   O     0.16668   0.20627   0.81487   0.00000  Uiso   1.00
O619   O     0.16666   0.12707   0.68513   0.00000  Uiso   1.00
O620   O     0.05520   0.05652   0.97022   0.00000  Uiso   1.00
Br621  Br    0.57397   0.22597   0.87481   0.00000  Uiso   1.00
Br622  Br    0.42603   0.10736   0.62519   0.00000  Uiso   1.00
C623   C     0.42069   0.16668   0.74995   0.00000  Uiso   1.00
C624   C     0.37608   0.16668   0.74993   0.00000  Uiso   1.00
C625   C     0.47256   0.02467   0.72458   0.00000  Uiso   1.00
C626   C     0.52744   0.30866   0.77542   0.00000  Uiso   1.00
C627   C     0.52743   0.02492   0.77545   0.00000  Uiso   1.00
C628   C     0.47257   0.30841   0.72455   0.00000  Uiso   1.00
C629   C     0.49895   0.16654   0.66447   0.00000  Uiso   1.00
C630   C     0.50105   0.16679   0.83553   0.00000  Uiso   1.00
C631   C     0.53124   0.19343   0.90724   0.00000  Uiso   1.00
C632   C     0.46876   0.13990   0.59276   0.00000  Uiso   1.00
C633   C     0.50191   0.16710   0.88375   0.00000  Uiso   1.00
C634   C     0.57931   0.16665   0.75005   0.00000  Uiso   1.00
C635   C     0.49809   0.16623   0.61625   0.00000  Uiso   1.00
C636   C     0.47268   0.14045   0.90593   0.00000  Uiso   1.00
C637   C     0.52732   0.19289   0.59407   0.00000  Uiso   1.00
C638   C     0.47056   0.14055   0.95233   0.00000  Uiso   1.00
C639   C     0.52944   0.19278   0.54767   0.00000  Uiso   1.00
C640   C     0.50020   0.16686   0.97658   0.00000  Uiso   1.00
C641   C     0.49979   0.16647   0.52342   0.00000  Uiso   1.00
C642   C     0.53044   0.19342   0.95398   0.00000  Uiso   1.00
C643   C     0.46957   0.13991   0.54602   0.00000  Uiso   1.00
C644   C     0.44011   0.11458   0.97511   0.00000  Uiso   1.00
C645   C     0.44047   0.11431   0.52150   0.00000  Uiso   1.00
C646   C     0.55989   0.21875   0.52489   0.00000  Uiso   1.00
C647   C     0.40665   0.08845   0.95183   0.00000  Uiso   1.00
C648   C     0.59335   0.24488   0.54817   0.00000  Uiso   1.00
C649   C     0.55953   0.21902   0.97850   0.00000  Uiso   1.00
C650   C     0.35466   0.12415   0.74835   0.00000  Uiso   1.00
C651   C     0.64534   0.20919   0.75165   0.00000  Uiso   1.00
C652   C     0.64541   0.12413   0.74845   0.00000  Uiso   1.00
C653   C     0.35459   0.20920   0.75155   0.00000  Uiso   1.00
C654   C     0.62392   0.16665   0.75007   0.00000  Uiso   1.00
Cu655  Cu    0.50000   0.21355   0.75000   0.00000  Uiso   1.00
Cu656  Cu    0.50000   0.11978   0.75000   0.00000  Uiso   1.00
H657   H     0.45173   0.11983   0.88600   0.00000  Uiso   1.00
H658   H     0.54946   0.29010   0.79573   0.00000  Uiso   1.00
H659   H     0.54938   0.04369   0.79587   0.00000  Uiso   1.00
H660   H     0.45062   0.28964   0.70413   0.00000  Uiso   1.00
H661   H     0.39705   0.09754   0.91855   0.00000  Uiso   1.00
H662   H     0.60296   0.23577   0.58144   0.00000  Uiso   1.00
H663   H     0.54827   0.21351   0.61400   0.00000  Uiso   1.00
H664   H     0.41705   0.09427   0.53827   0.00000  Uiso   1.00
H665   H     0.58295   0.23906   0.96173   0.00000  Uiso   1.00
H666   H     0.37070   0.09091   0.74699   0.00000  Uiso   1.00
H667   H     0.62929   0.24242   0.75301   0.00000  Uiso   1.00
H668   H     0.62942   0.09088   0.74718   0.00000  Uiso   1.00
H669   H     0.37057   0.24245   0.75282   0.00000  Uiso   1.00
H670   H     0.45054   0.04323   0.70427   0.00000  Uiso   1.00
N671   N     0.50000   0.28402   0.75000   0.00000  Uiso   1.00
N672   N     0.50000   0.04931   0.75000   0.00000  Uiso   1.00
O673   O     0.43988   0.20625   0.75000   0.00000  Uiso   1.00
O674   O     0.61145   0.27683   0.52979   0.00000  Uiso   1.00
O675   O     0.56012   0.12709   0.75000   0.00000  Uiso   1.00
O676   O     0.56012   0.20625   0.75001   0.00000  Uiso   1.00
O677   O     0.43988   0.12709   0.75000   0.00000  Uiso   1.00
O678   O     0.49999   0.20627   0.68513   0.00000  Uiso   1.00
O679   O     0.50001   0.12707   0.81487   0.00000  Uiso   1.00
O680   O     0.50001   0.20627   0.81487   0.00000  Uiso   1.00
O681   O     0.49999   0.12707   0.68513   0.00000  Uiso   1.00
O682   O     0.38853   0.05652   0.97022   0.00000  Uiso   1.00
Br683  Br    0.90730   0.22597   0.87481   0.00000  Uiso   1.00
Br684  Br    0.75936   0.10736   0.62519   0.00000  Uiso   1.00
C685   C     0.75402   0.16668   0.74995   0.00000  Uiso   1.00
C686   C     0.70941   0.16668   0.74993   0.00000  Uiso   1.00
C687   C     0.80589   0.02467   0.72458   0.00000  Uiso   1.00
C688   C     0.86077   0.30866   0.77542   0.00000  Uiso   1.00
C689   C     0.86076   0.02492   0.77545   0.00000  Uiso   1.00
C690   C     0.80591   0.30841   0.72455   0.00000  Uiso   1.00
C691   C     0.83228   0.16654   0.66447   0.00000  Uiso   1.00
C692   C     0.83439   0.16679   0.83553   0.00000  Uiso   1.00
C693   C     0.86457   0.19343   0.90724   0.00000  Uiso   1.00
C694   C     0.80209   0.13990   0.59276   0.00000  Uiso   1.00
C695   C     0.83524   0.16710   0.88375   0.00000  Uiso   1.00
C696   C     0.91264   0.16665   0.75005   0.00000  Uiso   1.00
C697   C     0.83142   0.16623   0.61625   0.00000  Uiso   1.00
C698   C     0.80601   0.14045   0.90593   0.00000  Uiso   1.00
C699   C     0.86066   0.19289   0.59407   0.00000  Uiso   1.00
C700   C     0.80389   0.14055   0.95233   0.00000  Uiso   1.00
C701   C     0.86277   0.19278   0.54767   0.00000  Uiso   1.00
C702   C     0.83354   0.16686   0.97658   0.00000  Uiso   1.00
C703   C     0.83313   0.16647   0.52342   0.00000  Uiso   1.00
C704   C     0.86377   0.19342   0.95398   0.00000  Uiso   1.00
C705   C     0.80290   0.13991   0.54602   0.00000  Uiso   1.00
C706   C     0.77345   0.11458   0.97511   0.00000  Uiso   1.00
C707   C     0.77380   0.11431   0.52150   0.00000  Uiso   1.00
C708   C     0.89322   0.21875   0.52489   0.00000  Uiso   1.00
C709   C     0.73998   0.08845   0.95183   0.00000  Uiso   1.00
C710   C     0.92668   0.24488   0.54817   0.00000  Uiso   1.00
C711   C     0.89287   0.21902   0.97850   0.00000  Uiso   1.00
C712   C     0.68799   0.12415   0.74835   0.00000  Uiso   1.00
C713   C     0.97868   0.20919   0.75165   0.00000  Uiso   1.00
C714   C     0.97875   0.12413   0.74845   0.00000  Uiso   1.00
C715   C     0.68792   0.20920   0.75155   0.00000  Uiso   1.00
C716   C     0.95726   0.16665   0.75007   0.00000  Uiso   1.00
Cu717  Cu    0.83333   0.21355   0.75000   0.00000  Uiso   1.00
Cu718  Cu    0.83333   0.11978   0.75000   0.00000  Uiso   1.00
H719   H     0.78506   0.11983   0.88600   0.00000  Uiso   1.00
H720   H     0.88280   0.29010   0.79573   0.00000  Uiso   1.00
H721   H     0.88272   0.04369   0.79587   0.00000  Uiso   1.00
H722   H     0.78395   0.28964   0.70413   0.00000  Uiso   1.00
H723   H     0.73038   0.09754   0.91855   0.00000  Uiso   1.00
H724   H     0.93629   0.23577   0.58144   0.00000  Uiso   1.00
H725   H     0.88160   0.21351   0.61400   0.00000  Uiso   1.00
H726   H     0.75038   0.09427   0.53827   0.00000  Uiso   1.00
H727   H     0.91628   0.23906   0.96173   0.00000  Uiso   1.00
H728   H     0.70404   0.09091   0.74699   0.00000  Uiso   1.00
H729   H     0.96263   0.24242   0.75301   0.00000  Uiso   1.00
H730   H     0.96276   0.09088   0.74718   0.00000  Uiso   1.00
H731   H     0.70391   0.24245   0.75282   0.00000  Uiso   1.00
H732   H     0.78387   0.04323   0.70427   0.00000  Uiso   1.00
N733   N     0.83333   0.28402   0.75000   0.00000  Uiso   1.00
N734   N     0.83333   0.04931   0.75000   0.00000  Uiso   1.00
O735   O     0.77321   0.20625   0.75000   0.00000  Uiso   1.00
O736   O     0.94478   0.27683   0.52979   0.00000  Uiso   1.00
O737   O     0.89345   0.12709   0.75000   0.00000  Uiso   1.00
O738   O     0.89345   0.20625   0.75001   0.00000  Uiso   1.00
O739   O     0.77321   0.12709   0.75000   0.00000  Uiso   1.00
O740   O     0.83332   0.20627   0.68513   0.00000  Uiso   1.00
O741   O     0.83334   0.12707   0.81487   0.00000  Uiso   1.00
O742   O     0.83334   0.20627   0.81487   0.00000  Uiso   1.00
O743   O     0.83332   0.12707   0.68513   0.00000  Uiso   1.00
O744   O     0.72187   0.05652   0.97022   0.00000  Uiso   1.00
Br745  Br    0.24064   0.55930   0.87481   0.00000  Uiso   1.00
Br746  Br    0.09270   0.44070   0.62519   0.00000  Uiso   1.00
C747   C     0.08736   0.50001   0.74995   0.00000  Uiso   1.00
C748   C     0.04274   0.50002   0.74993   0.00000  Uiso   1.00
C749   C     0.13923   0.35801   0.72458   0.00000  Uiso   1.00
C750   C     0.19411   0.64199   0.77542   0.00000  Uiso   1.00
C751   C     0.19409   0.35826   0.77545   0.00000  Uiso   1.00
C752   C     0.13924   0.64174   0.72455   0.00000  Uiso   1.00
C753   C     0.16561   0.49987   0.66447   0.00000  Uiso   1.00
C754   C     0.16772   0.50013   0.83553   0.00000  Uiso   1.00
C755   C     0.19791   0.52677   0.90724   0.00000  Uiso   1.00
C756   C     0.13543   0.47323   0.59276   0.00000  Uiso   1.00
C757   C     0.16858   0.50043   0.88375   0.00000  Uiso   1.00
C758   C     0.24598   0.49999   0.75005   0.00000  Uiso   1.00
C759   C     0.16475   0.49957   0.61625   0.00000  Uiso   1.00
C760   C     0.13934   0.47378   0.90593   0.00000  Uiso   1.00
C761   C     0.19399   0.52622   0.59407   0.00000  Uiso   1.00
C762   C     0.13723   0.47389   0.95233   0.00000  Uiso   1.00
C763   C     0.19611   0.52611   0.54767   0.00000  Uiso   1.00
C764   C     0.16687   0.50019   0.97658   0.00000  Uiso   1.00
C765   C     0.16646   0.49980   0.52342   0.00000  Uiso   1.00
C766   C     0.19710   0.52675   0.95398   0.00000  Uiso   1.00
C767   C     0.13623   0.47325   0.54602   0.00000  Uiso   1.00
C768   C     0.10678   0.44791   0.97511   0.00000  Uiso   1.00
C769   C     0.10713   0.44764   0.52150   0.00000  Uiso   1.00
C770   C     0.22655   0.55208   0.52489   0.00000  Uiso   1.00
C771   C     0.07332   0.42179   0.95183   0.00000  Uiso   1.00
C772   C     0.26002   0.57821   0.54817   0.00000  Uiso   1.00
C773   C     0.22620   0.55236   0.97850   0.00000  Uiso   1.00
C774   C     0.02132   0.45748   0.74835   0.00000  Uiso   1.00
C775   C     0.31201   0.54252   0.75165   0.00000  Uiso   1.00
C776   C     0.31208   0.45747   0.74845   0.00000  Uiso   1.00
C777   C     0.02125   0.54253   0.75155   0.00000  Uiso   1.00
C778   C     0.29059   0.49998   0.75007   0.00000  Uiso   1.00
Cu779  Cu    0.16667   0.54689   0.75000   0.00000  Uiso   1.00
Cu780  Cu    0.16667   0.45311   0.75000   0.00000  Uiso   1.00
H781   H     0.11840   0.45316   0.88600   0.00000  Uiso   1.00
H782   H     0.21613   0.62343   0.79573   0.00000  Uiso   1.00
H783   H     0.21605   0.37703   0.79587   0.00000  Uiso   1.00
H784   H     0.11728   0.62297   0.70413   0.00000  Uiso   1.00
H785   H     0.06372   0.43088   0.91855   0.00000  Uiso   1.00
H786   H     0.26962   0.56911   0.58144   0.00000  Uiso   1.00
H787   H     0.21494   0.54684   0.61400   0.00000  Uiso   1.00
H788   H     0.08372   0.42760   0.53827   0.00000  Uiso   1.00
H789   H     0.24962   0.57239   0.96173   0.00000  Uiso   1.00
H790   H     0.03737   0.42424   0.74699   0.00000  Uiso   1.00
H791   H     0.29596   0.57576   0.75301   0.00000  Uiso   1.00
H792   H     0.29609   0.42422   0.74718   0.00000  Uiso   1.00
H793   H     0.03724   0.57578   0.75282   0.00000  Uiso   1.00
H794   H     0.11720   0.37657   0.70427   0.00000  Uiso   1.00
N795   N     0.16667   0.61736   0.75000   0.00000  Uiso   1.00
N796   N     0.16667   0.38264   0.75000   0.00000  Uiso   1.00
O797   O     0.10655   0.53958   0.75000   0.00000  Uiso   1.00
O798   O     0.27811   0.61016   0.52979   0.00000  Uiso   1.00
O799   O     0.22679   0.46042   0.75000   0.00000  Uiso   1.00
O800   O     0.22679   0.53958   0.75001   0.00000  Uiso   1.00
O801   O     0.10655   0.46042   0.75000   0.00000  Uiso   1.00
O802   O     0.16666   0.53960   0.68513   0.00000  Uiso   1.00
O803   O     0.16668   0.46040   0.81487   0.00000  Uiso   1.00
O804   O     0.16668   0.53960   0.81487   0.00000  Uiso   1.00
O805   O     0.16666   0.46040   0.68513   0.00000  Uiso   1.00
O806   O     0.05520   0.38985   0.97022   0.00000  Uiso   1.00
Br807  Br    0.57397   0.55930   0.87481   0.00000  Uiso   1.00
Br808  Br    0.42603   0.44070   0.62519   0.00000  Uiso   1.00
C809   C     0.42069   0.50001   0.74995   0.00000  Uiso   1.00
C810   C     0.37608   0.50002   0.74993   0.00000  Uiso   1.00
C811   C     0.47256   0.35801   0.72458   0.00000  Uiso   1.00
C812   C     0.52744   0.64199   0.77542   0.00000  Uiso   1.00
C813   C     0.52743   0.35826   0.77545   0.00000  Uiso   1.00
C814   C     0.47257   0.64174   0.72455   0.00000  Uiso   1.00
C815   C     0.49895   0.49987   0.66447   0.00000  Uiso   1.00
C816   C     0.50105   0.50013   0.83553   0.00000  Uiso   1.00
C817   C     0.53124   0.52677   0.90724   0.00000  Uiso   1.00
C818   C     0.46876   0.47323   0.59276   0.00000  Uiso   1.00
C819   C     0.50191   0.50043   0.88375   0.00000  Uiso   1.00
C820   C     0.57931   0.49999   0.75005   0.00000  Uiso   1.00
C821   C     0.49809   0.49957   0.61625   0.00000  Uiso   1.00
C822   C     0.47268   0.47378   0.90593   0.00000  Uiso   1.00
C823   C     0.52732   0.52622   0.59407   0.00000  Uiso   1.00
C824   C     0.47056   0.47389   0.95233   0.00000  Uiso   1.00
C825   C     0.52944   0.52611   0.54767   0.00000  Uiso   1.00
C826   C     0.50020   0.50019   0.97658   0.00000  Uiso   1.00
C827   C     0.49979   0.49980   0.52342   0.00000  Uiso   1.00
C828   C     0.53044   0.52675   0.95398   0.00000  Uiso   1.00
C829   C     0.46957   0.47325   0.54602   0.00000  Uiso   1.00
C830   C     0.44011   0.44791   0.97511   0.00000  Uiso   1.00
C831   C     0.44047   0.44764   0.52150   0.00000  Uiso   1.00
C832   C     0.55989   0.55208   0.52489   0.00000  Uiso   1.00
C833   C     0.40665   0.42179   0.95183   0.00000  Uiso   1.00
C834   C     0.59335   0.57821   0.54817   0.00000  Uiso   1.00
C835   C     0.55953   0.55236   0.97850   0.00000  Uiso   1.00
C836   C     0.35466   0.45748   0.74835   0.00000  Uiso   1.00
C837   C     0.64534   0.54252   0.75165   0.00000  Uiso   1.00
C838   C     0.64541   0.45747   0.74845   0.00000  Uiso   1.00
C839   C     0.35459   0.54253   0.75155   0.00000  Uiso   1.00
C840   C     0.62392   0.49998   0.75007   0.00000  Uiso   1.00
Cu841  Cu    0.50000   0.54689   0.75000   0.00000  Uiso   1.00
Cu842  Cu    0.50000   0.45311   0.75000   0.00000  Uiso   1.00
H843   H     0.45173   0.45316   0.88600   0.00000  Uiso   1.00
H844   H     0.54946   0.62343   0.79573   0.00000  Uiso   1.00
H845   H     0.54938   0.37703   0.79587   0.00000  Uiso   1.00
H846   H     0.45062   0.62297   0.70413   0.00000  Uiso   1.00
H847   H     0.39705   0.43088   0.91855   0.00000  Uiso   1.00
H848   H     0.60296   0.56911   0.58144   0.00000  Uiso   1.00
H849   H     0.54827   0.54684   0.61400   0.00000  Uiso   1.00
H850   H     0.41705   0.42760   0.53827   0.00000  Uiso   1.00
H851   H     0.58295   0.57239   0.96173   0.00000  Uiso   1.00
H852   H     0.37070   0.42424   0.74699   0.00000  Uiso   1.00
H853   H     0.62929   0.57576   0.75301   0.00000  Uiso   1.00
H854   H     0.62942   0.42422   0.74718   0.00000  Uiso   1.00
H855   H     0.37057   0.57578   0.75282   0.00000  Uiso   1.00
H856   H     0.45054   0.37657   0.70427   0.00000  Uiso   1.00
N857   N     0.50000   0.61736   0.75000   0.00000  Uiso   1.00
N858   N     0.50000   0.38264   0.75000   0.00000  Uiso   1.00
O859   O     0.43988   0.53958   0.75000   0.00000  Uiso   1.00
O860   O     0.61145   0.61016   0.52979   0.00000  Uiso   1.00
O861   O     0.56012   0.46042   0.75000   0.00000  Uiso   1.00
O862   O     0.56012   0.53958   0.75001   0.00000  Uiso   1.00
O863   O     0.43988   0.46042   0.75000   0.00000  Uiso   1.00
O864   O     0.49999   0.53960   0.68513   0.00000  Uiso   1.00
O865   O     0.50001   0.46040   0.81487   0.00000  Uiso   1.00
O866   O     0.50001   0.53960   0.81487   0.00000  Uiso   1.00
O867   O     0.49999   0.46040   0.68513   0.00000  Uiso   1.00
O868   O     0.38853   0.38985   0.97022   0.00000  Uiso   1.00
Br869  Br    0.90730   0.55930   0.87481   0.00000  Uiso   1.00
Br870  Br    0.75936   0.44070   0.62519   0.00000  Uiso   1.00
C871   C     0.75402   0.50001   0.74995   0.00000  Uiso   1.00
C872   C     0.70941   0.50002   0.74993   0.00000  Uiso   1.00
C873   C     0.80589   0.35801   0.72458   0.00000  Uiso   1.00
C874   C     0.86077   0.64199   0.77542   0.00000  Uiso   1.00
C875   C     0.86076   0.35826   0.77545   0.00000  Uiso   1.00
C876   C     0.80591   0.64174   0.72455   0.00000  Uiso   1.00
C877   C     0.83228   0.49987   0.66447   0.00000  Uiso   1.00
C878   C     0.83439   0.50013   0.83553   0.00000  Uiso   1.00
C879   C     0.86457   0.52677   0.90724   0.00000  Uiso   1.00
C880   C     0.80209   0.47323   0.59276   0.00000  Uiso   1.00
C881   C     0.83524   0.50043   0.88375   0.00000  Uiso   1.00
C882   C     0.91264   0.49999   0.75005   0.00000  Uiso   1.00
C883   C     0.83142   0.49957   0.61625   0.00000  Uiso   1.00
C884   C     0.80601   0.47378   0.90593   0.00000  Uiso   1.00
C885   C     0.86066   0.52622   0.59407   0.00000  Uiso   1.00
C886   C     0.80389   0.47389   0.95233   0.00000  Uiso   1.00
C887   C     0.86277   0.52611   0.54767   0.00000  Uiso   1.00
C888   C     0.83354   0.50019   0.97658   0.00000  Uiso   1.00
C889   C     0.83313   0.49980   0.52342   0.00000  Uiso   1.00
C890   C     0.86377   0.52675   0.95398   0.00000  Uiso   1.00
C891   C     0.80290   0.47325   0.54602   0.00000  Uiso   1.00
C892   C     0.77345   0.44791   0.97511   0.00000  Uiso   1.00
C893   C     0.77380   0.44764   0.52150   0.00000  Uiso   1.00
C894   C     0.89322   0.55208   0.52489   0.00000  Uiso   1.00
C895   C     0.73998   0.42179   0.95183   0.00000  Uiso   1.00
C896   C     0.92668   0.57821   0.54817   0.00000  Uiso   1.00
C897   C     0.89287   0.55236   0.97850   0.00000  Uiso   1.00
C898   C     0.68799   0.45748   0.74835   0.00000  Uiso   1.00
C899   C     0.97868   0.54252   0.75165   0.00000  Uiso   1.00
C900   C     0.97875   0.45747   0.74845   0.00000  Uiso   1.00
C901   C     0.68792   0.54253   0.75155   0.00000  Uiso   1.00
C902   C     0.95726   0.49998   0.75007   0.00000  Uiso   1.00
Cu903  Cu    0.83333   0.54689   0.75000   0.00000  Uiso   1.00
Cu904  Cu    0.83333   0.45311   0.75000   0.00000  Uiso   1.00
H905   H     0.78506   0.45316   0.88600   0.00000  Uiso   1.00
H906   H     0.88280   0.62343   0.79573   0.00000  Uiso   1.00
H907   H     0.88272   0.37703   0.79587   0.00000  Uiso   1.00
H908   H     0.78395   0.62297   0.70413   0.00000  Uiso   1.00
H909   H     0.73038   0.43088   0.91855   0.00000  Uiso   1.00
H910   H     0.93629   0.56911   0.58144   0.00000  Uiso   1.00
H911   H     0.88160   0.54684   0.61400   0.00000  Uiso   1.00
H912   H     0.75038   0.42760   0.53827   0.00000  Uiso   1.00
H913   H     0.91628   0.57239   0.96173   0.00000  Uiso   1.00
H914   H     0.70404   0.42424   0.74699   0.00000  Uiso   1.00
H915   H     0.96263   0.57576   0.75301   0.00000  Uiso   1.00
H916   H     0.96276   0.42422   0.74718   0.00000  Uiso   1.00
H917   H     0.70391   0.57578   0.75282   0.00000  Uiso   1.00
H918   H     0.78387   0.37657   0.70427   0.00000  Uiso   1.00
N919   N     0.83333   0.61736   0.75000   0.00000  Uiso   1.00
N920   N     0.83333   0.38264   0.75000   0.00000  Uiso   1.00
O921   O     0.77321   0.53958   0.75000   0.00000  Uiso   1.00
O922   O     0.94478   0.61016   0.52979   0.00000  Uiso   1.00
O923   O     0.89345   0.46042   0.75000   0.00000  Uiso   1.00
O924   O     0.89345   0.53958   0.75001   0.00000  Uiso   1.00
O925   O     0.77321   0.46042   0.75000   0.00000  Uiso   1.00
O926   O     0.83332   0.53960   0.68513   0.00000  Uiso   1.00
O927   O     0.83334   0.46040   0.81487   0.00000  Uiso   1.00
O928   O     0.83334   0.53960   0.81487   0.00000  Uiso   1.00
O929   O     0.83332   0.46040   0.68513   0.00000  Uiso   1.00
O930   O     0.72187   0.38985   0.97022   0.00000  Uiso   1.00
Br931  Br    0.24064   0.89264   0.87481   0.00000  Uiso   1.00
Br932  Br    0.09270   0.77403   0.62519   0.00000  Uiso   1.00
C933   C     0.08736   0.83335   0.74995   0.00000  Uiso   1.00
C934   C     0.04274   0.83335   0.74993   0.00000  Uiso   1.00
C935   C     0.13923   0.69134   0.72458   0.00000  Uiso   1.00
C936   C     0.19411   0.97533   0.77542   0.00000  Uiso   1.00
C937   C     0.19409   0.69159   0.77545   0.00000  Uiso   1.00
C938   C     0.13924   0.97508   0.72455   0.00000  Uiso   1.00
C939   C     0.16561   0.83321   0.66447   0.00000  Uiso   1.00
C940   C     0.16772   0.83346   0.83553   0.00000  Uiso   1.00
C941   C     0.19791   0.86010   0.90724   0.00000  Uiso   1.00
C942   C     0.13543   0.80656   0.59276   0.00000  Uiso   1.00
C943   C     0.16858   0.83376   0.88375   0.00000  Uiso   1.00
C944   C     0.24598   0.83332   0.75005   0.00000  Uiso   1.00
C945   C     0.16475   0.83290   0.61625   0.00000  Uiso   1.00
C946   C     0.13934   0.80711   0.90593   0.00000  Uiso   1.00
C947   C     0.19399   0.85955   0.59407   0.00000  Uiso   1.00
C948   C     0.13723   0.80722   0.95233   0.00000  Uiso   1.00
C949   C     0.19611   0.85944   0.54767   0.00000  Uiso   1.00
C950   C     0.16687   0.83353   0.97658   0.00000  Uiso   1.00
C951   C     0.16646   0.83314   0.52342   0.00000  Uiso   1.00
C952   C     0.19710   0.86008   0.95398   0.00000  Uiso   1.00
C953   C     0.13623   0.80658   0.54602   0.00000  Uiso   1.00
C954   C     0.10678   0.78125   0.97511   0.00000  Uiso   1.00
C955   C     0.10713   0.78097   0.52150   0.00000  Uiso   1.00
C956   C     0.22655   0.88542   0.52489   0.00000  Uiso   1.00
C957   C     0.07332   0.75512   0.95183   0.00000  Uiso   1.00
C958   C     0.26002   0.91154   0.54817   0.00000  Uiso   1.00
C959   C     0.22620   0.88569   0.97850   0.00000  Uiso   1.00
C960   C     0.02132   0.79081   0.74835   0.00000  Uiso   1.00
C961   C     0.31201   0.87585   0.75165   0.00000  Uiso   1.00
C962   C     0.31208   0.79080   0.74845   0.00000  Uiso   1.00
C963   C     0.02125   0.87587   0.75155   0.00000  Uiso   1.00
C964   C     0.29059   0.83332   0.75007   0.00000  Uiso   1.00
Cu965  Cu    0.16667   0.88022   0.75000   0.00000  Uiso   1.00
Cu966  Cu    0.16667   0.78645   0.75000   0.00000  Uiso   1.00
H967   H     0.11840   0.78649   0.88600   0.00000  Uiso   1.00
H968   H     0.21613   0.95677   0.79573   0.00000  Uiso   1.00
H969   H     0.21605   0.71036   0.79587   0.00000  Uiso   1.00
H970   H     0.11728   0.95631   0.70413   0.00000  Uiso   1.00
H971   H     0.06372   0.76421   0.91855   0.00000  Uiso   1.00
H972   H     0.26962   0.90244   0.58144   0.00000  Uiso   1.00
H973   H     0.21494   0.88017   0.61400   0.00000  Uiso   1.00
H974   H     0.08372   0.76094   0.53827   0.00000  Uiso   1.00
H975   H     0.24962   0.90572   0.96173   0.00000  Uiso   1.00
H976   H     0.03737   0.75757   0.74699   0.00000  Uiso   1.00
H977   H     0.29596   0.90909   0.75301   0.00000  Uiso   1.00
H978   H     0.29609   0.75755   0.74718   0.00000  Uiso   1.00
H979   H     0.03724   0.90912   0.75282   0.00000  Uiso   1.00
H980   H     0.11720   0.70990   0.70427   0.00000  Uiso   1.00
N981   N     0.16667   0.95069   0.75000   0.00000  Uiso   1.00
N982   N     0.16667   0.71598   0.75000   0.00000  Uiso   1.00
O983   O     0.10655   0.87291   0.75000   0.00000  Uiso   1.00
O984   O     0.27811   0.94349   0.52979   0.00000  Uiso   1.00
O985   O     0.22679   0.79375   0.75000   0.00000  Uiso   1.00
O986   O     0.22679   0.87291   0.75001   0.00000  Uiso   1.00
O987   O     0.10655   0.79375   0.75000   0.00000  Uiso   1.00
O988   O     0.16666   0.87293   0.68513   0.00000  Uiso   1.00
O989   O     0.16668   0.79373   0.81487   0.00000  Uiso   1.00
O990   O     0.16668   0.87293   0.81487   0.00000  Uiso   1.00
O991   O     0.16666   0.79373   0.68513   0.00000  Uiso   1.00
O992   O     0.05520   0.72319   0.97022   0.00000  Uiso   1.00
Br993  Br    0.57397   0.89264   0.87481   0.00000  Uiso   1.00
Br994  Br    0.42603   0.77403   0.62519   0.00000  Uiso   1.00
C995   C     0.42069   0.83335   0.74995   0.00000  Uiso   1.00
C996   C     0.37608   0.83335   0.74993   0.00000  Uiso   1.00
C997   C     0.47256   0.69134   0.72458   0.00000  Uiso   1.00
C998   C     0.52744   0.97533   0.77542   0.00000  Uiso   1.00
C999   C     0.52743   0.69159   0.77545   0.00000  Uiso   1.00
C1000  C     0.47257   0.97508   0.72455   0.00000  Uiso   1.00
C1001  C     0.49895   0.83321   0.66447   0.00000  Uiso   1.00
C1002  C     0.50105   0.83346   0.83553   0.00000  Uiso   1.00
C1003  C     0.53124   0.86010   0.90724   0.00000  Uiso   1.00
C1004  C     0.46876   0.80656   0.59276   0.00000  Uiso   1.00
C1005  C     0.50191   0.83376   0.88375   0.00000  Uiso   1.00
C1006  C     0.57931   0.83332   0.75005   0.00000  Uiso   1.00
C1007  C     0.49809   0.83290   0.61625   0.00000  Uiso   1.00
C1008  C     0.47268   0.80711   0.90593   0.00000  Uiso   1.00
C1009  C     0.52732   0.85955   0.59407   0.00000  Uiso   1.00
C1010  C     0.47056   0.80722   0.95233   0.00000  Uiso   1.00
C1011  C     0.52944   0.85944   0.54767   0.00000  Uiso   1.00
C1012  C     0.50020   0.83353   0.97658   0.00000  Uiso   1.00
C1013  C     0.49979   0.83314   0.52342   0.00000  Uiso   1.00
C1014  C     0.53044   0.86008   0.95398   0.00000  Uiso   1.00
C1015  C     0.46957   0.80658   0.54602   0.00000  Uiso   1.00
C1016  C     0.44011   0.78125   0.97511   0.00000  Uiso   1.00
C1017  C     0.44047   0.78097   0.52150   0.00000  Uiso   1.00
C1018  C     0.55989   0.88542   0.52489   0.00000  Uiso   1.00
C1019  C     0.40665   0.75512   0.95183   0.00000  Uiso   1.00
C1020  C     0.59335   0.91154   0.54817   0.00000  Uiso   1.00
C1021  C     0.55953   0.88569   0.97850   0.00000  Uiso   1.00
C1022  C     0.35466   0.79081   0.74835   0.00000  Uiso   1.00
C1023  C     0.64534   0.87585   0.75165   0.00000  Uiso   1.00
C1024  C     0.64541   0.79080   0.74845   0.00000  Uiso   1.00
C1025  C     0.35459   0.87587   0.75155   0.00000  Uiso   1.00
C1026  C     0.62392   0.83332   0.75007   0.00000  Uiso   1.00
Cu1027 Cu    0.50000   0.88022   0.75000   0.00000  Uiso   1.00
Cu1028 Cu    0.50000   0.78645   0.75000   0.00000  Uiso   1.00
H1029  H     0.45173   0.78649   0.88600   0.00000  Uiso   1.00
H1030  H     0.54946   0.95677   0.79573   0.00000  Uiso   1.00
H1031  H     0.54938   0.71036   0.79587   0.00000  Uiso   1.00
H1032  H     0.45062   0.95631   0.70413   0.00000  Uiso   1.00
H1033  H     0.39705   0.76421   0.91855   0.00000  Uiso   1.00
H1034  H     0.60296   0.90244   0.58144   0.00000  Uiso   1.00
H1035  H     0.54827   0.88017   0.61400   0.00000  Uiso   1.00
H1036  H     0.41705   0.76094   0.53827   0.00000  Uiso   1.00
H1037  H     0.58295   0.90572   0.96173   0.00000  Uiso   1.00
H1038  H     0.37070   0.75757   0.74699   0.00000  Uiso   1.00
H1039  H     0.62929   0.90909   0.75301   0.00000  Uiso   1.00
H1040  H     0.62942   0.75755   0.74718   0.00000  Uiso   1.00
H1041  H     0.37057   0.90912   0.75282   0.00000  Uiso   1.00
H1042  H     0.45054   0.70990   0.70427   0.00000  Uiso   1.00
N1043  N     0.50000   0.95069   0.75000   0.00000  Uiso   1.00
N1044  N     0.50000   0.71598   0.75000   0.00000  Uiso   1.00
O1045  O     0.43988   0.87291   0.75000   0.00000  Uiso   1.00
O1046  O     0.61145   0.94349   0.52979   0.00000  Uiso   1.00
O1047  O     0.56012   0.79375   0.75000   0.00000  Uiso   1.00
O1048  O     0.56012   0.87291   0.75001   0.00000  Uiso   1.00
O1049  O     0.43988   0.79375   0.75000   0.00000  Uiso   1.00
O1050  O     0.49999   0.87293   0.68513   0.00000  Uiso   1.00
O1051  O     0.50001   0.79373   0.81487   0.00000  Uiso   1.00
O1052  O     0.50001   0.87293   0.81487   0.00000  Uiso   1.00
O1053  O     0.49999   0.79373   0.68513   0.00000  Uiso   1.00
O1054  O     0.38853   0.72319   0.97022   0.00000  Uiso   1.00
Br1055 Br    0.90730   0.89264   0.87481   0.00000  Uiso   1.00
Br1056 Br    0.75936   0.77403   0.62519   0.00000  Uiso   1.00
C1057  C     0.75402   0.83335   0.74995   0.00000  Uiso   1.00
C1058  C     0.70941   0.83335   0.74993   0.00000  Uiso   1.00
C1059  C     0.80589   0.69134   0.72458   0.00000  Uiso   1.00
C1060  C     0.86077   0.97533   0.77542   0.00000  Uiso   1.00
C1061  C     0.86076   0.69159   0.77545   0.00000  Uiso   1.00
C1062  C     0.80591   0.97508   0.72455   0.00000  Uiso   1.00
C1063  C     0.83228   0.83321   0.66447   0.00000  Uiso   1.00
C1064  C     0.83439   0.83346   0.83553   0.00000  Uiso   1.00
C1065  C     0.86457   0.86010   0.90724   0.00000  Uiso   1.00
C1066  C     0.80209   0.80656   0.59276   0.00000  Uiso   1.00
C1067  C     0.83524   0.83376   0.88375   0.00000  Uiso   1.00
C1068  C     0.91264   0.83332   0.75005   0.00000  Uiso   1.00
C1069  C     0.83142   0.83290   0.61625   0.00000  Uiso   1.00
C1070  C     0.80601   0.80711   0.90593   0.00000  Uiso   1.00
C1071  C     0.86066   0.85955   0.59407   0.00000  Uiso   1.00
C1072  C     0.80389   0.80722   0.95233   0.00000  Uiso   1.00
C1073  C     0.86277   0.85944   0.54767   0.00000  Uiso   1.00
C1074  C     0.83354   0.83353   0.97658   0.00000  Uiso   1.00
C1075  C     0.83313   0.83314   0.52342   0.00000  Uiso   1.00
C1076  C     0.86377   0.86008   0.95398   0.00000  Uiso   1.00
C1077  C     0.80290   0.80658   0.54602   0.00000  Uiso   1.00
C1078  C     0.77345   0.78125   0.97511   0.00000  Uiso   1.00
C1079  C     0.77380   0.78097   0.52150   0.00000  Uiso   1.00
C1080  C     0.89322   0.88542   0.52489   0.00000  Uiso   1.00
C1081  C     0.73998   0.75512   0.95183   0.00000  Uiso   1.00
C1082  C     0.92668   0.91154   0.54817   0.00000  Uiso   1.00
C1083  C     0.89287   0.88569   0.97850   0.00000  Uiso   1.00
C1084  C     0.68799   0.79081   0.74835   0.00000  Uiso   1.00
C1085  C     0.97868   0.87585   0.75165   0.00000  Uiso   1.00
C1086  C     0.97875   0.79080   0.74845   0.00000  Uiso   1.00
C1087  C     0.68792   0.87587   0.75155   0.00000  Uiso   1.00
C1088  C     0.95726   0.83332   0.75007   0.00000  Uiso   1.00
Cu1089 Cu    0.83333   0.88022   0.75000   0.00000  Uiso   1.00
Cu1090 Cu    0.83333   0.78645   0.75000   0.00000  Uiso   1.00
H1091  H     0.78506   0.78649   0.88600   0.00000  Uiso   1.00
H1092  H     0.88280   0.95677   0.79573   0.00000  Uiso   1.00
H1093  H     0.88272   0.71036   0.79587   0.00000  Uiso   1.00
H1094  H     0.78395   0.95631   0.70413   0.00000  Uiso   1.00
H1095  H     0.73038   0.76421   0.91855   0.00000  Uiso   1.00
H1096  H     0.93629   0.90244   0.58144   0.00000  Uiso   1.00
H1097  H     0.88160   0.88017   0.61400   0.00000  Uiso   1.00
H1098  H     0.75038   0.76094   0.53827   0.00000  Uiso   1.00
H1099  H     0.91628   0.90572   0.96173   0.00000  Uiso   1.00
H1100  H     0.70404   0.75757   0.74699   0.00000  Uiso   1.00
H1101  H     0.96263   0.90909   0.75301   0.00000  Uiso   1.00
H1102  H     0.96276   0.75755   0.74718   0.00000  Uiso   1.00
H1103  H     0.70391   0.90912   0.75282   0.00000  Uiso   1.00
H1104  H     0.78387   0.70990   0.70427   0.00000  Uiso   1.00
N1105  N     0.83333   0.95069   0.75000   0.00000  Uiso   1.00
N1106  N     0.83333   0.71598   0.75000   0.00000  Uiso   1.00
O1107  O     0.77321   0.87291   0.75000   0.00000  Uiso   1.00
O1108  O     0.94478   0.94349   0.52979   0.00000  Uiso   1.00
O1109  O     0.89345   0.79375   0.75000   0.00000  Uiso   1.00
O1110  O     0.89345   0.87291   0.75001   0.00000  Uiso   1.00
O1111  O     0.77321   0.79375   0.75000   0.00000  Uiso   1.00
O1112  O     0.83332   0.87293   0.68513   0.00000  Uiso   1.00
O1113  O     0.83334   0.79373   0.81487   0.00000  Uiso   1.00
O1114  O     0.83334   0.87293   0.81487   0.00000  Uiso   1.00
O1115  O     0.83332   0.79373   0.68513   0.00000  Uiso   1.00
O1116  O     0.72187   0.72319   0.97022   0.00000  Uiso   1.00
loop_
_geom_bond_atom_site_label_1
_geom_bond_atom_site_label_2
_geom_bond_distance
_geom_bond_site_symmetry_2
_ccdc_geom_bond_type
Br1    C11     1.940   .     S
Br2    C12     1.940   .     S
C3     O53     1.291   .     A
C3     O57     1.291   .     A
C3     C4      1.449   .     S
C4     C33     1.401   .     A
C4     C30     1.401   .     A
C5     N52     1.367   .     A
C5     H50     1.081   .     S
C5     C380    1.417   1_545 S
C6     N51     1.367   .     A
C6     H38     1.081   .     S
C6     C193    1.417   .     S
C7     H39     1.082   .     S
C7     N52     1.367   .     A
C7     C378    1.417   1_545 S
C8     N51     1.367   .     A
C8     H40     1.082   .     S
C8     C191    1.417   .     S
C9     C15     1.453   .     S
C9     O61     1.291   .     A
C9     O58     1.292   .     A
C10    O60     1.291   .     A
C10    O59     1.292   .     A
C10    C13     1.453   .     S
C11    C22     1.408   .     A
C11    C13     1.403   .     A
C12    C15     1.403   .     A
C12    C23     1.408   .     A
C13    C16     1.392   .     A
C14    C34     1.449   .     S
C14    O56     1.291   .     A
C14    O55     1.291   .     A
C15    C17     1.392   .     A
C16    H37     1.080   .     S
C16    C18     1.399   .     A
C17    H43     1.080   .     S
C17    C19     1.399   .     A
C18    C24     1.417   .     A
C18    C20     1.421   .     A
C19    C26     1.417   .     A
C19    C21     1.421   .     A
C20    C22     1.419   .     A
C20    C579    1.411   .     S
C21    C23     1.419   .     A
C21    C578    1.411   1_554 S
C22    C29     1.402   .     A
C23    C25     1.402   .     A
C24    C27     1.491   .     S
C24    C583    1.397   .     S
C25    H44     1.080   .     S
C25    C582    1.397   1_554 S
C26    C28     1.491   .     S
C26    C587    1.397   1_554 S
C27    O62     1.222   .     D
C27    H41     1.082   .     S
C28    H42     1.082   .     S
C28    O54     1.222   .     D
C29    H45     1.080   .     S
C29    C584    1.397   .     S
C30    H46     1.083   .     S
C30    C156    1.383   1_455 S
C31    C34     1.401   .     A
C31    H47     1.083   .     S
C31    C95     1.383   .     S
C32    C34     1.401   .     A
C32    H48     1.083   .     S
C32    C92     1.383   .     S
C33    H49     1.083   .     S
C33    C155    1.383   1_455 S
Cu35   O53     1.965   .     S
Cu35   Cu36    2.678   .     S
Cu35   O58     1.964   .     S
Cu35   N51     2.013   .     S
Cu35   O56     1.964   .     S
Cu35   O60     1.966   .     S
Cu36   N52     2.013   .     S
Cu36   O59     1.964   .     S
Cu36   O55     1.965   .     S
Cu36   O57     1.964   .     S
Cu36   O61     1.966   .     S
Br63   C73     1.940   .     S
Br64   C74     1.940   .     S
C65    O115    1.291   .     A
C65    O119    1.291   .     A
C65    C66     1.449   .     S
C66    C95     1.401   .     A
C66    C92     1.401   .     A
C67    N114    1.367   .     A
C67    H112    1.081   .     S
C67    C442    1.417   1_545 S
C68    N113    1.367   .     A
C68    H100    1.081   .     S
C68    C255    1.417   .     S
C69    H101    1.082   .     S
C69    N114    1.367   .     A
C69    C440    1.417   1_545 S
C70    N113    1.367   .     A
C70    H102    1.082   .     S
C70    C253    1.417   .     S
C71    C77     1.453   .     S
C71    O123    1.291   .     A
C71    O120    1.292   .     A
C72    O122    1.291   .     A
C72    O121    1.292   .     A
C72    C75     1.453   .     S
C73    C84     1.408   .     A
C73    C75     1.403   .     A
C74    C77     1.403   .     A
C74    C85     1.408   .     A
C75    C78     1.392   .     A
C76    C96     1.449   .     S
C76    O118    1.291   .     A
C76    O117    1.291   .     A
C77    C79     1.392   .     A
C78    H99     1.080   .     S
C78    C80     1.399   .     A
C79    H105    1.080   .     S
C79    C81     1.399   .     A
C80    C86     1.417   .     A
C80    C82     1.421   .     A
C81    C88     1.417   .     A
C81    C83     1.421   .     A
C82    C84     1.419   .     A
C82    C641    1.411   .     S
C83    C85     1.419   .     A
C83    C640    1.411   1_554 S
C84    C91     1.402   .     A
C85    C87     1.402   .     A
C86    C89     1.491   .     S
C86    C645    1.397   .     S
C87    H106    1.080   .     S
C87    C644    1.397   1_554 S
C88    C90     1.491   .     S
C88    C649    1.397   1_554 S
C89    O124    1.222   .     D
C89    H103    1.082   .     S
C90    H104    1.082   .     S
C90    O116    1.222   .     D
C91    H107    1.080   .     S
C91    C646    1.397   .     S
C92    H108    1.083   .     S
C93    C96     1.401   .     A
C93    H109    1.083   .     S
C93    C157    1.383   .     S
C94    C96     1.401   .     A
C94    H110    1.083   .     S
C94    C154    1.383   .     S
C95    H111    1.083   .     S
Cu97   O115    1.965   .     S
Cu97   Cu98    2.678   .     S
Cu97   O120    1.964   .     S
Cu97   N113    2.013   .     S
Cu97   O118    1.964   .     S
Cu97   O122    1.966   .     S
Cu98   N114    2.013   .     S
Cu98   O121    1.964   .     S
Cu98   O117    1.965   .     S
Cu98   O119    1.964   .     S
Cu98   O123    1.966   .     S
Br125  C135    1.940   .     S
Br126  C136    1.940   .     S
C127   O177    1.291   .     A
C127   O181    1.291   .     A
C127   C128    1.449   .     S
C128   C157    1.401   .     A
C128   C154    1.401   .     A
C129   N176    1.367   .     A
C129   H174    1.081   .     S
C129   C504    1.417   1_545 S
C130   N175    1.367   .     A
C130   H162    1.081   .     S
C130   C317    1.417   .     S
C131   H163    1.082   .     S
C131   N176    1.367   .     A
C131   C502    1.417   1_545 S
C132   N175    1.367   .     A
C132   H164    1.082   .     S
C132   C315    1.417   .     S
C133   C139    1.453   .     S
C133   O185    1.291   .     A
C133   O182    1.292   .     A
C134   O184    1.291   .     A
C134   O183    1.292   .     A
C134   C137    1.453   .     S
C135   C146    1.408   .     A
C135   C137    1.403   .     A
C136   C139    1.403   .     A
C136   C147    1.408   .     A
C137   C140    1.392   .     A
C138   C158    1.449   .     S
C138   O180    1.291   .     A
C138   O179    1.291   .     A
C139   C141    1.392   .     A
C140   H161    1.080   .     S
C140   C142    1.399   .     A
C141   H167    1.080   .     S
C141   C143    1.399   .     A
C142   C148    1.417   .     A
C142   C144    1.421   .     A
C143   C150    1.417   .     A
C143   C145    1.421   .     A
C144   C146    1.419   .     A
C144   C703    1.411   .     S
C145   C147    1.419   .     A
C145   C702    1.411   1_554 S
C146   C153    1.402   .     A
C147   C149    1.402   .     A
C148   C151    1.491   .     S
C148   C707    1.397   .     S
C149   H168    1.080   .     S
C149   C706    1.397   1_554 S
C150   C152    1.491   .     S
C150   C711    1.397   1_554 S
C151   O186    1.222   .     D
C151   H165    1.082   .     S
C152   H166    1.082   .     S
C152   O178    1.222   .     D
C153   H169    1.080   .     S
C153   C708    1.397   .     S
C154   H170    1.083   .     S
C155   C158    1.401   .     A
C155   H171    1.083   .     S
C155   C33     1.383   1_655 S
C156   C158    1.401   .     A
C156   H172    1.083   .     S
C156   C30     1.383   1_655 S
C157   H173    1.083   .     S
Cu159  O177    1.965   .     S
Cu159  Cu160   2.678   .     S
Cu159  O182    1.964   .     S
Cu159  N175    2.013   .     S
Cu159  O180    1.964   .     S
Cu159  O184    1.966   .     S
Cu160  N176    2.013   .     S
Cu160  O183    1.964   .     S
Cu160  O179    1.965   .     S
Cu160  O181    1.964   .     S
Cu160  O185    1.966   .     S
Br187  C197    1.940   .     S
Br188  C198    1.940   .     S
C189   O239    1.291   .     A
C189   O243    1.291   .     A
C189   C190    1.449   .     S
C190   C219    1.401   .     A
C190   C216    1.401   .     A
C191   N238    1.367   .     A
C191   H236    1.081   .     S
C192   N237    1.367   .     A
C192   H224    1.081   .     S
C192   C379    1.417   .     S
C193   H225    1.082   .     S
C193   N238    1.367   .     A
C194   N237    1.367   .     A
C194   H226    1.082   .     S
C194   C377    1.417   .     S
C195   C201    1.453   .     S
C195   O247    1.291   .     A
C195   O244    1.292   .     A
C196   O246    1.291   .     A
C196   O245    1.292   .     A
C196   C199    1.453   .     S
C197   C208    1.408   .     A
C197   C199    1.403   .     A
C198   C201    1.403   .     A
C198   C209    1.408   .     A
C199   C202    1.392   .     A
C200   C220    1.449   .     S
C200   O242    1.291   .     A
C200   O241    1.291   .     A
C201   C203    1.392   .     A
C202   H223    1.080   .     S
C202   C204    1.399   .     A
C203   H229    1.080   .     S
C203   C205    1.399   .     A
C204   C210    1.417   .     A
C204   C206    1.421   .     A
C205   C212    1.417   .     A
C205   C207    1.421   .     A
C206   C208    1.419   .     A
C206   C765    1.411   .     S
C207   C209    1.419   .     A
C207   C764    1.411   1_554 S
C208   C215    1.402   .     A
C209   C211    1.402   .     A
C210   C213    1.491   .     S
C210   C769    1.397   .     S
C211   H230    1.080   .     S
C211   C768    1.397   1_554 S
C212   C214    1.491   .     S
C212   C773    1.397   1_554 S
C213   O248    1.222   .     D
C213   H227    1.082   .     S
C214   H228    1.082   .     S
C214   O240    1.222   .     D
C215   H231    1.080   .     S
C215   C770    1.397   .     S
C216   H232    1.083   .     S
C216   C342    1.383   1_455 S
C217   C220    1.401   .     A
C217   H233    1.083   .     S
C217   C281    1.383   .     S
C218   C220    1.401   .     A
C218   H234    1.083   .     S
C218   C278    1.383   .     S
C219   H235    1.083   .     S
C219   C341    1.383   1_455 S
Cu221  O239    1.965   .     S
Cu221  Cu222   2.678   .     S
Cu221  O244    1.964   .     S
Cu221  N237    2.013   .     S
Cu221  O242    1.964   .     S
Cu221  O246    1.966   .     S
Cu222  N238    2.013   .     S
Cu222  O245    1.964   .     S
Cu222  O241    1.965   .     S
Cu222  O243    1.964   .     S
Cu222  O247    1.966   .     S
Br249  C259    1.940   .     S
Br250  C260    1.940   .     S
C251   O301    1.291   .     A
C251   O305    1.291   .     A
C251   C252    1.449   .     S
C252   C281    1.401   .     A
C252   C278    1.401   .     A
C253   N300    1.367   .     A
C253   H298    1.081   .     S
C254   N299    1.367   .     A
C254   H286    1.081   .     S
C254   C441    1.417   .     S
C255   H287    1.082   .     S
C255   N300    1.367   .     A
C256   N299    1.367   .     A
C256   H288    1.082   .     S
C256   C439    1.417   .     S
C257   C263    1.453   .     S
C257   O309    1.291   .     A
C257   O306    1.292   .     A
C258   O308    1.291   .     A
C258   O307    1.292   .     A
C258   C261    1.453   .     S
C259   C270    1.408   .     A
C259   C261    1.403   .     A
C260   C263    1.403   .     A
C260   C271    1.408   .     A
C261   C264    1.392   .     A
C262   C282    1.449   .     S
C262   O304    1.291   .     A
C262   O303    1.291   .     A
C263   C265    1.392   .     A
C264   H285    1.080   .     S
C264   C266    1.399   .     A
C265   H291    1.080   .     S
C265   C267    1.399   .     A
C266   C272    1.417   .     A
C266   C268    1.421   .     A
C267   C274    1.417   .     A
C267   C269    1.421   .     A
C268   C270    1.419   .     A
C268   C827    1.411   .     S
C269   C271    1.419   .     A
C269   C826    1.411   1_554 S
C270   C277    1.402   .     A
C271   C273    1.402   .     A
C272   C275    1.491   .     S
C272   C831    1.397   .     S
C273   H292    1.080   .     S
C273   C830    1.397   1_554 S
C274   C276    1.491   .     S
C274   C835    1.397   1_554 S
C275   O310    1.222   .     D
C275   H289    1.082   .     S
C276   H290    1.082   .     S
C276   O302    1.222   .     D
C277   H293    1.080   .     S
C277   C832    1.397   .     S
C278   H294    1.083   .     S
C279   C282    1.401   .     A
C279   H295    1.083   .     S
C279   C343    1.383   .     S
C280   C282    1.401   .     A
C280   H296    1.083   .     S
C280   C340    1.383   .     S
C281   H297    1.083   .     S
Cu283  O301    1.965   .     S
Cu283  Cu284   2.678   .     S
Cu283  O306    1.964   .     S
Cu283  N299    2.013   .     S
Cu283  O304    1.964   .     S
Cu283  O308    1.966   .     S
Cu284  N300    2.013   .     S
Cu284  O307    1.964   .     S
Cu284  O303    1.965   .     S
Cu284  O305    1.964   .     S
Cu284  O309    1.966   .     S
Br311  C321    1.940   .     S
Br312  C322    1.940   .     S
C313   O363    1.291   .     A
C313   O367    1.291   .     A
C313   C314    1.449   .     S
C314   C343    1.401   .     A
C314   C340    1.401   .     A
C315   N362    1.367   .     A
C315   H360    1.081   .     S
C316   N361    1.367   .     A
C316   H348    1.081   .     S
C316   C503    1.417   .     S
C317   H349    1.082   .     S
C317   N362    1.367   .     A
C318   N361    1.367   .     A
C318   H350    1.082   .     S
C318   C501    1.417   .     S
C319   C325    1.453   .     S
C319   O371    1.291   .     A
C319   O368    1.292   .     A
C320   O370    1.291   .     A
C320   O369    1.292   .     A
C320   C323    1.453   .     S
C321   C332    1.408   .     A
C321   C323    1.403   .     A
C322   C325    1.403   .     A
C322   C333    1.408   .     A
C323   C326    1.392   .     A
C324   C344    1.449   .     S
C324   O366    1.291   .     A
C324   O365    1.291   .     A
C325   C327    1.392   .     A
C326   H347    1.080   .     S
C326   C328    1.399   .     A
C327   H353    1.080   .     S
C327   C329    1.399   .     A
C328   C334    1.417   .     A
C328   C330    1.421   .     A
C329   C336    1.417   .     A
C329   C331    1.421   .     A
C330   C332    1.419   .     A
C330   C889    1.411   .     S
C331   C333    1.419   .     A
C331   C888    1.411   1_554 S
C332   C339    1.402   .     A
C333   C335    1.402   .     A
C334   C337    1.491   .     S
C334   C893    1.397   .     S
C335   H354    1.080   .     S
C335   C892    1.397   1_554 S
C336   C338    1.491   .     S
C336   C897    1.397   1_554 S
C337   O372    1.222   .     D
C337   H351    1.082   .     S
C338   H352    1.082   .     S
C338   O364    1.222   .     D
C339   H355    1.080   .     S
C339   C894    1.397   .     S
C340   H356    1.083   .     S
C341   C344    1.401   .     A
C341   H357    1.083   .     S
C341   C219    1.383   1_655 S
C342   C344    1.401   .     A
C342   H358    1.083   .     S
C342   C216    1.383   1_655 S
C343   H359    1.083   .     S
Cu345  O363    1.965   .     S
Cu345  Cu346   2.678   .     S
Cu345  O368    1.964   .     S
Cu345  N361    2.013   .     S
Cu345  O366    1.964   .     S
Cu345  O370    1.966   .     S
Cu346  N362    2.013   .     S
Cu346  O369    1.964   .     S
Cu346  O365    1.965   .     S
Cu346  O367    1.964   .     S
Cu346  O371    1.966   .     S
Br373  C383    1.940   .     S
Br374  C384    1.940   .     S
C375   O425    1.291   .     A
C375   O429    1.291   .     A
C375   C376    1.449   .     S
C376   C405    1.401   .     A
C376   C402    1.401   .     A
C377   N424    1.367   .     A
C377   H422    1.081   .     S
C378   N423    1.367   .     A
C378   H410    1.081   .     S
C378   C7      1.417   1_565 S
C379   H411    1.082   .     S
C379   N424    1.367   .     A
C380   N423    1.367   .     A
C380   H412    1.082   .     S
C380   C5      1.417   1_565 S
C381   C387    1.453   .     S
C381   O433    1.291   .     A
C381   O430    1.292   .     A
C382   O432    1.291   .     A
C382   O431    1.292   .     A
C382   C385    1.453   .     S
C383   C394    1.408   .     A
C383   C385    1.403   .     A
C384   C387    1.403   .     A
C384   C395    1.408   .     A
C385   C388    1.392   .     A
C386   C406    1.449   .     S
C386   O428    1.291   .     A
C386   O427    1.291   .     A
C387   C389    1.392   .     A
C388   H409    1.080   .     S
C388   C390    1.399   .     A
C389   H415    1.080   .     S
C389   C391    1.399   .     A
C390   C396    1.417   .     A
C390   C392    1.421   .     A
C391   C398    1.417   .     A
C391   C393    1.421   .     A
C392   C394    1.419   .     A
C392   C951    1.411   .     S
C393   C395    1.419   .     A
C393   C950    1.411   1_554 S
C394   C401    1.402   .     A
C395   C397    1.402   .     A
C396   C399    1.491   .     S
C396   C955    1.397   .     S
C397   H416    1.080   .     S
C397   C954    1.397   1_554 S
C398   C400    1.491   .     S
C398   C959    1.397   1_554 S
C399   O434    1.222   .     D
C399   H413    1.082   .     S
C400   H414    1.082   .     S
C400   O426    1.222   .     D
C401   H417    1.080   .     S
C401   C956    1.397   .     S
C402   H418    1.083   .     S
C402   C528    1.383   1_455 S
C403   C406    1.401   .     A
C403   H419    1.083   .     S
C403   C467    1.383   .     S
C404   C406    1.401   .     A
C404   H420    1.083   .     S
C404   C464    1.383   .     S
C405   H421    1.083   .     S
C405   C527    1.383   1_455 S
Cu407  O425    1.965   .     S
Cu407  Cu408   2.678   .     S
Cu407  O430    1.964   .     S
Cu407  N423    2.013   .     S
Cu407  O428    1.964   .     S
Cu407  O432    1.966   .     S
Cu408  N424    2.013   .     S
Cu408  O431    1.964   .     S
Cu408  O427    1.965   .     S
Cu408  O429    1.964   .     S
Cu408  O433    1.966   .     S
Br435  C445    1.940   .     S
Br436  C446    1.940   .     S
C437   O487    1.291   .     A
C437   O491    1.291   .     A
C437   C438    1.449   .     S
C438   C467    1.401   .     A
C438   C464    1.401   .     A
C439   N486    1.367   .     A
C439   H484    1.081   .     S
C440   N485    1.367   .     A
C440   H472    1.081   .     S
C440   C69     1.417   1_565 S
C441   H473    1.082   .     S
C441   N486    1.367   .     A
C442   N485    1.367   .     A
C442   H474    1.082   .     S
C442   C67     1.417   1_565 S
C443   C449    1.453   .     S
C443   O495    1.291   .     A
C443   O492    1.292   .     A
C444   O494    1.291   .     A
C444   O493    1.292   .     A
C444   C447    1.453   .     S
C445   C456    1.408   .     A
C445   C447    1.403   .     A
C446   C449    1.403   .     A
C446   C457    1.408   .     A
C447   C450    1.392   .     A
C448   C468    1.449   .     S
C448   O490    1.291   .     A
C448   O489    1.291   .     A
C449   C451    1.392   .     A
C450   H471    1.080   .     S
C450   C452    1.399   .     A
C451   H477    1.080   .     S
C451   C453    1.399   .     A
C452   C458    1.417   .     A
C452   C454    1.421   .     A
C453   C460    1.417   .     A
C453   C455    1.421   .     A
C454   C456    1.419   .     A
C454   C1013   1.411   .     S
C455   C457    1.419   .     A
C455   C1012   1.411   1_554 S
C456   C463    1.402   .     A
C457   C459    1.402   .     A
C458   C461    1.491   .     S
C458   C1017   1.397   .     S
C459   H478    1.080   .     S
C459   C1016   1.397   1_554 S
C460   C462    1.491   .     S
C460   C1021   1.397   1_554 S
C461   O496    1.222   .     D
C461   H475    1.082   .     S
C462   H476    1.082   .     S
C462   O488    1.222   .     D
C463   H479    1.080   .     S
C463   C1018   1.397   .     S
C464   H480    1.083   .     S
C465   C468    1.401   .     A
C465   H481    1.083   .     S
C465   C529    1.383   .     S
C466   C468    1.401   .     A
C466   H482    1.083   .     S
C466   C526    1.383   .     S
C467   H483    1.083   .     S
Cu469  O487    1.965   .     S
Cu469  Cu470   2.678   .     S
Cu469  O492    1.964   .     S
Cu469  N485    2.013   .     S
Cu469  O490    1.964   .     S
Cu469  O494    1.966   .     S
Cu470  N486    2.013   .     S
Cu470  O493    1.964   .     S
Cu470  O489    1.965   .     S
Cu470  O491    1.964   .     S
Cu470  O495    1.966   .     S
Br497  C507    1.940   .     S
Br498  C508    1.940   .     S
C499   O549    1.291   .     A
C499   O553    1.291   .     A
C499   C500    1.449   .     S
C500   C529    1.401   .     A
C500   C526    1.401   .     A
C501   N548    1.367   .     A
C501   H546    1.081   .     S
C502   N547    1.367   .     A
C502   H534    1.081   .     S
C502   C131    1.417   1_565 S
C503   H535    1.082   .     S
C503   N548    1.367   .     A
C504   N547    1.367   .     A
C504   H536    1.082   .     S
C504   C129    1.417   1_565 S
C505   C511    1.453   .     S
C505   O557    1.291   .     A
C505   O554    1.292   .     A
C506   O556    1.291   .     A
C506   O555    1.292   .     A
C506   C509    1.453   .     S
C507   C518    1.408   .     A
C507   C509    1.403   .     A
C508   C511    1.403   .     A
C508   C519    1.408   .     A
C509   C512    1.392   .     A
C510   C530    1.449   .     S
C510   O552    1.291   .     A
C510   O551    1.291   .     A
C511   C513    1.392   .     A
C512   H533    1.080   .     S
C512   C514    1.399   .     A
C513   H539    1.080   .     S
C513   C515    1.399   .     A
C514   C520    1.417   .     A
C514   C516    1.421   .     A
C515   C522    1.417   .     A
C515   C517    1.421   .     A
C516   C518    1.419   .     A
C516   C1075   1.411   .     S
C517   C519    1.419   .     A
C517   C1074   1.411   1_554 S
C518   C525    1.402   .     A
C519   C521    1.402   .     A
C520   C523    1.491   .     S
C520   C1079   1.397   .     S
C521   H540    1.080   .     S
C521   C1078   1.397   1_554 S
C522   C524    1.491   .     S
C522   C1083   1.397   1_554 S
C523   O558    1.222   .     D
C523   H537    1.082   .     S
C524   H538    1.082   .     S
C524   O550    1.222   .     D
C525   H541    1.080   .     S
C525   C1080   1.397   .     S
C526   H542    1.083   .     S
C527   C530    1.401   .     A
C527   H543    1.083   .     S
C527   C405    1.383   1_655 S
C528   C530    1.401   .     A
C528   H544    1.083   .     S
C528   C402    1.383   1_655 S
C529   H545    1.083   .     S
Cu531  O549    1.965   .     S
Cu531  Cu532   2.678   .     S
Cu531  O554    1.964   .     S
Cu531  N547    2.013   .     S
Cu531  O552    1.964   .     S
Cu531  O556    1.966   .     S
Cu532  N548    2.013   .     S
Cu532  O555    1.964   .     S
Cu532  O551    1.965   .     S
Cu532  O553    1.964   .     S
Cu532  O557    1.966   .     S
Br559  C569    1.940   .     S
Br560  C570    1.940   .     S
C561   O611    1.291   .     A
C561   O615    1.291   .     A
C561   C562    1.449   .     S
C562   C591    1.401   .     A
C562   C588    1.401   .     A
C563   N610    1.367   .     A
C563   H608    1.081   .     S
C563   C938    1.417   1_545 S
C564   N609    1.367   .     A
C564   H596    1.081   .     S
C564   C751    1.417   .     S
C565   H597    1.082   .     S
C565   N610    1.367   .     A
C565   C936    1.417   1_545 S
C566   N609    1.367   .     A
C566   H598    1.082   .     S
C566   C749    1.417   .     S
C567   C573    1.453   .     S
C567   O619    1.291   .     A
C567   O616    1.292   .     A
C568   O618    1.291   .     A
C568   O617    1.292   .     A
C568   C571    1.453   .     S
C569   C580    1.408   .     A
C569   C571    1.403   .     A
C570   C573    1.403   .     A
C570   C581    1.408   .     A
C571   C574    1.392   .     A
C572   C592    1.449   .     S
C572   O614    1.291   .     A
C572   O613    1.291   .     A
C573   C575    1.392   .     A
C574   H595    1.080   .     S
C574   C576    1.399   .     A
C575   H601    1.080   .     S
C575   C577    1.399   .     A
C576   C582    1.417   .     A
C576   C578    1.421   .     A
C577   C584    1.417   .     A
C577   C579    1.421   .     A
C578   C580    1.419   .     A
C578   C21     1.411   1_556 S
C579   C581    1.419   .     A
C580   C587    1.402   .     A
C581   C583    1.402   .     A
C582   C585    1.491   .     S
C582   C25     1.397   1_556 S
C583   H602    1.080   .     S
C584   C586    1.491   .     S
C585   O620    1.222   .     D
C585   H599    1.082   .     S
C586   H600    1.082   .     S
C586   O612    1.222   .     D
C587   H603    1.080   .     S
C587   C26     1.397   1_556 S
C588   H604    1.083   .     S
C588   C714    1.383   1_455 S
C589   C592    1.401   .     A
C589   H605    1.083   .     S
C589   C653    1.383   .     S
C590   C592    1.401   .     A
C590   H606    1.083   .     S
C590   C650    1.383   .     S
C591   H607    1.083   .     S
C591   C713    1.383   1_455 S
Cu593  O611    1.965   .     S
Cu593  Cu594   2.678   .     S
Cu593  O616    1.964   .     S
Cu593  N609    2.013   .     S
Cu593  O614    1.964   .     S
Cu593  O618    1.966   .     S
Cu594  N610    2.013   .     S
Cu594  O617    1.964   .     S
Cu594  O613    1.965   .     S
Cu594  O615    1.964   .     S
Cu594  O619    1.966   .     S
Br621  C631    1.940   .     S
Br622  C632    1.940   .     S
C623   O673    1.291   .     A
C623   O677    1.291   .     A
C623   C624    1.449   .     S
C624   C653    1.401   .     A
C624   C650    1.401   .     A
C625   N672    1.367   .     A
C625   H670    1.081   .     S
C625   C1000   1.417   1_545 S
C626   N671    1.367   .     A
C626   H658    1.081   .     S
C626   C813    1.417   .     S
C627   H659    1.082   .     S
C627   N672    1.367   .     A
C627   C998    1.417   1_545 S
C628   N671    1.367   .     A
C628   H660    1.082   .     S
C628   C811    1.417   .     S
C629   C635    1.453   .     S
C629   O681    1.291   .     A
C629   O678    1.292   .     A
C630   O680    1.291   .     A
C630   O679    1.292   .     A
C630   C633    1.453   .     S
C631   C642    1.408   .     A
C631   C633    1.403   .     A
C632   C635    1.403   .     A
C632   C643    1.408   .     A
C633   C636    1.392   .     A
C634   C654    1.449   .     S
C634   O676    1.291   .     A
C634   O675    1.291   .     A
C635   C637    1.392   .     A
C636   H657    1.080   .     S
C636   C638    1.399   .     A
C637   H663    1.080   .     S
C637   C639    1.399   .     A
C638   C644    1.417   .     A
C638   C640    1.421   .     A
C639   C646    1.417   .     A
C639   C641    1.421   .     A
C640   C642    1.419   .     A
C640   C83     1.411   1_556 S
C641   C643    1.419   .     A
C642   C649    1.402   .     A
C643   C645    1.402   .     A
C644   C647    1.491   .     S
C644   C87     1.397   1_556 S
C645   H664    1.080   .     S
C646   C648    1.491   .     S
C647   O682    1.222   .     D
C647   H661    1.082   .     S
C648   H662    1.082   .     S
C648   O674    1.222   .     D
C649   H665    1.080   .     S
C649   C88     1.397   1_556 S
C650   H666    1.083   .     S
C651   C654    1.401   .     A
C651   H667    1.083   .     S
C651   C715    1.383   .     S
C652   C654    1.401   .     A
C652   H668    1.083   .     S
C652   C712    1.383   .     S
C653   H669    1.083   .     S
Cu655  O673    1.965   .     S
Cu655  Cu656   2.678   .     S
Cu655  O678    1.964   .     S
Cu655  N671    2.013   .     S
Cu655  O676    1.964   .     S
Cu655  O680    1.966   .     S
Cu656  N672    2.013   .     S
Cu656  O679    1.964   .     S
Cu656  O675    1.965   .     S
Cu656  O677    1.964   .     S
Cu656  O681    1.966   .     S
Br683  C693    1.940   .     S
Br684  C694    1.940   .     S
C685   O735    1.291   .     A
C685   O739    1.291   .     A
C685   C686    1.449   .     S
C686   C715    1.401   .     A
C686   C712    1.401   .     A
C687   N734    1.367   .     A
C687   H732    1.081   .     S
C687   C1062   1.417   1_545 S
C688   N733    1.367   .     A
C688   H720    1.081   .     S
C688   C875    1.417   .     S
C689   H721    1.082   .     S
C689   N734    1.367   .     A
C689   C1060   1.417   1_545 S
C690   N733    1.367   .     A
C690   H722    1.082   .     S
C690   C873    1.417   .     S
C691   C697    1.453   .     S
C691   O743    1.291   .     A
C691   O740    1.292   .     A
C692   O742    1.291   .     A
C692   O741    1.292   .     A
C692   C695    1.453   .     S
C693   C704    1.408   .     A
C693   C695    1.403   .     A
C694   C697    1.403   .     A
C694   C705    1.408   .     A
C695   C698    1.392   .     A
C696   C716    1.449   .     S
C696   O738    1.291   .     A
C696   O737    1.291   .     A
C697   C699    1.392   .     A
C698   H719    1.080   .     S
C698   C700    1.399   .     A
C699   H725    1.080   .     S
C699   C701    1.399   .     A
C700   C706    1.417   .     A
C700   C702    1.421   .     A
C701   C708    1.417   .     A
C701   C703    1.421   .     A
C702   C704    1.419   .     A
C702   C145    1.411   1_556 S
C703   C705    1.419   .     A
C704   C711    1.402   .     A
C705   C707    1.402   .     A
C706   C709    1.491   .     S
C706   C149    1.397   1_556 S
C707   H726    1.080   .     S
C708   C710    1.491   .     S
C709   O744    1.222   .     D
C709   H723    1.082   .     S
C710   H724    1.082   .     S
C710   O736    1.222   .     D
C711   H727    1.080   .     S
C711   C150    1.397   1_556 S
C712   H728    1.083   .     S
C713   C716    1.401   .     A
C713   H729    1.083   .     S
C713   C591    1.383   1_655 S
C714   C716    1.401   .     A
C714   H730    1.083   .     S
C714   C588    1.383   1_655 S
C715   H731    1.083   .     S
Cu717  O735    1.965   .     S
Cu717  Cu718   2.678   .     S
Cu717  O740    1.964   .     S
Cu717  N733    2.013   .     S
Cu717  O738    1.964   .     S
Cu717  O742    1.966   .     S
Cu718  N734    2.013   .     S
Cu718  O741    1.964   .     S
Cu718  O737    1.965   .     S
Cu718  O739    1.964   .     S
Cu718  O743    1.966   .     S
Br745  C755    1.940   .     S
Br746  C756    1.940   .     S
C747   O797    1.291   .     A
C747   O801    1.291   .     A
C747   C748    1.449   .     S
C748   C777    1.401   .     A
C748   C774    1.401   .     A
C749   N796    1.367   .     A
C749   H794    1.081   .     S
C750   N795    1.367   .     A
C750   H782    1.081   .     S
C750   C937    1.417   .     S
C751   H783    1.082   .     S
C751   N796    1.367   .     A
C752   N795    1.367   .     A
C752   H784    1.082   .     S
C752   C935    1.417   .     S
C753   C759    1.453   .     S
C753   O805    1.291   .     A
C753   O802    1.292   .     A
C754   O804    1.291   .     A
C754   O803    1.292   .     A
C754   C757    1.453   .     S
C755   C766    1.408   .     A
C755   C757    1.403   .     A
C756   C759    1.403   .     A
C756   C767    1.408   .     A
C757   C760    1.392   .     A
C758   C778    1.449   .     S
C758   O800    1.291   .     A
C758   O799    1.291   .     A
C759   C761    1.392   .     A
C760   H781    1.080   .     S
C760   C762    1.399   .     A
C761   H787    1.080   .     S
C761   C763    1.399   .     A
C762   C768    1.417   .     A
C762   C764    1.421   .     A
C763   C770    1.417   .     A
C763   C765    1.421   .     A
C764   C766    1.419   .     A
C764   C207    1.411   1_556 S
C765   C767    1.419   .     A
C766   C773    1.402   .     A
C767   C769    1.402   .     A
C768   C771    1.491   .     S
C768   C211    1.397   1_556 S
C769   H788    1.080   .     S
C770   C772    1.491   .     S
C771   O806    1.222   .     D
C771   H785    1.082   .     S
C772   H786    1.082   .     S
C772   O798    1.222   .     D
C773   H789    1.080   .     S
C773   C212    1.397   1_556 S
C774   H790    1.083   .     S
C774   C900    1.383   1_455 S
C775   C778    1.401   .     A
C775   H791    1.083   .     S
C775   C839    1.383   .     S
C776   C778    1.401   .     A
C776   H792    1.083   .     S
C776   C836    1.383   .     S
C777   H793    1.083   .     S
C777   C899    1.383   1_455 S
Cu779  O797    1.965   .     S
Cu779  Cu780   2.678   .     S
Cu779  O802    1.964   .     S
Cu779  N795    2.013   .     S
Cu779  O800    1.964   .     S
Cu779  O804    1.966   .     S
Cu780  N796    2.013   .     S
Cu780  O803    1.964   .     S
Cu780  O799    1.965   .     S
Cu780  O801    1.964   .     S
Cu780  O805    1.966   .     S
Br807  C817    1.940   .     S
Br808  C818    1.940   .     S
C809   O859    1.291   .     A
C809   O863    1.291   .     A
C809   C810    1.449   .     S
C810   C839    1.401   .     A
C810   C836    1.401   .     A
C811   N858    1.367   .     A
C811   H856    1.081   .     S
C812   N857    1.367   .     A
C812   H844    1.081   .     S
C812   C999    1.417   .     S
C813   H845    1.082   .     S
C813   N858    1.367   .     A
C814   N857    1.367   .     A
C814   H846    1.082   .     S
C814   C997    1.417   .     S
C815   C821    1.453   .     S
C815   O867    1.291   .     A
C815   O864    1.292   .     A
C816   O866    1.291   .     A
C816   O865    1.292   .     A
C816   C819    1.453   .     S
C817   C828    1.408   .     A
C817   C819    1.403   .     A
C818   C821    1.403   .     A
C818   C829    1.408   .     A
C819   C822    1.392   .     A
C820   C840    1.449   .     S
C820   O862    1.291   .     A
C820   O861    1.291   .     A
C821   C823    1.392   .     A
C822   H843    1.080   .     S
C822   C824    1.399   .     A
C823   H849    1.080   .     S
C823   C825    1.399   .     A
C824   C830    1.417   .     A
C824   C826    1.421   .     A
C825   C832    1.417   .     A
C825   C827    1.421   .     A
C826   C828    1.419   .     A
C826   C269    1.411   1_556 S
C827   C829    1.419   .     A
C828   C835    1.402   .     A
C829   C831    1.402   .     A
C830   C833    1.491   .     S
C830   C273    1.397   1_556 S
C831   H850    1.080   .     S
C832   C834    1.491   .     S
C833   O868    1.222   .     D
C833   H847    1.082   .     S
C834   H848    1.082   .     S
C834   O860    1.222   .     D
C835   H851    1.080   .     S
C835   C274    1.397   1_556 S
C836   H852    1.083   .     S
C837   C840    1.401   .     A
C837   H853    1.083   .     S
C837   C901    1.383   .     S
C838   C840    1.401   .     A
C838   H854    1.083   .     S
C838   C898    1.383   .     S
C839   H855    1.083   .     S
Cu841  O859    1.965   .     S
Cu841  Cu842   2.678   .     S
Cu841  O864    1.964   .     S
Cu841  N857    2.013   .     S
Cu841  O862    1.964   .     S
Cu841  O866    1.966   .     S
Cu842  N858    2.013   .     S
Cu842  O865    1.964   .     S
Cu842  O861    1.965   .     S
Cu842  O863    1.964   .     S
Cu842  O867    1.966   .     S
Br869  C879    1.940   .     S
Br870  C880    1.940   .     S
C871   O921    1.291   .     A
C871   O925    1.291   .     A
C871   C872    1.449   .     S
C872   C901    1.401   .     A
C872   C898    1.401   .     A
C873   N920    1.367   .     A
C873   H918    1.081   .     S
C874   N919    1.367   .     A
C874   H906    1.081   .     S
C874   C1061   1.417   .     S
C875   H907    1.082   .     S
C875   N920    1.367   .     A
C876   N919    1.367   .     A
C876   H908    1.082   .     S
C876   C1059   1.417   .     S
C877   C883    1.453   .     S
C877   O929    1.291   .     A
C877   O926    1.292   .     A
C878   O928    1.291   .     A
C878   O927    1.292   .     A
C878   C881    1.453   .     S
C879   C890    1.408   .     A
C879   C881    1.403   .     A
C880   C883    1.403   .     A
C880   C891    1.408   .     A
C881   C884    1.392   .     A
C882   C902    1.449   .     S
C882   O924    1.291   .     A
C882   O923    1.291   .     A
C883   C885    1.392   .     A
C884   H905    1.080   .     S
C884   C886    1.399   .     A
C885   H911    1.080   .     S
C885   C887    1.399   .     A
C886   C892    1.417   .     A
C886   C888    1.421   .     A
C887   C894    1.417   .     A
C887   C889    1.421   .     A
C888   C890    1.419   .     A
C888   C331    1.411   1_556 S
C889   C891    1.419   .     A
C890   C897    1.402   .     A
C891   C893    1.402   .     A
C892   C895    1.491   .     S
C892   C335    1.397   1_556 S
C893   H912    1.080   .     S
C894   C896    1.491   .     S
C895   O930    1.222   .     D
C895   H909    1.082   .     S
C896   H910    1.082   .     S
C896   O922    1.222   .     D
C897   H913    1.080   .     S
C897   C336    1.397   1_556 S
C898   H914    1.083   .     S
C899   C902    1.401   .     A
C899   H915    1.083   .     S
C899   C777    1.383   1_655 S
C900   C902    1.401   .     A
C900   H916    1.083   .     S
C900   C774    1.383   1_655 S
C901   H917    1.083   .     S
Cu903  O921    1.965   .     S
Cu903  Cu904   2.678   .     S
Cu903  O926    1.964   .     S
Cu903  N919    2.013   .     S
Cu903  O924    1.964   .     S
Cu903  O928    1.966   .     S
Cu904  N920    2.013   .     S
Cu904  O927    1.964   .     S
Cu904  O923    1.965   .     S
Cu904  O925    1.964   .     S
Cu904  O929    1.966   .     S
Br931  C941    1.940   .     S
Br932  C942    1.940   .     S
C933   O983    1.291   .     A
C933   O987    1.291   .     A
C933   C934    1.449   .     S
C934   C963    1.401   .     A
C934   C960    1.401   .     A
C935   N982    1.367   .     A
C935   H980    1.081   .     S
C936   N981    1.367   .     A
C936   H968    1.081   .     S
C936   C565    1.417   1_565 S
C937   H969    1.082   .     S
C937   N982    1.367   .     A
C938   N981    1.367   .     A
C938   H970    1.082   .     S
C938   C563    1.417   1_565 S
C939   C945    1.453   .     S
C939   O991    1.291   .     A
C939   O988    1.292   .     A
C940   O990    1.291   .     A
C940   O989    1.292   .     A
C940   C943    1.453   .     S
C941   C952    1.408   .     A
C941   C943    1.403   .     A
C942   C945    1.403   .     A
C942   C953    1.408   .     A
C943   C946    1.392   .     A
C944   C964    1.449   .     S
C944   O986    1.291   .     A
C944   O985    1.291   .     A
C945   C947    1.392   .     A
C946   H967    1.080   .     S
C946   C948    1.399   .     A
C947   H973    1.080   .     S
C947   C949    1.399   .     A
C948   C954    1.417   .     A
C948   C950    1.421   .     A
C949   C956    1.417   .     A
C949   C951    1.421   .     A
C950   C952    1.419   .     A
C950   C393    1.411   1_556 S
C951   C953    1.419   .     A
C952   C959    1.402   .     A
C953   C955    1.402   .     A
C954   C957    1.491   .     S
C954   C397    1.397   1_556 S
C955   H974    1.080   .     S
C956   C958    1.491   .     S
C957   O992    1.222   .     D
C957   H971    1.082   .     S
C958   H972    1.082   .     S
C958   O984    1.222   .     D
C959   H975    1.080   .     S
C959   C398    1.397   1_556 S
C960   H976    1.083   .     S
C960   C1086   1.383   1_455 S
C961   C964    1.401   .     A
C961   H977    1.083   .     S
C961   C1025   1.383   .     S
C962   C964    1.401   .     A
C962   H978    1.083   .     S
C962   C1022   1.383   .     S
C963   H979    1.083   .     S
C963   C1085   1.383   1_455 S
Cu965  O983    1.965   .     S
Cu965  Cu966   2.678   .     S
Cu965  O988    1.964   .     S
Cu965  N981    2.013   .     S
Cu965  O986    1.964   .     S
Cu965  O990    1.966   .     S
Cu966  N982    2.013   .     S
Cu966  O989    1.964   .     S
Cu966  O985    1.965   .     S
Cu966  O987    1.964   .     S
Cu966  O991    1.966   .     S
Br993  C1003   1.940   .     S
Br994  C1004   1.940   .     S
C995   O1045   1.291   .     A
C995   O1049   1.291   .     A
C995   C996    1.449   .     S
C996   C1025   1.401   .     A
C996   C1022   1.401   .     A
C997   N1044   1.367   .     A
C997   H1042   1.081   .     S
C998   N1043   1.367   .     A
C998   H1030   1.081   .     S
C998   C627    1.417   1_565 S
C999   H1031   1.082   .     S
C999   N1044   1.367   .     A
C1000  N1043   1.367   .     A
C1000  H1032   1.082   .     S
C1000  C625    1.417   1_565 S
C1001  C1007   1.453   .     S
C1001  O1053   1.291   .     A
C1001  O1050   1.292   .     A
C1002  O1052   1.291   .     A
C1002  O1051   1.292   .     A
C1002  C1005   1.453   .     S
C1003  C1014   1.408   .     A
C1003  C1005   1.403   .     A
C1004  C1007   1.403   .     A
C1004  C1015   1.408   .     A
C1005  C1008   1.392   .     A
C1006  C1026   1.449   .     S
C1006  O1048   1.291   .     A
C1006  O1047   1.291   .     A
C1007  C1009   1.392   .     A
C1008  H1029   1.080   .     S
C1008  C1010   1.399   .     A
C1009  H1035   1.080   .     S
C1009  C1011   1.399   .     A
C1010  C1016   1.417   .     A
C1010  C1012   1.421   .     A
C1011  C1018   1.417   .     A
C1011  C1013   1.421   .     A
C1012  C1014   1.419   .     A
C1012  C455    1.411   1_556 S
C1013  C1015   1.419   .     A
C1014  C1021   1.402   .     A
C1015  C1017   1.402   .     A
C1016  C1019   1.491   .     S
C1016  C459    1.397   1_556 S
C1017  H1036   1.080   .     S
C1018  C1020   1.491   .     S
C1019  O1054   1.222   .     D
C1019  H1033   1.082   .     S
C1020  H1034   1.082   .     S
C1020  O1046   1.222   .     D
C1021  H1037   1.080   .     S
C1021  C460    1.397   1_556 S
C1022  H1038   1.083   .     S
C1023  C1026   1.401   .     A
C1023  H1039   1.083   .     S
C1023  C1087   1.383   .     S
C1024  C1026   1.401   .     A
C1024  H1040   1.083   .     S
C1024  C1084   1.383   .     S
C1025  H1041   1.083   .     S
Cu1027 O1045   1.965   .     S
Cu1027 Cu1028  2.678   .     S
Cu1027 O1050   1.964   .     S
Cu1027 N1043   2.013   .     S
Cu1027 O1048   1.964   .     S
Cu1027 O1052   1.966   .     S
Cu1028 N1044   2.013   .     S
Cu1028 O1051   1.964   .     S
Cu1028 O1047   1.965   .     S
Cu1028 O1049   1.964   .     S
Cu1028 O1053   1.966   .     S
Br1055 C1065   1.940   .     S
Br1056 C1066   1.940   .     S
C1057  O1107   1.291   .     A
C1057  O1111   1.291   .     A
C1057  C1058   1.449   .     S
C1058  C1087   1.401   .     A
C1058  C1084   1.401   .     A
C1059  N1106   1.367   .     A
C1059  H1104   1.081   .     S
C1060  N1105   1.367   .     A
C1060  H1092   1.081   .     S
C1060  C689    1.417   1_565 S
C1061  H1093   1.082   .     S
C1061  N1106   1.367   .     A
C1062  N1105   1.367   .     A
C1062  H1094   1.082   .     S
C1062  C687    1.417   1_565 S
C1063  C1069   1.453   .     S
C1063  O1115   1.291   .     A
C1063  O1112   1.292   .     A
C1064  O1114   1.291   .     A
C1064  O1113   1.292   .     A
C1064  C1067   1.453   .     S
C1065  C1076   1.408   .     A
C1065  C1067   1.403   .     A
C1066  C1069   1.403   .     A
C1066  C1077   1.408   .     A
C1067  C1070   1.392   .     A
C1068  C1088   1.449   .     S
C1068  O1110   1.291   .     A
C1068  O1109   1.291   .     A
C1069  C1071   1.392   .     A
C1070  H1091   1.080   .     S
C1070  C1072   1.399   .     A
C1071  H1097   1.080   .     S
C1071  C1073   1.399   .     A
C1072  C1078   1.417   .     A
C1072  C1074   1.421   .     A
C1073  C1080   1.417   .     A
C1073  C1075   1.421   .     A
C1074  C1076   1.419   .     A
C1074  C517    1.411   1_556 S
C1075  C1077   1.419   .     A
C1076  C1083   1.402   .     A
C1077  C1079   1.402   .     A
C1078  C1081   1.491   .     S
C1078  C521    1.397   1_556 S
C1079  H1098   1.080   .     S
C1080  C1082   1.491   .     S
C1081  O1116   1.222   .     D
C1081  H1095   1.082   .     S
C1082  H1096   1.082   .     S
C1082  O1108   1.222   .     D
C1083  H1099   1.080   .     S
C1083  C522    1.397   1_556 S
C1084  H1100   1.083   .     S
C1085  C1088   1.401   .     A
C1085  H1101   1.083   .     S
C1085  C963    1.383   1_655 S
C1086  C1088   1.401   .     A
C1086  H1102   1.083   .     S
C1086  C960    1.383   1_655 S
C1087  H1103   1.083   .     S
Cu1089 O1107   1.965   .     S
Cu1089 Cu1090  2.678   .     S
Cu1089 O1112   1.964   .     S
Cu1089 N1105   2.013   .     S
Cu1089 O1110   1.964   .     S
Cu1089 O1114   1.966   .     S
Cu1090 N1106   2.013   .     S
Cu1090 O1113   1.964   .     S
Cu1090 O1109   1.965   .     S
Cu1090 O1111   1.964   .     S
Cu1090 O1115   1.966   .     S
