data_str_m2_o1_o17_pcu_sym.100
_audit_creation_date              2020-01-03
_audit_creation_method            'Materials Studio'
_symmetry_space_group_name_H-M    'P1'
_symmetry_Int_Tables_number       1
_symmetry_cell_setting            triclinic
loop_
_symmetry_equiv_pos_as_xyz
  x,y,z
_cell_length_a                    32.4373
_cell_length_b                    28.8787
_cell_length_c                    29.9959
_cell_angle_alpha                 89.9877
_cell_angle_beta                  92.2002
_cell_angle_gamma                 89.9763
loop_
_atom_site_label
_atom_site_type_symbol
_atom_site_fract_x
_atom_site_fract_y
_atom_site_fract_z
_atom_site_U_iso_or_equiv
_atom_site_adp_type
_atom_site_occupancy
C1     C     0.08746   0.16667   0.24975   0.00000  Uiso   1.00
C2     C     0.24587   0.16666   0.25025   0.00000  Uiso   1.00
C3     C     0.09141   0.16479   0.02141   0.00000  Uiso   1.00
C4     C     0.24181   0.17198   0.47860   0.00000  Uiso   1.00
C5     C     0.02132   0.12460   0.24991   0.00000  Uiso   1.00
C6     C     0.31201   0.20874   0.25007   0.00000  Uiso   1.00
C7     C     0.31205   0.12459   0.25007   0.00000  Uiso   1.00
C8     C     0.02129   0.20875   0.24991   0.00000  Uiso   1.00
C9     C     0.29055   0.16666   0.25022   0.00000  Uiso   1.00
C10    C     0.04279   0.16668   0.24976   0.00000  Uiso   1.00
C11    C     0.14065   0.02468   0.22150   0.00000  Uiso   1.00
C12    C     0.19269   0.30865   0.27851   0.00000  Uiso   1.00
C13    C     0.19269   0.02465   0.27850   0.00000  Uiso   1.00
C14    C     0.14065   0.30868   0.22149   0.00000  Uiso   1.00
C15    C     0.16710   0.16668   0.16467   0.00000  Uiso   1.00
C16    C     0.16624   0.16667   0.33533   0.00000  Uiso   1.00
C17    C     0.20284   0.16874   0.40751   0.00000  Uiso   1.00
C18    C     0.13049   0.16499   0.09249   0.00000  Uiso   1.00
C19    C     0.16537   0.16675   0.38345   0.00000  Uiso   1.00
C20    C     0.16797   0.16680   0.11655   0.00000  Uiso   1.00
C21    C     0.12777   0.16537   0.40499   0.00000  Uiso   1.00
C22    C     0.20552   0.16922   0.09501   0.00000  Uiso   1.00
C23    C     0.12808   0.16582   0.45193   0.00000  Uiso   1.00
C24    C     0.20518   0.16955   0.04807   0.00000  Uiso   1.00
C25    C     0.16631   0.16796   0.47650   0.00000  Uiso   1.00
C26    C     0.16694   0.16797   0.02350   0.00000  Uiso   1.00
C27    C     0.20391   0.16977   0.45406   0.00000  Uiso   1.00
C28    C     0.12935   0.16608   0.04593   0.00000  Uiso   1.00
C29    C     0.09115   0.16424   0.47486   0.00000  Uiso   1.00
C30    C     0.24209   0.17141   0.02515   0.00000  Uiso   1.00
Cu31   Cu    0.16667   0.21355   0.25000   0.00000  Uiso   1.00
Cu32   Cu    0.16667   0.11978   0.25000   0.00000  Uiso   1.00
H33    H     0.23113   0.16934   0.38940   0.00000  Uiso   1.00
H34    H     0.10226   0.16279   0.11059   0.00000  Uiso   1.00
H35    H     0.06154   0.16298   0.45709   0.00000  Uiso   1.00
H36    H     0.27168   0.17281   0.04293   0.00000  Uiso   1.00
H37    H     0.03732   0.09168   0.24997   0.00000  Uiso   1.00
H38    H     0.29601   0.24166   0.25001   0.00000  Uiso   1.00
H39    H     0.29607   0.09167   0.25001   0.00000  Uiso   1.00
H40    H     0.03726   0.24167   0.24996   0.00000  Uiso   1.00
N41    N     0.16667   0.28402   0.25000   0.00000  Uiso   1.00
N42    N     0.16667   0.04931   0.25000   0.00000  Uiso   1.00
O43    O     0.10655   0.20625   0.24999   0.00000  Uiso   1.00
O44    O     0.22679   0.12709   0.25000   0.00000  Uiso   1.00
O45    O     0.22679   0.20625   0.25000   0.00000  Uiso   1.00
O46    O     0.10655   0.12709   0.24999   0.00000  Uiso   1.00
O47    O     0.16666   0.20627   0.18513   0.00000  Uiso   1.00
O48    O     0.16668   0.12707   0.31487   0.00000  Uiso   1.00
O49    O     0.16668   0.20627   0.31487   0.00000  Uiso   1.00
O50    O     0.16666   0.12707   0.18513   0.00000  Uiso   1.00
Br51   Br    0.07674   0.16294   0.36947   0.00000  Uiso   1.00
Br52   Br    0.25654   0.17178   0.13054   0.00000  Uiso   1.00
N53    N     0.05323   0.16353   0.04332   0.00000  Uiso   1.00
H54    H     0.03096   0.14361   0.02705   0.00000  Uiso   1.00
C55    C     0.03767   0.20867   0.05510   0.00000  Uiso   1.00
H56    H     0.00916   0.20456   0.07404   0.00000  Uiso   1.00
H57    H     0.03029   0.22921   0.02449   0.00000  Uiso   1.00
H58    H     0.06072   0.22768   0.07645   0.00000  Uiso   1.00
N59    N     0.27999   0.17409   0.45673   0.00000  Uiso   1.00
H60    H     0.30360   0.15630   0.47316   0.00000  Uiso   1.00
C61    C     0.29232   0.22044   0.44471   0.00000  Uiso   1.00
H62    H     0.32128   0.21883   0.42620   0.00000  Uiso   1.00
H63    H     0.29782   0.24178   0.47519   0.00000  Uiso   1.00
H64    H     0.26817   0.23716   0.42293   0.00000  Uiso   1.00
Br65   Br    0.10310   0.05614   0.18032   0.00000  Uiso   1.00
Br66   Br    0.23022   0.27719   0.31972   0.00000  Uiso   1.00
Br67   Br    0.23023   0.05607   0.31967   0.00000  Uiso   1.00
Br68   Br    0.10312   0.27726   0.18029   0.00000  Uiso   1.00
C69    C     0.42079   0.16667   0.24975   0.00000  Uiso   1.00
C70    C     0.57921   0.16666   0.25025   0.00000  Uiso   1.00
C71    C     0.42474   0.16479   0.02141   0.00000  Uiso   1.00
C72    C     0.57515   0.17198   0.47860   0.00000  Uiso   1.00
C73    C     0.35465   0.12460   0.24991   0.00000  Uiso   1.00
C74    C     0.64535   0.20874   0.25007   0.00000  Uiso   1.00
C75    C     0.64538   0.12459   0.25007   0.00000  Uiso   1.00
C76    C     0.35462   0.20875   0.24991   0.00000  Uiso   1.00
C77    C     0.62388   0.16666   0.25022   0.00000  Uiso   1.00
C78    C     0.37612   0.16668   0.24976   0.00000  Uiso   1.00
C79    C     0.47398   0.02468   0.22150   0.00000  Uiso   1.00
C80    C     0.52602   0.30865   0.27851   0.00000  Uiso   1.00
C81    C     0.52602   0.02465   0.27850   0.00000  Uiso   1.00
C82    C     0.47398   0.30868   0.22149   0.00000  Uiso   1.00
C83    C     0.50043   0.16668   0.16467   0.00000  Uiso   1.00
C84    C     0.49957   0.16667   0.33533   0.00000  Uiso   1.00
C85    C     0.53617   0.16874   0.40751   0.00000  Uiso   1.00
C86    C     0.46383   0.16499   0.09249   0.00000  Uiso   1.00
C87    C     0.49870   0.16675   0.38345   0.00000  Uiso   1.00
C88    C     0.50130   0.16680   0.11655   0.00000  Uiso   1.00
C89    C     0.46111   0.16537   0.40499   0.00000  Uiso   1.00
C90    C     0.53885   0.16922   0.09501   0.00000  Uiso   1.00
C91    C     0.46142   0.16582   0.45193   0.00000  Uiso   1.00
C92    C     0.53851   0.16955   0.04807   0.00000  Uiso   1.00
C93    C     0.49964   0.16796   0.47650   0.00000  Uiso   1.00
C94    C     0.50027   0.16797   0.02350   0.00000  Uiso   1.00
C95    C     0.53724   0.16977   0.45406   0.00000  Uiso   1.00
C96    C     0.46268   0.16608   0.04593   0.00000  Uiso   1.00
C97    C     0.42449   0.16424   0.47486   0.00000  Uiso   1.00
C98    C     0.57542   0.17141   0.02515   0.00000  Uiso   1.00
Cu99   Cu    0.50000   0.21355   0.25000   0.00000  Uiso   1.00
Cu100  Cu    0.50000   0.11978   0.25000   0.00000  Uiso   1.00
H101   H     0.56446   0.16934   0.38940   0.00000  Uiso   1.00
H102   H     0.43559   0.16279   0.11059   0.00000  Uiso   1.00
H103   H     0.39488   0.16298   0.45709   0.00000  Uiso   1.00
H104   H     0.60501   0.17281   0.04293   0.00000  Uiso   1.00
H105   H     0.37066   0.09168   0.24997   0.00000  Uiso   1.00
H106   H     0.62934   0.24166   0.25001   0.00000  Uiso   1.00
H107   H     0.62941   0.09167   0.25001   0.00000  Uiso   1.00
H108   H     0.37059   0.24167   0.24996   0.00000  Uiso   1.00
N109   N     0.50000   0.28402   0.25000   0.00000  Uiso   1.00
N110   N     0.50000   0.04931   0.25000   0.00000  Uiso   1.00
O111   O     0.43988   0.20625   0.24999   0.00000  Uiso   1.00
O112   O     0.56012   0.12709   0.25000   0.00000  Uiso   1.00
O113   O     0.56012   0.20625   0.25000   0.00000  Uiso   1.00
O114   O     0.43988   0.12709   0.24999   0.00000  Uiso   1.00
O115   O     0.49999   0.20627   0.18513   0.00000  Uiso   1.00
O116   O     0.50001   0.12707   0.31487   0.00000  Uiso   1.00
O117   O     0.50001   0.20627   0.31487   0.00000  Uiso   1.00
O118   O     0.49999   0.12707   0.18513   0.00000  Uiso   1.00
Br119  Br    0.41008   0.16294   0.36947   0.00000  Uiso   1.00
Br120  Br    0.58987   0.17178   0.13054   0.00000  Uiso   1.00
N121   N     0.38657   0.16353   0.04332   0.00000  Uiso   1.00
H122   H     0.36429   0.14361   0.02705   0.00000  Uiso   1.00
C123   C     0.37100   0.20867   0.05510   0.00000  Uiso   1.00
H124   H     0.34249   0.20456   0.07404   0.00000  Uiso   1.00
H125   H     0.36362   0.22921   0.02449   0.00000  Uiso   1.00
H126   H     0.39405   0.22768   0.07645   0.00000  Uiso   1.00
N127   N     0.61332   0.17409   0.45673   0.00000  Uiso   1.00
H128   H     0.63693   0.15630   0.47316   0.00000  Uiso   1.00
C129   C     0.62565   0.22044   0.44471   0.00000  Uiso   1.00
H130   H     0.65462   0.21883   0.42620   0.00000  Uiso   1.00
H131   H     0.63115   0.24178   0.47519   0.00000  Uiso   1.00
H132   H     0.60150   0.23716   0.42293   0.00000  Uiso   1.00
Br133  Br    0.43644   0.05614   0.18032   0.00000  Uiso   1.00
Br134  Br    0.56355   0.27719   0.31972   0.00000  Uiso   1.00
Br135  Br    0.56356   0.05607   0.31967   0.00000  Uiso   1.00
Br136  Br    0.43646   0.27726   0.18029   0.00000  Uiso   1.00
C137   C     0.75413   0.16667   0.24975   0.00000  Uiso   1.00
C138   C     0.91254   0.16666   0.25025   0.00000  Uiso   1.00
C139   C     0.75808   0.16479   0.02141   0.00000  Uiso   1.00
C140   C     0.90848   0.17198   0.47860   0.00000  Uiso   1.00
C141   C     0.68799   0.12460   0.24991   0.00000  Uiso   1.00
C142   C     0.97868   0.20874   0.25007   0.00000  Uiso   1.00
C143   C     0.97871   0.12459   0.25007   0.00000  Uiso   1.00
C144   C     0.68795   0.20875   0.24991   0.00000  Uiso   1.00
C145   C     0.95721   0.16666   0.25022   0.00000  Uiso   1.00
C146   C     0.70945   0.16668   0.24976   0.00000  Uiso   1.00
C147   C     0.80731   0.02468   0.22150   0.00000  Uiso   1.00
C148   C     0.85935   0.30865   0.27851   0.00000  Uiso   1.00
C149   C     0.85935   0.02465   0.27850   0.00000  Uiso   1.00
C150   C     0.80732   0.30868   0.22149   0.00000  Uiso   1.00
C151   C     0.83377   0.16668   0.16467   0.00000  Uiso   1.00
C152   C     0.83291   0.16667   0.33533   0.00000  Uiso   1.00
C153   C     0.86951   0.16874   0.40751   0.00000  Uiso   1.00
C154   C     0.79716   0.16499   0.09249   0.00000  Uiso   1.00
C155   C     0.83203   0.16675   0.38345   0.00000  Uiso   1.00
C156   C     0.83463   0.16680   0.11655   0.00000  Uiso   1.00
C157   C     0.79444   0.16537   0.40499   0.00000  Uiso   1.00
C158   C     0.87218   0.16922   0.09501   0.00000  Uiso   1.00
C159   C     0.79475   0.16582   0.45193   0.00000  Uiso   1.00
C160   C     0.87185   0.16955   0.04807   0.00000  Uiso   1.00
C161   C     0.83297   0.16796   0.47650   0.00000  Uiso   1.00
C162   C     0.83361   0.16797   0.02350   0.00000  Uiso   1.00
C163   C     0.87058   0.16977   0.45406   0.00000  Uiso   1.00
C164   C     0.79601   0.16608   0.04593   0.00000  Uiso   1.00
C165   C     0.75782   0.16424   0.47486   0.00000  Uiso   1.00
C166   C     0.90876   0.17141   0.02515   0.00000  Uiso   1.00
Cu167  Cu    0.83333   0.21355   0.25000   0.00000  Uiso   1.00
Cu168  Cu    0.83333   0.11978   0.25000   0.00000  Uiso   1.00
H169   H     0.89780   0.16934   0.38940   0.00000  Uiso   1.00
H170   H     0.76893   0.16279   0.11059   0.00000  Uiso   1.00
H171   H     0.72821   0.16298   0.45709   0.00000  Uiso   1.00
H172   H     0.93834   0.17281   0.04293   0.00000  Uiso   1.00
H173   H     0.70399   0.09168   0.24997   0.00000  Uiso   1.00
H174   H     0.96268   0.24166   0.25001   0.00000  Uiso   1.00
H175   H     0.96274   0.09167   0.25001   0.00000  Uiso   1.00
H176   H     0.70393   0.24167   0.24996   0.00000  Uiso   1.00
N177   N     0.83333   0.28402   0.25000   0.00000  Uiso   1.00
N178   N     0.83333   0.04931   0.25000   0.00000  Uiso   1.00
O179   O     0.77321   0.20625   0.24999   0.00000  Uiso   1.00
O180   O     0.89345   0.12709   0.25000   0.00000  Uiso   1.00
O181   O     0.89345   0.20625   0.25000   0.00000  Uiso   1.00
O182   O     0.77321   0.12709   0.24999   0.00000  Uiso   1.00
O183   O     0.83332   0.20627   0.18513   0.00000  Uiso   1.00
O184   O     0.83334   0.12707   0.31487   0.00000  Uiso   1.00
O185   O     0.83334   0.20627   0.31487   0.00000  Uiso   1.00
O186   O     0.83332   0.12707   0.18513   0.00000  Uiso   1.00
Br187  Br    0.74341   0.16294   0.36947   0.00000  Uiso   1.00
Br188  Br    0.92320   0.17178   0.13054   0.00000  Uiso   1.00
N189   N     0.71990   0.16353   0.04332   0.00000  Uiso   1.00
H190   H     0.69763   0.14361   0.02705   0.00000  Uiso   1.00
C191   C     0.70434   0.20867   0.05510   0.00000  Uiso   1.00
H192   H     0.67583   0.20456   0.07404   0.00000  Uiso   1.00
H193   H     0.69696   0.22921   0.02449   0.00000  Uiso   1.00
H194   H     0.72738   0.22768   0.07645   0.00000  Uiso   1.00
N195   N     0.94666   0.17409   0.45673   0.00000  Uiso   1.00
H196   H     0.97027   0.15630   0.47316   0.00000  Uiso   1.00
C197   C     0.95898   0.22044   0.44471   0.00000  Uiso   1.00
H198   H     0.98795   0.21883   0.42620   0.00000  Uiso   1.00
H199   H     0.96449   0.24178   0.47519   0.00000  Uiso   1.00
H200   H     0.93484   0.23716   0.42293   0.00000  Uiso   1.00
Br201  Br    0.76977   0.05614   0.18032   0.00000  Uiso   1.00
Br202  Br    0.89688   0.27719   0.31972   0.00000  Uiso   1.00
Br203  Br    0.89690   0.05607   0.31967   0.00000  Uiso   1.00
Br204  Br    0.76979   0.27726   0.18029   0.00000  Uiso   1.00
C205   C     0.08746   0.50001   0.24975   0.00000  Uiso   1.00
C206   C     0.24587   0.49999   0.25025   0.00000  Uiso   1.00
C207   C     0.09141   0.49812   0.02141   0.00000  Uiso   1.00
C208   C     0.24181   0.50531   0.47860   0.00000  Uiso   1.00
C209   C     0.02132   0.45793   0.24991   0.00000  Uiso   1.00
C210   C     0.31201   0.54207   0.25007   0.00000  Uiso   1.00
C211   C     0.31205   0.45793   0.25007   0.00000  Uiso   1.00
C212   C     0.02129   0.54208   0.24991   0.00000  Uiso   1.00
C213   C     0.29055   0.50000   0.25022   0.00000  Uiso   1.00
C214   C     0.04279   0.50001   0.24976   0.00000  Uiso   1.00
C215   C     0.14065   0.35802   0.22150   0.00000  Uiso   1.00
C216   C     0.19269   0.64198   0.27851   0.00000  Uiso   1.00
C217   C     0.19269   0.35798   0.27850   0.00000  Uiso   1.00
C218   C     0.14065   0.64201   0.22149   0.00000  Uiso   1.00
C219   C     0.16710   0.50001   0.16467   0.00000  Uiso   1.00
C220   C     0.16624   0.50000   0.33533   0.00000  Uiso   1.00
C221   C     0.20284   0.50207   0.40751   0.00000  Uiso   1.00
C222   C     0.13049   0.49833   0.09249   0.00000  Uiso   1.00
C223   C     0.16537   0.50008   0.38345   0.00000  Uiso   1.00
C224   C     0.16797   0.50013   0.11655   0.00000  Uiso   1.00
C225   C     0.12777   0.49870   0.40499   0.00000  Uiso   1.00
C226   C     0.20552   0.50256   0.09501   0.00000  Uiso   1.00
C227   C     0.12808   0.49915   0.45193   0.00000  Uiso   1.00
C228   C     0.20518   0.50288   0.04807   0.00000  Uiso   1.00
C229   C     0.16631   0.50130   0.47650   0.00000  Uiso   1.00
C230   C     0.16694   0.50131   0.02350   0.00000  Uiso   1.00
C231   C     0.20391   0.50311   0.45406   0.00000  Uiso   1.00
C232   C     0.12935   0.49942   0.04593   0.00000  Uiso   1.00
C233   C     0.09115   0.49757   0.47486   0.00000  Uiso   1.00
C234   C     0.24209   0.50475   0.02515   0.00000  Uiso   1.00
Cu235  Cu    0.16667   0.54689   0.25000   0.00000  Uiso   1.00
Cu236  Cu    0.16667   0.45311   0.25000   0.00000  Uiso   1.00
H237   H     0.23113   0.50267   0.38940   0.00000  Uiso   1.00
H238   H     0.10226   0.49612   0.11059   0.00000  Uiso   1.00
H239   H     0.06154   0.49631   0.45709   0.00000  Uiso   1.00
H240   H     0.27168   0.50615   0.04293   0.00000  Uiso   1.00
H241   H     0.03732   0.42502   0.24997   0.00000  Uiso   1.00
H242   H     0.29601   0.57499   0.25001   0.00000  Uiso   1.00
H243   H     0.29607   0.42501   0.25001   0.00000  Uiso   1.00
H244   H     0.03726   0.57500   0.24996   0.00000  Uiso   1.00
N245   N     0.16667   0.61736   0.25000   0.00000  Uiso   1.00
N246   N     0.16667   0.38264   0.25000   0.00000  Uiso   1.00
O247   O     0.10655   0.53958   0.24999   0.00000  Uiso   1.00
O248   O     0.22679   0.46042   0.25000   0.00000  Uiso   1.00
O249   O     0.22679   0.53958   0.25000   0.00000  Uiso   1.00
O250   O     0.10655   0.46042   0.24999   0.00000  Uiso   1.00
O251   O     0.16666   0.53960   0.18513   0.00000  Uiso   1.00
O252   O     0.16668   0.46040   0.31487   0.00000  Uiso   1.00
O253   O     0.16668   0.53960   0.31487   0.00000  Uiso   1.00
O254   O     0.16666   0.46040   0.18513   0.00000  Uiso   1.00
Br255  Br    0.07674   0.49627   0.36947   0.00000  Uiso   1.00
Br256  Br    0.25654   0.50511   0.13054   0.00000  Uiso   1.00
N257   N     0.05323   0.49686   0.04332   0.00000  Uiso   1.00
H258   H     0.03096   0.47694   0.02705   0.00000  Uiso   1.00
C259   C     0.03767   0.54200   0.05510   0.00000  Uiso   1.00
H260   H     0.00916   0.53790   0.07404   0.00000  Uiso   1.00
H261   H     0.03029   0.56254   0.02449   0.00000  Uiso   1.00
H262   H     0.06072   0.56102   0.07645   0.00000  Uiso   1.00
N263   N     0.27999   0.50742   0.45673   0.00000  Uiso   1.00
H264   H     0.30360   0.48963   0.47316   0.00000  Uiso   1.00
C265   C     0.29232   0.55377   0.44471   0.00000  Uiso   1.00
H266   H     0.32128   0.55216   0.42620   0.00000  Uiso   1.00
H267   H     0.29782   0.57511   0.47519   0.00000  Uiso   1.00
H268   H     0.26817   0.57049   0.42293   0.00000  Uiso   1.00
Br269  Br    0.10310   0.38947   0.18032   0.00000  Uiso   1.00
Br270  Br    0.23022   0.61052   0.31972   0.00000  Uiso   1.00
Br271  Br    0.23023   0.38940   0.31967   0.00000  Uiso   1.00
Br272  Br    0.10312   0.61059   0.18029   0.00000  Uiso   1.00
C273   C     0.42079   0.50001   0.24975   0.00000  Uiso   1.00
C274   C     0.57921   0.49999   0.25025   0.00000  Uiso   1.00
C275   C     0.42474   0.49812   0.02141   0.00000  Uiso   1.00
C276   C     0.57515   0.50531   0.47860   0.00000  Uiso   1.00
C277   C     0.35465   0.45793   0.24991   0.00000  Uiso   1.00
C278   C     0.64535   0.54207   0.25007   0.00000  Uiso   1.00
C279   C     0.64538   0.45793   0.25007   0.00000  Uiso   1.00
C280   C     0.35462   0.54208   0.24991   0.00000  Uiso   1.00
C281   C     0.62388   0.50000   0.25022   0.00000  Uiso   1.00
C282   C     0.37612   0.50001   0.24976   0.00000  Uiso   1.00
C283   C     0.47398   0.35802   0.22150   0.00000  Uiso   1.00
C284   C     0.52602   0.64198   0.27851   0.00000  Uiso   1.00
C285   C     0.52602   0.35798   0.27850   0.00000  Uiso   1.00
C286   C     0.47398   0.64201   0.22149   0.00000  Uiso   1.00
C287   C     0.50043   0.50001   0.16467   0.00000  Uiso   1.00
C288   C     0.49957   0.50000   0.33533   0.00000  Uiso   1.00
C289   C     0.53617   0.50207   0.40751   0.00000  Uiso   1.00
C290   C     0.46383   0.49833   0.09249   0.00000  Uiso   1.00
C291   C     0.49870   0.50008   0.38345   0.00000  Uiso   1.00
C292   C     0.50130   0.50013   0.11655   0.00000  Uiso   1.00
C293   C     0.46111   0.49870   0.40499   0.00000  Uiso   1.00
C294   C     0.53885   0.50256   0.09501   0.00000  Uiso   1.00
C295   C     0.46142   0.49915   0.45193   0.00000  Uiso   1.00
C296   C     0.53851   0.50288   0.04807   0.00000  Uiso   1.00
C297   C     0.49964   0.50130   0.47650   0.00000  Uiso   1.00
C298   C     0.50027   0.50131   0.02350   0.00000  Uiso   1.00
C299   C     0.53724   0.50311   0.45406   0.00000  Uiso   1.00
C300   C     0.46268   0.49942   0.04593   0.00000  Uiso   1.00
C301   C     0.42449   0.49757   0.47486   0.00000  Uiso   1.00
C302   C     0.57542   0.50475   0.02515   0.00000  Uiso   1.00
Cu303  Cu    0.50000   0.54689   0.25000   0.00000  Uiso   1.00
Cu304  Cu    0.50000   0.45311   0.25000   0.00000  Uiso   1.00
H305   H     0.56446   0.50267   0.38940   0.00000  Uiso   1.00
H306   H     0.43559   0.49612   0.11059   0.00000  Uiso   1.00
H307   H     0.39488   0.49631   0.45709   0.00000  Uiso   1.00
H308   H     0.60501   0.50615   0.04293   0.00000  Uiso   1.00
H309   H     0.37066   0.42502   0.24997   0.00000  Uiso   1.00
H310   H     0.62934   0.57499   0.25001   0.00000  Uiso   1.00
H311   H     0.62941   0.42501   0.25001   0.00000  Uiso   1.00
H312   H     0.37059   0.57500   0.24996   0.00000  Uiso   1.00
N313   N     0.50000   0.61736   0.25000   0.00000  Uiso   1.00
N314   N     0.50000   0.38264   0.25000   0.00000  Uiso   1.00
O315   O     0.43988   0.53958   0.24999   0.00000  Uiso   1.00
O316   O     0.56012   0.46042   0.25000   0.00000  Uiso   1.00
O317   O     0.56012   0.53958   0.25000   0.00000  Uiso   1.00
O318   O     0.43988   0.46042   0.24999   0.00000  Uiso   1.00
O319   O     0.49999   0.53960   0.18513   0.00000  Uiso   1.00
O320   O     0.50001   0.46040   0.31487   0.00000  Uiso   1.00
O321   O     0.50001   0.53960   0.31487   0.00000  Uiso   1.00
O322   O     0.49999   0.46040   0.18513   0.00000  Uiso   1.00
Br323  Br    0.41008   0.49627   0.36947   0.00000  Uiso   1.00
Br324  Br    0.58987   0.50511   0.13054   0.00000  Uiso   1.00
N325   N     0.38657   0.49686   0.04332   0.00000  Uiso   1.00
H326   H     0.36429   0.47694   0.02705   0.00000  Uiso   1.00
C327   C     0.37100   0.54200   0.05510   0.00000  Uiso   1.00
H328   H     0.34249   0.53790   0.07404   0.00000  Uiso   1.00
H329   H     0.36362   0.56254   0.02449   0.00000  Uiso   1.00
H330   H     0.39405   0.56102   0.07645   0.00000  Uiso   1.00
N331   N     0.61332   0.50742   0.45673   0.00000  Uiso   1.00
H332   H     0.63693   0.48963   0.47316   0.00000  Uiso   1.00
C333   C     0.62565   0.55377   0.44471   0.00000  Uiso   1.00
H334   H     0.65462   0.55216   0.42620   0.00000  Uiso   1.00
H335   H     0.63115   0.57511   0.47519   0.00000  Uiso   1.00
H336   H     0.60150   0.57049   0.42293   0.00000  Uiso   1.00
Br337  Br    0.43644   0.38947   0.18032   0.00000  Uiso   1.00
Br338  Br    0.56355   0.61052   0.31972   0.00000  Uiso   1.00
Br339  Br    0.56356   0.38940   0.31967   0.00000  Uiso   1.00
Br340  Br    0.43646   0.61059   0.18029   0.00000  Uiso   1.00
C341   C     0.75413   0.50001   0.24975   0.00000  Uiso   1.00
C342   C     0.91254   0.49999   0.25025   0.00000  Uiso   1.00
C343   C     0.75808   0.49812   0.02141   0.00000  Uiso   1.00
C344   C     0.90848   0.50531   0.47860   0.00000  Uiso   1.00
C345   C     0.68799   0.45793   0.24991   0.00000  Uiso   1.00
C346   C     0.97868   0.54207   0.25007   0.00000  Uiso   1.00
C347   C     0.97871   0.45793   0.25007   0.00000  Uiso   1.00
C348   C     0.68795   0.54208   0.24991   0.00000  Uiso   1.00
C349   C     0.95721   0.50000   0.25022   0.00000  Uiso   1.00
C350   C     0.70945   0.50001   0.24976   0.00000  Uiso   1.00
C351   C     0.80731   0.35802   0.22150   0.00000  Uiso   1.00
C352   C     0.85935   0.64198   0.27851   0.00000  Uiso   1.00
C353   C     0.85935   0.35798   0.27850   0.00000  Uiso   1.00
C354   C     0.80732   0.64201   0.22149   0.00000  Uiso   1.00
C355   C     0.83377   0.50001   0.16467   0.00000  Uiso   1.00
C356   C     0.83291   0.50000   0.33533   0.00000  Uiso   1.00
C357   C     0.86951   0.50207   0.40751   0.00000  Uiso   1.00
C358   C     0.79716   0.49833   0.09249   0.00000  Uiso   1.00
C359   C     0.83203   0.50008   0.38345   0.00000  Uiso   1.00
C360   C     0.83463   0.50013   0.11655   0.00000  Uiso   1.00
C361   C     0.79444   0.49870   0.40499   0.00000  Uiso   1.00
C362   C     0.87218   0.50256   0.09501   0.00000  Uiso   1.00
C363   C     0.79475   0.49915   0.45193   0.00000  Uiso   1.00
C364   C     0.87185   0.50288   0.04807   0.00000  Uiso   1.00
C365   C     0.83297   0.50130   0.47650   0.00000  Uiso   1.00
C366   C     0.83361   0.50131   0.02350   0.00000  Uiso   1.00
C367   C     0.87058   0.50311   0.45406   0.00000  Uiso   1.00
C368   C     0.79601   0.49942   0.04593   0.00000  Uiso   1.00
C369   C     0.75782   0.49757   0.47486   0.00000  Uiso   1.00
C370   C     0.90876   0.50475   0.02515   0.00000  Uiso   1.00
Cu371  Cu    0.83333   0.54689   0.25000   0.00000  Uiso   1.00
Cu372  Cu    0.83333   0.45311   0.25000   0.00000  Uiso   1.00
H373   H     0.89780   0.50267   0.38940   0.00000  Uiso   1.00
H374   H     0.76893   0.49612   0.11059   0.00000  Uiso   1.00
H375   H     0.72821   0.49631   0.45709   0.00000  Uiso   1.00
H376   H     0.93834   0.50615   0.04293   0.00000  Uiso   1.00
H377   H     0.70399   0.42502   0.24997   0.00000  Uiso   1.00
H378   H     0.96268   0.57499   0.25001   0.00000  Uiso   1.00
H379   H     0.96274   0.42501   0.25001   0.00000  Uiso   1.00
H380   H     0.70393   0.57500   0.24996   0.00000  Uiso   1.00
N381   N     0.83333   0.61736   0.25000   0.00000  Uiso   1.00
N382   N     0.83333   0.38264   0.25000   0.00000  Uiso   1.00
O383   O     0.77321   0.53958   0.24999   0.00000  Uiso   1.00
O384   O     0.89345   0.46042   0.25000   0.00000  Uiso   1.00
O385   O     0.89345   0.53958   0.25000   0.00000  Uiso   1.00
O386   O     0.77321   0.46042   0.24999   0.00000  Uiso   1.00
O387   O     0.83332   0.53960   0.18513   0.00000  Uiso   1.00
O388   O     0.83334   0.46040   0.31487   0.00000  Uiso   1.00
O389   O     0.83334   0.53960   0.31487   0.00000  Uiso   1.00
O390   O     0.83332   0.46040   0.18513   0.00000  Uiso   1.00
Br391  Br    0.74341   0.49627   0.36947   0.00000  Uiso   1.00
Br392  Br    0.92320   0.50511   0.13054   0.00000  Uiso   1.00
N393   N     0.71990   0.49686   0.04332   0.00000  Uiso   1.00
H394   H     0.69763   0.47694   0.02705   0.00000  Uiso   1.00
C395   C     0.70434   0.54200   0.05510   0.00000  Uiso   1.00
H396   H     0.67583   0.53790   0.07404   0.00000  Uiso   1.00
H397   H     0.69696   0.56254   0.02449   0.00000  Uiso   1.00
H398   H     0.72738   0.56102   0.07645   0.00000  Uiso   1.00
N399   N     0.94666   0.50742   0.45673   0.00000  Uiso   1.00
H400   H     0.97027   0.48963   0.47316   0.00000  Uiso   1.00
C401   C     0.95898   0.55377   0.44471   0.00000  Uiso   1.00
H402   H     0.98795   0.55216   0.42620   0.00000  Uiso   1.00
H403   H     0.96449   0.57511   0.47519   0.00000  Uiso   1.00
H404   H     0.93484   0.57049   0.42293   0.00000  Uiso   1.00
Br405  Br    0.76977   0.38947   0.18032   0.00000  Uiso   1.00
Br406  Br    0.89688   0.61052   0.31972   0.00000  Uiso   1.00
Br407  Br    0.89690   0.38940   0.31967   0.00000  Uiso   1.00
Br408  Br    0.76979   0.61059   0.18029   0.00000  Uiso   1.00
C409   C     0.08746   0.83334   0.24975   0.00000  Uiso   1.00
C410   C     0.24587   0.83333   0.25025   0.00000  Uiso   1.00
C411   C     0.09141   0.83145   0.02141   0.00000  Uiso   1.00
C412   C     0.24181   0.83865   0.47860   0.00000  Uiso   1.00
C413   C     0.02132   0.79127   0.24991   0.00000  Uiso   1.00
C414   C     0.31201   0.87541   0.25007   0.00000  Uiso   1.00
C415   C     0.31205   0.79126   0.25007   0.00000  Uiso   1.00
C416   C     0.02129   0.87541   0.24991   0.00000  Uiso   1.00
C417   C     0.29055   0.83333   0.25022   0.00000  Uiso   1.00
C418   C     0.04279   0.83334   0.24976   0.00000  Uiso   1.00
C419   C     0.14065   0.69135   0.22150   0.00000  Uiso   1.00
C420   C     0.19269   0.97531   0.27851   0.00000  Uiso   1.00
C421   C     0.19269   0.69132   0.27850   0.00000  Uiso   1.00
C422   C     0.14065   0.97534   0.22149   0.00000  Uiso   1.00
C423   C     0.16710   0.83335   0.16467   0.00000  Uiso   1.00
C424   C     0.16624   0.83333   0.33533   0.00000  Uiso   1.00
C425   C     0.20284   0.83540   0.40751   0.00000  Uiso   1.00
C426   C     0.13049   0.83166   0.09249   0.00000  Uiso   1.00
C427   C     0.16537   0.83342   0.38345   0.00000  Uiso   1.00
C428   C     0.16797   0.83347   0.11655   0.00000  Uiso   1.00
C429   C     0.12777   0.83203   0.40499   0.00000  Uiso   1.00
C430   C     0.20552   0.83589   0.09501   0.00000  Uiso   1.00
C431   C     0.12808   0.83249   0.45193   0.00000  Uiso   1.00
C432   C     0.20518   0.83621   0.04807   0.00000  Uiso   1.00
C433   C     0.16631   0.83463   0.47650   0.00000  Uiso   1.00
C434   C     0.16694   0.83464   0.02350   0.00000  Uiso   1.00
C435   C     0.20391   0.83644   0.45406   0.00000  Uiso   1.00
C436   C     0.12935   0.83275   0.04593   0.00000  Uiso   1.00
C437   C     0.09115   0.83090   0.47486   0.00000  Uiso   1.00
C438   C     0.24209   0.83808   0.02515   0.00000  Uiso   1.00
Cu439  Cu    0.16667   0.88022   0.25000   0.00000  Uiso   1.00
Cu440  Cu    0.16667   0.78645   0.25000   0.00000  Uiso   1.00
H441   H     0.23113   0.83601   0.38940   0.00000  Uiso   1.00
H442   H     0.10226   0.82945   0.11059   0.00000  Uiso   1.00
H443   H     0.06154   0.82964   0.45709   0.00000  Uiso   1.00
H444   H     0.27168   0.83948   0.04293   0.00000  Uiso   1.00
H445   H     0.03732   0.75835   0.24997   0.00000  Uiso   1.00
H446   H     0.29601   0.90832   0.25001   0.00000  Uiso   1.00
H447   H     0.29607   0.75834   0.25001   0.00000  Uiso   1.00
H448   H     0.03726   0.90833   0.24996   0.00000  Uiso   1.00
N449   N     0.16667   0.95069   0.25000   0.00000  Uiso   1.00
N450   N     0.16667   0.71598   0.25000   0.00000  Uiso   1.00
O451   O     0.10655   0.87291   0.24999   0.00000  Uiso   1.00
O452   O     0.22679   0.79375   0.25000   0.00000  Uiso   1.00
O453   O     0.22679   0.87291   0.25000   0.00000  Uiso   1.00
O454   O     0.10655   0.79375   0.24999   0.00000  Uiso   1.00
O455   O     0.16666   0.87293   0.18513   0.00000  Uiso   1.00
O456   O     0.16668   0.79373   0.31487   0.00000  Uiso   1.00
O457   O     0.16668   0.87293   0.31487   0.00000  Uiso   1.00
O458   O     0.16666   0.79373   0.18513   0.00000  Uiso   1.00
Br459  Br    0.07674   0.82960   0.36947   0.00000  Uiso   1.00
Br460  Br    0.25654   0.83845   0.13054   0.00000  Uiso   1.00
N461   N     0.05323   0.83019   0.04332   0.00000  Uiso   1.00
H462   H     0.03096   0.81028   0.02705   0.00000  Uiso   1.00
C463   C     0.03767   0.87534   0.05510   0.00000  Uiso   1.00
H464   H     0.00916   0.87123   0.07404   0.00000  Uiso   1.00
H465   H     0.03029   0.89588   0.02449   0.00000  Uiso   1.00
H466   H     0.06072   0.89435   0.07645   0.00000  Uiso   1.00
N467   N     0.27999   0.84076   0.45673   0.00000  Uiso   1.00
H468   H     0.30360   0.82297   0.47316   0.00000  Uiso   1.00
C469   C     0.29232   0.88710   0.44471   0.00000  Uiso   1.00
H470   H     0.32128   0.88550   0.42620   0.00000  Uiso   1.00
H471   H     0.29782   0.90845   0.47519   0.00000  Uiso   1.00
H472   H     0.26817   0.90383   0.42293   0.00000  Uiso   1.00
Br473  Br    0.10310   0.72280   0.18032   0.00000  Uiso   1.00
Br474  Br    0.23022   0.94385   0.31972   0.00000  Uiso   1.00
Br475  Br    0.23023   0.72273   0.31967   0.00000  Uiso   1.00
Br476  Br    0.10312   0.94392   0.18029   0.00000  Uiso   1.00
C477   C     0.42079   0.83334   0.24975   0.00000  Uiso   1.00
C478   C     0.57921   0.83333   0.25025   0.00000  Uiso   1.00
C479   C     0.42474   0.83145   0.02141   0.00000  Uiso   1.00
C480   C     0.57515   0.83865   0.47860   0.00000  Uiso   1.00
C481   C     0.35465   0.79127   0.24991   0.00000  Uiso   1.00
C482   C     0.64535   0.87541   0.25007   0.00000  Uiso   1.00
C483   C     0.64538   0.79126   0.25007   0.00000  Uiso   1.00
C484   C     0.35462   0.87541   0.24991   0.00000  Uiso   1.00
C485   C     0.62388   0.83333   0.25022   0.00000  Uiso   1.00
C486   C     0.37612   0.83334   0.24976   0.00000  Uiso   1.00
C487   C     0.47398   0.69135   0.22150   0.00000  Uiso   1.00
C488   C     0.52602   0.97531   0.27851   0.00000  Uiso   1.00
C489   C     0.52602   0.69132   0.27850   0.00000  Uiso   1.00
C490   C     0.47398   0.97534   0.22149   0.00000  Uiso   1.00
C491   C     0.50043   0.83335   0.16467   0.00000  Uiso   1.00
C492   C     0.49957   0.83333   0.33533   0.00000  Uiso   1.00
C493   C     0.53617   0.83540   0.40751   0.00000  Uiso   1.00
C494   C     0.46383   0.83166   0.09249   0.00000  Uiso   1.00
C495   C     0.49870   0.83342   0.38345   0.00000  Uiso   1.00
C496   C     0.50130   0.83347   0.11655   0.00000  Uiso   1.00
C497   C     0.46111   0.83203   0.40499   0.00000  Uiso   1.00
C498   C     0.53885   0.83589   0.09501   0.00000  Uiso   1.00
C499   C     0.46142   0.83249   0.45193   0.00000  Uiso   1.00
C500   C     0.53851   0.83621   0.04807   0.00000  Uiso   1.00
C501   C     0.49964   0.83463   0.47650   0.00000  Uiso   1.00
C502   C     0.50027   0.83464   0.02350   0.00000  Uiso   1.00
C503   C     0.53724   0.83644   0.45406   0.00000  Uiso   1.00
C504   C     0.46268   0.83275   0.04593   0.00000  Uiso   1.00
C505   C     0.42449   0.83090   0.47486   0.00000  Uiso   1.00
C506   C     0.57542   0.83808   0.02515   0.00000  Uiso   1.00
Cu507  Cu    0.50000   0.88022   0.25000   0.00000  Uiso   1.00
Cu508  Cu    0.50000   0.78645   0.25000   0.00000  Uiso   1.00
H509   H     0.56446   0.83601   0.38940   0.00000  Uiso   1.00
H510   H     0.43559   0.82945   0.11059   0.00000  Uiso   1.00
H511   H     0.39488   0.82964   0.45709   0.00000  Uiso   1.00
H512   H     0.60501   0.83948   0.04293   0.00000  Uiso   1.00
H513   H     0.37066   0.75835   0.24997   0.00000  Uiso   1.00
H514   H     0.62934   0.90832   0.25001   0.00000  Uiso   1.00
H515   H     0.62941   0.75834   0.25001   0.00000  Uiso   1.00
H516   H     0.37059   0.90833   0.24996   0.00000  Uiso   1.00
N517   N     0.50000   0.95069   0.25000   0.00000  Uiso   1.00
N518   N     0.50000   0.71598   0.25000   0.00000  Uiso   1.00
O519   O     0.43988   0.87291   0.24999   0.00000  Uiso   1.00
O520   O     0.56012   0.79375   0.25000   0.00000  Uiso   1.00
O521   O     0.56012   0.87291   0.25000   0.00000  Uiso   1.00
O522   O     0.43988   0.79375   0.24999   0.00000  Uiso   1.00
O523   O     0.49999   0.87293   0.18513   0.00000  Uiso   1.00
O524   O     0.50001   0.79373   0.31487   0.00000  Uiso   1.00
O525   O     0.50001   0.87293   0.31487   0.00000  Uiso   1.00
O526   O     0.49999   0.79373   0.18513   0.00000  Uiso   1.00
Br527  Br    0.41008   0.82960   0.36947   0.00000  Uiso   1.00
Br528  Br    0.58987   0.83845   0.13054   0.00000  Uiso   1.00
N529   N     0.38657   0.83019   0.04332   0.00000  Uiso   1.00
H530   H     0.36429   0.81028   0.02705   0.00000  Uiso   1.00
C531   C     0.37100   0.87534   0.05510   0.00000  Uiso   1.00
H532   H     0.34249   0.87123   0.07404   0.00000  Uiso   1.00
H533   H     0.36362   0.89588   0.02449   0.00000  Uiso   1.00
H534   H     0.39405   0.89435   0.07645   0.00000  Uiso   1.00
N535   N     0.61332   0.84076   0.45673   0.00000  Uiso   1.00
H536   H     0.63693   0.82297   0.47316   0.00000  Uiso   1.00
C537   C     0.62565   0.88710   0.44471   0.00000  Uiso   1.00
H538   H     0.65462   0.88550   0.42620   0.00000  Uiso   1.00
H539   H     0.63115   0.90845   0.47519   0.00000  Uiso   1.00
H540   H     0.60150   0.90383   0.42293   0.00000  Uiso   1.00
Br541  Br    0.43644   0.72280   0.18032   0.00000  Uiso   1.00
Br542  Br    0.56355   0.94385   0.31972   0.00000  Uiso   1.00
Br543  Br    0.56356   0.72273   0.31967   0.00000  Uiso   1.00
Br544  Br    0.43646   0.94392   0.18029   0.00000  Uiso   1.00
C545   C     0.75413   0.83334   0.24975   0.00000  Uiso   1.00
C546   C     0.91254   0.83333   0.25025   0.00000  Uiso   1.00
C547   C     0.75808   0.83145   0.02141   0.00000  Uiso   1.00
C548   C     0.90848   0.83865   0.47860   0.00000  Uiso   1.00
C549   C     0.68799   0.79127   0.24991   0.00000  Uiso   1.00
C550   C     0.97868   0.87541   0.25007   0.00000  Uiso   1.00
C551   C     0.97871   0.79126   0.25007   0.00000  Uiso   1.00
C552   C     0.68795   0.87541   0.24991   0.00000  Uiso   1.00
C553   C     0.95721   0.83333   0.25022   0.00000  Uiso   1.00
C554   C     0.70945   0.83334   0.24976   0.00000  Uiso   1.00
C555   C     0.80731   0.69135   0.22150   0.00000  Uiso   1.00
C556   C     0.85935   0.97531   0.27851   0.00000  Uiso   1.00
C557   C     0.85935   0.69132   0.27850   0.00000  Uiso   1.00
C558   C     0.80732   0.97534   0.22149   0.00000  Uiso   1.00
C559   C     0.83377   0.83335   0.16467   0.00000  Uiso   1.00
C560   C     0.83291   0.83333   0.33533   0.00000  Uiso   1.00
C561   C     0.86951   0.83540   0.40751   0.00000  Uiso   1.00
C562   C     0.79716   0.83166   0.09249   0.00000  Uiso   1.00
C563   C     0.83203   0.83342   0.38345   0.00000  Uiso   1.00
C564   C     0.83463   0.83347   0.11655   0.00000  Uiso   1.00
C565   C     0.79444   0.83203   0.40499   0.00000  Uiso   1.00
C566   C     0.87218   0.83589   0.09501   0.00000  Uiso   1.00
C567   C     0.79475   0.83249   0.45193   0.00000  Uiso   1.00
C568   C     0.87185   0.83621   0.04807   0.00000  Uiso   1.00
C569   C     0.83297   0.83463   0.47650   0.00000  Uiso   1.00
C570   C     0.83361   0.83464   0.02350   0.00000  Uiso   1.00
C571   C     0.87058   0.83644   0.45406   0.00000  Uiso   1.00
C572   C     0.79601   0.83275   0.04593   0.00000  Uiso   1.00
C573   C     0.75782   0.83090   0.47486   0.00000  Uiso   1.00
C574   C     0.90876   0.83808   0.02515   0.00000  Uiso   1.00
Cu575  Cu    0.83333   0.88022   0.25000   0.00000  Uiso   1.00
Cu576  Cu    0.83333   0.78645   0.25000   0.00000  Uiso   1.00
H577   H     0.89780   0.83601   0.38940   0.00000  Uiso   1.00
H578   H     0.76893   0.82945   0.11059   0.00000  Uiso   1.00
H579   H     0.72821   0.82964   0.45709   0.00000  Uiso   1.00
H580   H     0.93834   0.83948   0.04293   0.00000  Uiso   1.00
H581   H     0.70399   0.75835   0.24997   0.00000  Uiso   1.00
H582   H     0.96268   0.90832   0.25001   0.00000  Uiso   1.00
H583   H     0.96274   0.75834   0.25001   0.00000  Uiso   1.00
H584   H     0.70393   0.90833   0.24996   0.00000  Uiso   1.00
N585   N     0.83333   0.95069   0.25000   0.00000  Uiso   1.00
N586   N     0.83333   0.71598   0.25000   0.00000  Uiso   1.00
O587   O     0.77321   0.87291   0.24999   0.00000  Uiso   1.00
O588   O     0.89345   0.79375   0.25000   0.00000  Uiso   1.00
O589   O     0.89345   0.87291   0.25000   0.00000  Uiso   1.00
O590   O     0.77321   0.79375   0.24999   0.00000  Uiso   1.00
O591   O     0.83332   0.87293   0.18513   0.00000  Uiso   1.00
O592   O     0.83334   0.79373   0.31487   0.00000  Uiso   1.00
O593   O     0.83334   0.87293   0.31487   0.00000  Uiso   1.00
O594   O     0.83332   0.79373   0.18513   0.00000  Uiso   1.00
Br595  Br    0.74341   0.82960   0.36947   0.00000  Uiso   1.00
Br596  Br    0.92320   0.83845   0.13054   0.00000  Uiso   1.00
N597   N     0.71990   0.83019   0.04332   0.00000  Uiso   1.00
H598   H     0.69763   0.81028   0.02705   0.00000  Uiso   1.00
C599   C     0.70434   0.87534   0.05510   0.00000  Uiso   1.00
H600   H     0.67583   0.87123   0.07404   0.00000  Uiso   1.00
H601   H     0.69696   0.89588   0.02449   0.00000  Uiso   1.00
H602   H     0.72738   0.89435   0.07645   0.00000  Uiso   1.00
N603   N     0.94666   0.84076   0.45673   0.00000  Uiso   1.00
H604   H     0.97027   0.82297   0.47316   0.00000  Uiso   1.00
C605   C     0.95898   0.88710   0.44471   0.00000  Uiso   1.00
H606   H     0.98795   0.88550   0.42620   0.00000  Uiso   1.00
H607   H     0.96449   0.90845   0.47519   0.00000  Uiso   1.00
H608   H     0.93484   0.90383   0.42293   0.00000  Uiso   1.00
Br609  Br    0.76977   0.72280   0.18032   0.00000  Uiso   1.00
Br610  Br    0.89688   0.94385   0.31972   0.00000  Uiso   1.00
Br611  Br    0.89690   0.72273   0.31967   0.00000  Uiso   1.00
Br612  Br    0.76979   0.94392   0.18029   0.00000  Uiso   1.00
C613   C     0.08746   0.16667   0.74975   0.00000  Uiso   1.00
C614   C     0.24587   0.16666   0.75025   0.00000  Uiso   1.00
C615   C     0.09141   0.16479   0.52141   0.00000  Uiso   1.00
C616   C     0.24181   0.17198   0.97860   0.00000  Uiso   1.00
C617   C     0.02132   0.12460   0.74991   0.00000  Uiso   1.00
C618   C     0.31201   0.20874   0.75007   0.00000  Uiso   1.00
C619   C     0.31205   0.12459   0.75007   0.00000  Uiso   1.00
C620   C     0.02129   0.20875   0.74991   0.00000  Uiso   1.00
C621   C     0.29055   0.16666   0.75022   0.00000  Uiso   1.00
C622   C     0.04279   0.16668   0.74976   0.00000  Uiso   1.00
C623   C     0.14065   0.02468   0.72150   0.00000  Uiso   1.00
C624   C     0.19269   0.30865   0.77851   0.00000  Uiso   1.00
C625   C     0.19269   0.02465   0.77850   0.00000  Uiso   1.00
C626   C     0.14065   0.30868   0.72149   0.00000  Uiso   1.00
C627   C     0.16710   0.16668   0.66467   0.00000  Uiso   1.00
C628   C     0.16624   0.16667   0.83533   0.00000  Uiso   1.00
C629   C     0.20284   0.16874   0.90751   0.00000  Uiso   1.00
C630   C     0.13049   0.16499   0.59249   0.00000  Uiso   1.00
C631   C     0.16537   0.16675   0.88345   0.00000  Uiso   1.00
C632   C     0.16797   0.16680   0.61655   0.00000  Uiso   1.00
C633   C     0.12777   0.16537   0.90499   0.00000  Uiso   1.00
C634   C     0.20552   0.16922   0.59501   0.00000  Uiso   1.00
C635   C     0.12808   0.16582   0.95193   0.00000  Uiso   1.00
C636   C     0.20518   0.16955   0.54807   0.00000  Uiso   1.00
C637   C     0.16631   0.16796   0.97650   0.00000  Uiso   1.00
C638   C     0.16694   0.16797   0.52350   0.00000  Uiso   1.00
C639   C     0.20391   0.16977   0.95406   0.00000  Uiso   1.00
C640   C     0.12935   0.16608   0.54593   0.00000  Uiso   1.00
C641   C     0.09115   0.16424   0.97486   0.00000  Uiso   1.00
C642   C     0.24209   0.17141   0.52515   0.00000  Uiso   1.00
Cu643  Cu    0.16667   0.21355   0.75000   0.00000  Uiso   1.00
Cu644  Cu    0.16667   0.11978   0.75000   0.00000  Uiso   1.00
H645   H     0.23113   0.16934   0.88940   0.00000  Uiso   1.00
H646   H     0.10226   0.16279   0.61059   0.00000  Uiso   1.00
H647   H     0.06154   0.16298   0.95709   0.00000  Uiso   1.00
H648   H     0.27168   0.17281   0.54293   0.00000  Uiso   1.00
H649   H     0.03732   0.09168   0.74997   0.00000  Uiso   1.00
H650   H     0.29601   0.24166   0.75001   0.00000  Uiso   1.00
H651   H     0.29607   0.09167   0.75001   0.00000  Uiso   1.00
H652   H     0.03726   0.24167   0.74996   0.00000  Uiso   1.00
N653   N     0.16667   0.28402   0.75000   0.00000  Uiso   1.00
N654   N     0.16667   0.04931   0.75000   0.00000  Uiso   1.00
O655   O     0.10655   0.20625   0.74999   0.00000  Uiso   1.00
O656   O     0.22679   0.12709   0.75000   0.00000  Uiso   1.00
O657   O     0.22679   0.20625   0.75000   0.00000  Uiso   1.00
O658   O     0.10655   0.12709   0.74999   0.00000  Uiso   1.00
O659   O     0.16666   0.20627   0.68513   0.00000  Uiso   1.00
O660   O     0.16668   0.12707   0.81487   0.00000  Uiso   1.00
O661   O     0.16668   0.20627   0.81487   0.00000  Uiso   1.00
O662   O     0.16666   0.12707   0.68513   0.00000  Uiso   1.00
Br663  Br    0.07674   0.16294   0.86947   0.00000  Uiso   1.00
Br664  Br    0.25654   0.17178   0.63054   0.00000  Uiso   1.00
N665   N     0.05323   0.16353   0.54332   0.00000  Uiso   1.00
H666   H     0.03096   0.14361   0.52705   0.00000  Uiso   1.00
C667   C     0.03767   0.20867   0.55510   0.00000  Uiso   1.00
H668   H     0.00916   0.20456   0.57404   0.00000  Uiso   1.00
H669   H     0.03029   0.22921   0.52449   0.00000  Uiso   1.00
H670   H     0.06072   0.22768   0.57645   0.00000  Uiso   1.00
N671   N     0.27999   0.17409   0.95673   0.00000  Uiso   1.00
H672   H     0.30360   0.15630   0.97316   0.00000  Uiso   1.00
C673   C     0.29232   0.22044   0.94471   0.00000  Uiso   1.00
H674   H     0.32128   0.21883   0.92620   0.00000  Uiso   1.00
H675   H     0.29782   0.24178   0.97519   0.00000  Uiso   1.00
H676   H     0.26817   0.23716   0.92293   0.00000  Uiso   1.00
Br677  Br    0.10310   0.05614   0.68032   0.00000  Uiso   1.00
Br678  Br    0.23022   0.27719   0.81972   0.00000  Uiso   1.00
Br679  Br    0.23023   0.05607   0.81967   0.00000  Uiso   1.00
Br680  Br    0.10312   0.27726   0.68029   0.00000  Uiso   1.00
C681   C     0.42079   0.16667   0.74975   0.00000  Uiso   1.00
C682   C     0.57921   0.16666   0.75025   0.00000  Uiso   1.00
C683   C     0.42474   0.16479   0.52141   0.00000  Uiso   1.00
C684   C     0.57515   0.17198   0.97860   0.00000  Uiso   1.00
C685   C     0.35465   0.12460   0.74991   0.00000  Uiso   1.00
C686   C     0.64535   0.20874   0.75007   0.00000  Uiso   1.00
C687   C     0.64538   0.12459   0.75007   0.00000  Uiso   1.00
C688   C     0.35462   0.20875   0.74991   0.00000  Uiso   1.00
C689   C     0.62388   0.16666   0.75022   0.00000  Uiso   1.00
C690   C     0.37612   0.16668   0.74976   0.00000  Uiso   1.00
C691   C     0.47398   0.02468   0.72150   0.00000  Uiso   1.00
C692   C     0.52602   0.30865   0.77851   0.00000  Uiso   1.00
C693   C     0.52602   0.02465   0.77850   0.00000  Uiso   1.00
C694   C     0.47398   0.30868   0.72149   0.00000  Uiso   1.00
C695   C     0.50043   0.16668   0.66467   0.00000  Uiso   1.00
C696   C     0.49957   0.16667   0.83533   0.00000  Uiso   1.00
C697   C     0.53617   0.16874   0.90751   0.00000  Uiso   1.00
C698   C     0.46383   0.16499   0.59249   0.00000  Uiso   1.00
C699   C     0.49870   0.16675   0.88345   0.00000  Uiso   1.00
C700   C     0.50130   0.16680   0.61655   0.00000  Uiso   1.00
C701   C     0.46111   0.16537   0.90499   0.00000  Uiso   1.00
C702   C     0.53885   0.16922   0.59501   0.00000  Uiso   1.00
C703   C     0.46142   0.16582   0.95193   0.00000  Uiso   1.00
C704   C     0.53851   0.16955   0.54807   0.00000  Uiso   1.00
C705   C     0.49964   0.16796   0.97650   0.00000  Uiso   1.00
C706   C     0.50027   0.16797   0.52350   0.00000  Uiso   1.00
C707   C     0.53724   0.16977   0.95406   0.00000  Uiso   1.00
C708   C     0.46268   0.16608   0.54593   0.00000  Uiso   1.00
C709   C     0.42449   0.16424   0.97486   0.00000  Uiso   1.00
C710   C     0.57542   0.17141   0.52515   0.00000  Uiso   1.00
Cu711  Cu    0.50000   0.21355   0.75000   0.00000  Uiso   1.00
Cu712  Cu    0.50000   0.11978   0.75000   0.00000  Uiso   1.00
H713   H     0.56446   0.16934   0.88940   0.00000  Uiso   1.00
H714   H     0.43559   0.16279   0.61059   0.00000  Uiso   1.00
H715   H     0.39488   0.16298   0.95709   0.00000  Uiso   1.00
H716   H     0.60501   0.17281   0.54293   0.00000  Uiso   1.00
H717   H     0.37066   0.09168   0.74997   0.00000  Uiso   1.00
H718   H     0.62934   0.24166   0.75001   0.00000  Uiso   1.00
H719   H     0.62941   0.09167   0.75001   0.00000  Uiso   1.00
H720   H     0.37059   0.24167   0.74996   0.00000  Uiso   1.00
N721   N     0.50000   0.28402   0.75000   0.00000  Uiso   1.00
N722   N     0.50000   0.04931   0.75000   0.00000  Uiso   1.00
O723   O     0.43988   0.20625   0.74999   0.00000  Uiso   1.00
O724   O     0.56012   0.12709   0.75000   0.00000  Uiso   1.00
O725   O     0.56012   0.20625   0.75000   0.00000  Uiso   1.00
O726   O     0.43988   0.12709   0.74999   0.00000  Uiso   1.00
O727   O     0.49999   0.20627   0.68513   0.00000  Uiso   1.00
O728   O     0.50001   0.12707   0.81487   0.00000  Uiso   1.00
O729   O     0.50001   0.20627   0.81487   0.00000  Uiso   1.00
O730   O     0.49999   0.12707   0.68513   0.00000  Uiso   1.00
Br731  Br    0.41008   0.16294   0.86947   0.00000  Uiso   1.00
Br732  Br    0.58987   0.17178   0.63054   0.00000  Uiso   1.00
N733   N     0.38657   0.16353   0.54332   0.00000  Uiso   1.00
H734   H     0.36429   0.14361   0.52705   0.00000  Uiso   1.00
C735   C     0.37100   0.20867   0.55510   0.00000  Uiso   1.00
H736   H     0.34249   0.20456   0.57404   0.00000  Uiso   1.00
H737   H     0.36362   0.22921   0.52449   0.00000  Uiso   1.00
H738   H     0.39405   0.22768   0.57645   0.00000  Uiso   1.00
N739   N     0.61332   0.17409   0.95673   0.00000  Uiso   1.00
H740   H     0.63693   0.15630   0.97316   0.00000  Uiso   1.00
C741   C     0.62565   0.22044   0.94471   0.00000  Uiso   1.00
H742   H     0.65462   0.21883   0.92620   0.00000  Uiso   1.00
H743   H     0.63115   0.24178   0.97519   0.00000  Uiso   1.00
H744   H     0.60150   0.23716   0.92293   0.00000  Uiso   1.00
Br745  Br    0.43644   0.05614   0.68032   0.00000  Uiso   1.00
Br746  Br    0.56355   0.27719   0.81972   0.00000  Uiso   1.00
Br747  Br    0.56356   0.05607   0.81967   0.00000  Uiso   1.00
Br748  Br    0.43646   0.27726   0.68029   0.00000  Uiso   1.00
C749   C     0.75413   0.16667   0.74975   0.00000  Uiso   1.00
C750   C     0.91254   0.16666   0.75025   0.00000  Uiso   1.00
C751   C     0.75808   0.16479   0.52141   0.00000  Uiso   1.00
C752   C     0.90848   0.17198   0.97860   0.00000  Uiso   1.00
C753   C     0.68799   0.12460   0.74991   0.00000  Uiso   1.00
C754   C     0.97868   0.20874   0.75007   0.00000  Uiso   1.00
C755   C     0.97871   0.12459   0.75007   0.00000  Uiso   1.00
C756   C     0.68795   0.20875   0.74991   0.00000  Uiso   1.00
C757   C     0.95721   0.16666   0.75022   0.00000  Uiso   1.00
C758   C     0.70945   0.16668   0.74976   0.00000  Uiso   1.00
C759   C     0.80731   0.02468   0.72150   0.00000  Uiso   1.00
C760   C     0.85935   0.30865   0.77851   0.00000  Uiso   1.00
C761   C     0.85935   0.02465   0.77850   0.00000  Uiso   1.00
C762   C     0.80732   0.30868   0.72149   0.00000  Uiso   1.00
C763   C     0.83377   0.16668   0.66467   0.00000  Uiso   1.00
C764   C     0.83291   0.16667   0.83533   0.00000  Uiso   1.00
C765   C     0.86951   0.16874   0.90751   0.00000  Uiso   1.00
C766   C     0.79716   0.16499   0.59249   0.00000  Uiso   1.00
C767   C     0.83203   0.16675   0.88345   0.00000  Uiso   1.00
C768   C     0.83463   0.16680   0.61655   0.00000  Uiso   1.00
C769   C     0.79444   0.16537   0.90499   0.00000  Uiso   1.00
C770   C     0.87218   0.16922   0.59501   0.00000  Uiso   1.00
C771   C     0.79475   0.16582   0.95193   0.00000  Uiso   1.00
C772   C     0.87185   0.16955   0.54807   0.00000  Uiso   1.00
C773   C     0.83297   0.16796   0.97650   0.00000  Uiso   1.00
C774   C     0.83361   0.16797   0.52350   0.00000  Uiso   1.00
C775   C     0.87058   0.16977   0.95406   0.00000  Uiso   1.00
C776   C     0.79601   0.16608   0.54593   0.00000  Uiso   1.00
C777   C     0.75782   0.16424   0.97486   0.00000  Uiso   1.00
C778   C     0.90876   0.17141   0.52515   0.00000  Uiso   1.00
Cu779  Cu    0.83333   0.21355   0.75000   0.00000  Uiso   1.00
Cu780  Cu    0.83333   0.11978   0.75000   0.00000  Uiso   1.00
H781   H     0.89780   0.16934   0.88940   0.00000  Uiso   1.00
H782   H     0.76893   0.16279   0.61059   0.00000  Uiso   1.00
H783   H     0.72821   0.16298   0.95709   0.00000  Uiso   1.00
H784   H     0.93834   0.17281   0.54293   0.00000  Uiso   1.00
H785   H     0.70399   0.09168   0.74997   0.00000  Uiso   1.00
H786   H     0.96268   0.24166   0.75001   0.00000  Uiso   1.00
H787   H     0.96274   0.09167   0.75001   0.00000  Uiso   1.00
H788   H     0.70393   0.24167   0.74996   0.00000  Uiso   1.00
N789   N     0.83333   0.28402   0.75000   0.00000  Uiso   1.00
N790   N     0.83333   0.04931   0.75000   0.00000  Uiso   1.00
O791   O     0.77321   0.20625   0.74999   0.00000  Uiso   1.00
O792   O     0.89345   0.12709   0.75000   0.00000  Uiso   1.00
O793   O     0.89345   0.20625   0.75000   0.00000  Uiso   1.00
O794   O     0.77321   0.12709   0.74999   0.00000  Uiso   1.00
O795   O     0.83332   0.20627   0.68513   0.00000  Uiso   1.00
O796   O     0.83334   0.12707   0.81487   0.00000  Uiso   1.00
O797   O     0.83334   0.20627   0.81487   0.00000  Uiso   1.00
O798   O     0.83332   0.12707   0.68513   0.00000  Uiso   1.00
Br799  Br    0.74341   0.16294   0.86947   0.00000  Uiso   1.00
Br800  Br    0.92320   0.17178   0.63054   0.00000  Uiso   1.00
N801   N     0.71990   0.16353   0.54332   0.00000  Uiso   1.00
H802   H     0.69763   0.14361   0.52705   0.00000  Uiso   1.00
C803   C     0.70434   0.20867   0.55510   0.00000  Uiso   1.00
H804   H     0.67583   0.20456   0.57404   0.00000  Uiso   1.00
H805   H     0.69696   0.22921   0.52449   0.00000  Uiso   1.00
H806   H     0.72738   0.22768   0.57645   0.00000  Uiso   1.00
N807   N     0.94666   0.17409   0.95673   0.00000  Uiso   1.00
H808   H     0.97027   0.15630   0.97316   0.00000  Uiso   1.00
C809   C     0.95898   0.22044   0.94471   0.00000  Uiso   1.00
H810   H     0.98795   0.21883   0.92620   0.00000  Uiso   1.00
H811   H     0.96449   0.24178   0.97519   0.00000  Uiso   1.00
H812   H     0.93484   0.23716   0.92293   0.00000  Uiso   1.00
Br813  Br    0.76977   0.05614   0.68032   0.00000  Uiso   1.00
Br814  Br    0.89688   0.27719   0.81972   0.00000  Uiso   1.00
Br815  Br    0.89690   0.05607   0.81967   0.00000  Uiso   1.00
Br816  Br    0.76979   0.27726   0.68029   0.00000  Uiso   1.00
C817   C     0.08746   0.50001   0.74975   0.00000  Uiso   1.00
C818   C     0.24587   0.49999   0.75025   0.00000  Uiso   1.00
C819   C     0.09141   0.49812   0.52141   0.00000  Uiso   1.00
C820   C     0.24181   0.50531   0.97860   0.00000  Uiso   1.00
C821   C     0.02132   0.45793   0.74991   0.00000  Uiso   1.00
C822   C     0.31201   0.54207   0.75007   0.00000  Uiso   1.00
C823   C     0.31205   0.45793   0.75007   0.00000  Uiso   1.00
C824   C     0.02129   0.54208   0.74991   0.00000  Uiso   1.00
C825   C     0.29055   0.50000   0.75022   0.00000  Uiso   1.00
C826   C     0.04279   0.50001   0.74976   0.00000  Uiso   1.00
C827   C     0.14065   0.35802   0.72150   0.00000  Uiso   1.00
C828   C     0.19269   0.64198   0.77851   0.00000  Uiso   1.00
C829   C     0.19269   0.35798   0.77850   0.00000  Uiso   1.00
C830   C     0.14065   0.64201   0.72149   0.00000  Uiso   1.00
C831   C     0.16710   0.50001   0.66467   0.00000  Uiso   1.00
C832   C     0.16624   0.50000   0.83533   0.00000  Uiso   1.00
C833   C     0.20284   0.50207   0.90751   0.00000  Uiso   1.00
C834   C     0.13049   0.49833   0.59249   0.00000  Uiso   1.00
C835   C     0.16537   0.50008   0.88345   0.00000  Uiso   1.00
C836   C     0.16797   0.50013   0.61655   0.00000  Uiso   1.00
C837   C     0.12777   0.49870   0.90499   0.00000  Uiso   1.00
C838   C     0.20552   0.50256   0.59501   0.00000  Uiso   1.00
C839   C     0.12808   0.49915   0.95193   0.00000  Uiso   1.00
C840   C     0.20518   0.50288   0.54807   0.00000  Uiso   1.00
C841   C     0.16631   0.50130   0.97650   0.00000  Uiso   1.00
C842   C     0.16694   0.50131   0.52350   0.00000  Uiso   1.00
C843   C     0.20391   0.50311   0.95406   0.00000  Uiso   1.00
C844   C     0.12935   0.49942   0.54593   0.00000  Uiso   1.00
C845   C     0.09115   0.49757   0.97486   0.00000  Uiso   1.00
C846   C     0.24209   0.50475   0.52515   0.00000  Uiso   1.00
Cu847  Cu    0.16667   0.54689   0.75000   0.00000  Uiso   1.00
Cu848  Cu    0.16667   0.45311   0.75000   0.00000  Uiso   1.00
H849   H     0.23113   0.50267   0.88940   0.00000  Uiso   1.00
H850   H     0.10226   0.49612   0.61059   0.00000  Uiso   1.00
H851   H     0.06154   0.49631   0.95709   0.00000  Uiso   1.00
H852   H     0.27168   0.50615   0.54293   0.00000  Uiso   1.00
H853   H     0.03732   0.42502   0.74997   0.00000  Uiso   1.00
H854   H     0.29601   0.57499   0.75001   0.00000  Uiso   1.00
H855   H     0.29607   0.42501   0.75001   0.00000  Uiso   1.00
H856   H     0.03726   0.57500   0.74996   0.00000  Uiso   1.00
N857   N     0.16667   0.61736   0.75000   0.00000  Uiso   1.00
N858   N     0.16667   0.38264   0.75000   0.00000  Uiso   1.00
O859   O     0.10655   0.53958   0.74999   0.00000  Uiso   1.00
O860   O     0.22679   0.46042   0.75000   0.00000  Uiso   1.00
O861   O     0.22679   0.53958   0.75000   0.00000  Uiso   1.00
O862   O     0.10655   0.46042   0.74999   0.00000  Uiso   1.00
O863   O     0.16666   0.53960   0.68513   0.00000  Uiso   1.00
O864   O     0.16668   0.46040   0.81487   0.00000  Uiso   1.00
O865   O     0.16668   0.53960   0.81487   0.00000  Uiso   1.00
O866   O     0.16666   0.46040   0.68513   0.00000  Uiso   1.00
Br867  Br    0.07674   0.49627   0.86947   0.00000  Uiso   1.00
Br868  Br    0.25654   0.50511   0.63054   0.00000  Uiso   1.00
N869   N     0.05323   0.49686   0.54332   0.00000  Uiso   1.00
H870   H     0.03096   0.47694   0.52705   0.00000  Uiso   1.00
C871   C     0.03767   0.54200   0.55510   0.00000  Uiso   1.00
H872   H     0.00916   0.53790   0.57404   0.00000  Uiso   1.00
H873   H     0.03029   0.56254   0.52449   0.00000  Uiso   1.00
H874   H     0.06072   0.56102   0.57645   0.00000  Uiso   1.00
N875   N     0.27999   0.50742   0.95673   0.00000  Uiso   1.00
H876   H     0.30360   0.48963   0.97316   0.00000  Uiso   1.00
C877   C     0.29232   0.55377   0.94471   0.00000  Uiso   1.00
H878   H     0.32128   0.55216   0.92620   0.00000  Uiso   1.00
H879   H     0.29782   0.57511   0.97519   0.00000  Uiso   1.00
H880   H     0.26817   0.57049   0.92293   0.00000  Uiso   1.00
Br881  Br    0.10310   0.38947   0.68032   0.00000  Uiso   1.00
Br882  Br    0.23022   0.61052   0.81972   0.00000  Uiso   1.00
Br883  Br    0.23023   0.38940   0.81967   0.00000  Uiso   1.00
Br884  Br    0.10312   0.61059   0.68029   0.00000  Uiso   1.00
C885   C     0.42079   0.50001   0.74975   0.00000  Uiso   1.00
C886   C     0.57921   0.49999   0.75025   0.00000  Uiso   1.00
C887   C     0.42474   0.49812   0.52141   0.00000  Uiso   1.00
C888   C     0.57515   0.50531   0.97860   0.00000  Uiso   1.00
C889   C     0.35465   0.45793   0.74991   0.00000  Uiso   1.00
C890   C     0.64535   0.54207   0.75007   0.00000  Uiso   1.00
C891   C     0.64538   0.45793   0.75007   0.00000  Uiso   1.00
C892   C     0.35462   0.54208   0.74991   0.00000  Uiso   1.00
C893   C     0.62388   0.50000   0.75022   0.00000  Uiso   1.00
C894   C     0.37612   0.50001   0.74976   0.00000  Uiso   1.00
C895   C     0.47398   0.35802   0.72150   0.00000  Uiso   1.00
C896   C     0.52602   0.64198   0.77851   0.00000  Uiso   1.00
C897   C     0.52602   0.35798   0.77850   0.00000  Uiso   1.00
C898   C     0.47398   0.64201   0.72149   0.00000  Uiso   1.00
C899   C     0.50043   0.50001   0.66467   0.00000  Uiso   1.00
C900   C     0.49957   0.50000   0.83533   0.00000  Uiso   1.00
C901   C     0.53617   0.50207   0.90751   0.00000  Uiso   1.00
C902   C     0.46383   0.49833   0.59249   0.00000  Uiso   1.00
C903   C     0.49870   0.50008   0.88345   0.00000  Uiso   1.00
C904   C     0.50130   0.50013   0.61655   0.00000  Uiso   1.00
C905   C     0.46111   0.49870   0.90499   0.00000  Uiso   1.00
C906   C     0.53885   0.50256   0.59501   0.00000  Uiso   1.00
C907   C     0.46142   0.49915   0.95193   0.00000  Uiso   1.00
C908   C     0.53851   0.50288   0.54807   0.00000  Uiso   1.00
C909   C     0.49964   0.50130   0.97650   0.00000  Uiso   1.00
C910   C     0.50027   0.50131   0.52350   0.00000  Uiso   1.00
C911   C     0.53724   0.50311   0.95406   0.00000  Uiso   1.00
C912   C     0.46268   0.49942   0.54593   0.00000  Uiso   1.00
C913   C     0.42449   0.49757   0.97486   0.00000  Uiso   1.00
C914   C     0.57542   0.50475   0.52515   0.00000  Uiso   1.00
Cu915  Cu    0.50000   0.54689   0.75000   0.00000  Uiso   1.00
Cu916  Cu    0.50000   0.45311   0.75000   0.00000  Uiso   1.00
H917   H     0.56446   0.50267   0.88940   0.00000  Uiso   1.00
H918   H     0.43559   0.49612   0.61059   0.00000  Uiso   1.00
H919   H     0.39488   0.49631   0.95709   0.00000  Uiso   1.00
H920   H     0.60501   0.50615   0.54293   0.00000  Uiso   1.00
H921   H     0.37066   0.42502   0.74997   0.00000  Uiso   1.00
H922   H     0.62934   0.57499   0.75001   0.00000  Uiso   1.00
H923   H     0.62941   0.42501   0.75001   0.00000  Uiso   1.00
H924   H     0.37059   0.57500   0.74996   0.00000  Uiso   1.00
N925   N     0.50000   0.61736   0.75000   0.00000  Uiso   1.00
N926   N     0.50000   0.38264   0.75000   0.00000  Uiso   1.00
O927   O     0.43988   0.53958   0.74999   0.00000  Uiso   1.00
O928   O     0.56012   0.46042   0.75000   0.00000  Uiso   1.00
O929   O     0.56012   0.53958   0.75000   0.00000  Uiso   1.00
O930   O     0.43988   0.46042   0.74999   0.00000  Uiso   1.00
O931   O     0.49999   0.53960   0.68513   0.00000  Uiso   1.00
O932   O     0.50001   0.46040   0.81487   0.00000  Uiso   1.00
O933   O     0.50001   0.53960   0.81487   0.00000  Uiso   1.00
O934   O     0.49999   0.46040   0.68513   0.00000  Uiso   1.00
Br935  Br    0.41008   0.49627   0.86947   0.00000  Uiso   1.00
Br936  Br    0.58987   0.50511   0.63054   0.00000  Uiso   1.00
N937   N     0.38657   0.49686   0.54332   0.00000  Uiso   1.00
H938   H     0.36429   0.47694   0.52705   0.00000  Uiso   1.00
C939   C     0.37100   0.54200   0.55510   0.00000  Uiso   1.00
H940   H     0.34249   0.53790   0.57404   0.00000  Uiso   1.00
H941   H     0.36362   0.56254   0.52449   0.00000  Uiso   1.00
H942   H     0.39405   0.56102   0.57645   0.00000  Uiso   1.00
N943   N     0.61332   0.50742   0.95673   0.00000  Uiso   1.00
H944   H     0.63693   0.48963   0.97316   0.00000  Uiso   1.00
C945   C     0.62565   0.55377   0.94471   0.00000  Uiso   1.00
H946   H     0.65462   0.55216   0.92620   0.00000  Uiso   1.00
H947   H     0.63115   0.57511   0.97519   0.00000  Uiso   1.00
H948   H     0.60150   0.57049   0.92293   0.00000  Uiso   1.00
Br949  Br    0.43644   0.38947   0.68032   0.00000  Uiso   1.00
Br950  Br    0.56355   0.61052   0.81972   0.00000  Uiso   1.00
Br951  Br    0.56356   0.38940   0.81967   0.00000  Uiso   1.00
Br952  Br    0.43646   0.61059   0.68029   0.00000  Uiso   1.00
C953   C     0.75413   0.50001   0.74975   0.00000  Uiso   1.00
C954   C     0.91254   0.49999   0.75025   0.00000  Uiso   1.00
C955   C     0.75808   0.49812   0.52141   0.00000  Uiso   1.00
C956   C     0.90848   0.50531   0.97860   0.00000  Uiso   1.00
C957   C     0.68799   0.45793   0.74991   0.00000  Uiso   1.00
C958   C     0.97868   0.54207   0.75007   0.00000  Uiso   1.00
C959   C     0.97871   0.45793   0.75007   0.00000  Uiso   1.00
C960   C     0.68795   0.54208   0.74991   0.00000  Uiso   1.00
C961   C     0.95721   0.50000   0.75022   0.00000  Uiso   1.00
C962   C     0.70945   0.50001   0.74976   0.00000  Uiso   1.00
C963   C     0.80731   0.35802   0.72150   0.00000  Uiso   1.00
C964   C     0.85935   0.64198   0.77851   0.00000  Uiso   1.00
C965   C     0.85935   0.35798   0.77850   0.00000  Uiso   1.00
C966   C     0.80732   0.64201   0.72149   0.00000  Uiso   1.00
C967   C     0.83377   0.50001   0.66467   0.00000  Uiso   1.00
C968   C     0.83291   0.50000   0.83533   0.00000  Uiso   1.00
C969   C     0.86951   0.50207   0.90751   0.00000  Uiso   1.00
C970   C     0.79716   0.49833   0.59249   0.00000  Uiso   1.00
C971   C     0.83203   0.50008   0.88345   0.00000  Uiso   1.00
C972   C     0.83463   0.50013   0.61655   0.00000  Uiso   1.00
C973   C     0.79444   0.49870   0.90499   0.00000  Uiso   1.00
C974   C     0.87218   0.50256   0.59501   0.00000  Uiso   1.00
C975   C     0.79475   0.49915   0.95193   0.00000  Uiso   1.00
C976   C     0.87185   0.50288   0.54807   0.00000  Uiso   1.00
C977   C     0.83297   0.50130   0.97650   0.00000  Uiso   1.00
C978   C     0.83361   0.50131   0.52350   0.00000  Uiso   1.00
C979   C     0.87058   0.50311   0.95406   0.00000  Uiso   1.00
C980   C     0.79601   0.49942   0.54593   0.00000  Uiso   1.00
C981   C     0.75782   0.49757   0.97486   0.00000  Uiso   1.00
C982   C     0.90876   0.50475   0.52515   0.00000  Uiso   1.00
Cu983  Cu    0.83333   0.54689   0.75000   0.00000  Uiso   1.00
Cu984  Cu    0.83333   0.45311   0.75000   0.00000  Uiso   1.00
H985   H     0.89780   0.50267   0.88940   0.00000  Uiso   1.00
H986   H     0.76893   0.49612   0.61059   0.00000  Uiso   1.00
H987   H     0.72821   0.49631   0.95709   0.00000  Uiso   1.00
H988   H     0.93834   0.50615   0.54293   0.00000  Uiso   1.00
H989   H     0.70399   0.42502   0.74997   0.00000  Uiso   1.00
H990   H     0.96268   0.57499   0.75001   0.00000  Uiso   1.00
H991   H     0.96274   0.42501   0.75001   0.00000  Uiso   1.00
H992   H     0.70393   0.57500   0.74996   0.00000  Uiso   1.00
N993   N     0.83333   0.61736   0.75000   0.00000  Uiso   1.00
N994   N     0.83333   0.38264   0.75000   0.00000  Uiso   1.00
O995   O     0.77321   0.53958   0.74999   0.00000  Uiso   1.00
O996   O     0.89345   0.46042   0.75000   0.00000  Uiso   1.00
O997   O     0.89345   0.53958   0.75000   0.00000  Uiso   1.00
O998   O     0.77321   0.46042   0.74999   0.00000  Uiso   1.00
O999   O     0.83332   0.53960   0.68513   0.00000  Uiso   1.00
O1000  O     0.83334   0.46040   0.81487   0.00000  Uiso   1.00
O1001  O     0.83334   0.53960   0.81487   0.00000  Uiso   1.00
O1002  O     0.83332   0.46040   0.68513   0.00000  Uiso   1.00
Br1003 Br    0.74341   0.49627   0.86947   0.00000  Uiso   1.00
Br1004 Br    0.92320   0.50511   0.63054   0.00000  Uiso   1.00
N1005  N     0.71990   0.49686   0.54332   0.00000  Uiso   1.00
H1006  H     0.69763   0.47694   0.52705   0.00000  Uiso   1.00
C1007  C     0.70434   0.54200   0.55510   0.00000  Uiso   1.00
H1008  H     0.67583   0.53790   0.57404   0.00000  Uiso   1.00
H1009  H     0.69696   0.56254   0.52449   0.00000  Uiso   1.00
H1010  H     0.72738   0.56102   0.57645   0.00000  Uiso   1.00
N1011  N     0.94666   0.50742   0.95673   0.00000  Uiso   1.00
H1012  H     0.97027   0.48963   0.97316   0.00000  Uiso   1.00
C1013  C     0.95898   0.55377   0.94471   0.00000  Uiso   1.00
H1014  H     0.98795   0.55216   0.92620   0.00000  Uiso   1.00
H1015  H     0.96449   0.57511   0.97519   0.00000  Uiso   1.00
H1016  H     0.93484   0.57049   0.92293   0.00000  Uiso   1.00
Br1017 Br    0.76977   0.38947   0.68032   0.00000  Uiso   1.00
Br1018 Br    0.89688   0.61052   0.81972   0.00000  Uiso   1.00
Br1019 Br    0.89690   0.38940   0.81967   0.00000  Uiso   1.00
Br1020 Br    0.76979   0.61059   0.68029   0.00000  Uiso   1.00
C1021  C     0.08746   0.83334   0.74975   0.00000  Uiso   1.00
C1022  C     0.24587   0.83333   0.75025   0.00000  Uiso   1.00
C1023  C     0.09141   0.83145   0.52141   0.00000  Uiso   1.00
C1024  C     0.24181   0.83865   0.97860   0.00000  Uiso   1.00
C1025  C     0.02132   0.79127   0.74991   0.00000  Uiso   1.00
C1026  C     0.31201   0.87541   0.75007   0.00000  Uiso   1.00
C1027  C     0.31205   0.79126   0.75007   0.00000  Uiso   1.00
C1028  C     0.02129   0.87541   0.74991   0.00000  Uiso   1.00
C1029  C     0.29055   0.83333   0.75022   0.00000  Uiso   1.00
C1030  C     0.04279   0.83334   0.74976   0.00000  Uiso   1.00
C1031  C     0.14065   0.69135   0.72150   0.00000  Uiso   1.00
C1032  C     0.19269   0.97531   0.77851   0.00000  Uiso   1.00
C1033  C     0.19269   0.69132   0.77850   0.00000  Uiso   1.00
C1034  C     0.14065   0.97534   0.72149   0.00000  Uiso   1.00
C1035  C     0.16710   0.83335   0.66467   0.00000  Uiso   1.00
C1036  C     0.16624   0.83333   0.83533   0.00000  Uiso   1.00
C1037  C     0.20284   0.83540   0.90751   0.00000  Uiso   1.00
C1038  C     0.13049   0.83166   0.59249   0.00000  Uiso   1.00
C1039  C     0.16537   0.83342   0.88345   0.00000  Uiso   1.00
C1040  C     0.16797   0.83347   0.61655   0.00000  Uiso   1.00
C1041  C     0.12777   0.83203   0.90499   0.00000  Uiso   1.00
C1042  C     0.20552   0.83589   0.59501   0.00000  Uiso   1.00
C1043  C     0.12808   0.83249   0.95193   0.00000  Uiso   1.00
C1044  C     0.20518   0.83621   0.54807   0.00000  Uiso   1.00
C1045  C     0.16631   0.83463   0.97650   0.00000  Uiso   1.00
C1046  C     0.16694   0.83464   0.52350   0.00000  Uiso   1.00
C1047  C     0.20391   0.83644   0.95406   0.00000  Uiso   1.00
C1048  C     0.12935   0.83275   0.54593   0.00000  Uiso   1.00
C1049  C     0.09115   0.83090   0.97486   0.00000  Uiso   1.00
C1050  C     0.24209   0.83808   0.52515   0.00000  Uiso   1.00
Cu1051 Cu    0.16667   0.88022   0.75000   0.00000  Uiso   1.00
Cu1052 Cu    0.16667   0.78645   0.75000   0.00000  Uiso   1.00
H1053  H     0.23113   0.83601   0.88940   0.00000  Uiso   1.00
H1054  H     0.10226   0.82945   0.61059   0.00000  Uiso   1.00
H1055  H     0.06154   0.82964   0.95709   0.00000  Uiso   1.00
H1056  H     0.27168   0.83948   0.54293   0.00000  Uiso   1.00
H1057  H     0.03732   0.75835   0.74997   0.00000  Uiso   1.00
H1058  H     0.29601   0.90832   0.75001   0.00000  Uiso   1.00
H1059  H     0.29607   0.75834   0.75001   0.00000  Uiso   1.00
H1060  H     0.03726   0.90833   0.74996   0.00000  Uiso   1.00
N1061  N     0.16667   0.95069   0.75000   0.00000  Uiso   1.00
N1062  N     0.16667   0.71598   0.75000   0.00000  Uiso   1.00
O1063  O     0.10655   0.87291   0.74999   0.00000  Uiso   1.00
O1064  O     0.22679   0.79375   0.75000   0.00000  Uiso   1.00
O1065  O     0.22679   0.87291   0.75000   0.00000  Uiso   1.00
O1066  O     0.10655   0.79375   0.74999   0.00000  Uiso   1.00
O1067  O     0.16666   0.87293   0.68513   0.00000  Uiso   1.00
O1068  O     0.16668   0.79373   0.81487   0.00000  Uiso   1.00
O1069  O     0.16668   0.87293   0.81487   0.00000  Uiso   1.00
O1070  O     0.16666   0.79373   0.68513   0.00000  Uiso   1.00
Br1071 Br    0.07674   0.82960   0.86947   0.00000  Uiso   1.00
Br1072 Br    0.25654   0.83845   0.63054   0.00000  Uiso   1.00
N1073  N     0.05323   0.83019   0.54332   0.00000  Uiso   1.00
H1074  H     0.03096   0.81028   0.52705   0.00000  Uiso   1.00
C1075  C     0.03767   0.87534   0.55510   0.00000  Uiso   1.00
H1076  H     0.00916   0.87123   0.57404   0.00000  Uiso   1.00
H1077  H     0.03029   0.89588   0.52449   0.00000  Uiso   1.00
H1078  H     0.06072   0.89435   0.57645   0.00000  Uiso   1.00
N1079  N     0.27999   0.84076   0.95673   0.00000  Uiso   1.00
H1080  H     0.30360   0.82297   0.97316   0.00000  Uiso   1.00
C1081  C     0.29232   0.88710   0.94471   0.00000  Uiso   1.00
H1082  H     0.32128   0.88550   0.92620   0.00000  Uiso   1.00
H1083  H     0.29782   0.90845   0.97519   0.00000  Uiso   1.00
H1084  H     0.26817   0.90383   0.92293   0.00000  Uiso   1.00
Br1085 Br    0.10310   0.72280   0.68032   0.00000  Uiso   1.00
Br1086 Br    0.23022   0.94385   0.81972   0.00000  Uiso   1.00
Br1087 Br    0.23023   0.72273   0.81967   0.00000  Uiso   1.00
Br1088 Br    0.10312   0.94392   0.68029   0.00000  Uiso   1.00
C1089  C     0.42079   0.83334   0.74975   0.00000  Uiso   1.00
C1090  C     0.57921   0.83333   0.75025   0.00000  Uiso   1.00
C1091  C     0.42474   0.83145   0.52141   0.00000  Uiso   1.00
C1092  C     0.57515   0.83865   0.97860   0.00000  Uiso   1.00
C1093  C     0.35465   0.79127   0.74991   0.00000  Uiso   1.00
C1094  C     0.64535   0.87541   0.75007   0.00000  Uiso   1.00
C1095  C     0.64538   0.79126   0.75007   0.00000  Uiso   1.00
C1096  C     0.35462   0.87541   0.74991   0.00000  Uiso   1.00
C1097  C     0.62388   0.83333   0.75022   0.00000  Uiso   1.00
C1098  C     0.37612   0.83334   0.74976   0.00000  Uiso   1.00
C1099  C     0.47398   0.69135   0.72150   0.00000  Uiso   1.00
C1100  C     0.52602   0.97531   0.77851   0.00000  Uiso   1.00
C1101  C     0.52602   0.69132   0.77850   0.00000  Uiso   1.00
C1102  C     0.47398   0.97534   0.72149   0.00000  Uiso   1.00
C1103  C     0.50043   0.83335   0.66467   0.00000  Uiso   1.00
C1104  C     0.49957   0.83333   0.83533   0.00000  Uiso   1.00
C1105  C     0.53617   0.83540   0.90751   0.00000  Uiso   1.00
C1106  C     0.46383   0.83166   0.59249   0.00000  Uiso   1.00
C1107  C     0.49870   0.83342   0.88345   0.00000  Uiso   1.00
C1108  C     0.50130   0.83347   0.61655   0.00000  Uiso   1.00
C1109  C     0.46111   0.83203   0.90499   0.00000  Uiso   1.00
C1110  C     0.53885   0.83589   0.59501   0.00000  Uiso   1.00
C1111  C     0.46142   0.83249   0.95193   0.00000  Uiso   1.00
C1112  C     0.53851   0.83621   0.54807   0.00000  Uiso   1.00
C1113  C     0.49964   0.83463   0.97650   0.00000  Uiso   1.00
C1114  C     0.50027   0.83464   0.52350   0.00000  Uiso   1.00
C1115  C     0.53724   0.83644   0.95406   0.00000  Uiso   1.00
C1116  C     0.46268   0.83275   0.54593   0.00000  Uiso   1.00
C1117  C     0.42449   0.83090   0.97486   0.00000  Uiso   1.00
C1118  C     0.57542   0.83808   0.52515   0.00000  Uiso   1.00
Cu1119 Cu    0.50000   0.88022   0.75000   0.00000  Uiso   1.00
Cu1120 Cu    0.50000   0.78645   0.75000   0.00000  Uiso   1.00
H1121  H     0.56446   0.83601   0.88940   0.00000  Uiso   1.00
H1122  H     0.43559   0.82945   0.61059   0.00000  Uiso   1.00
H1123  H     0.39488   0.82964   0.95709   0.00000  Uiso   1.00
H1124  H     0.60501   0.83948   0.54293   0.00000  Uiso   1.00
H1125  H     0.37066   0.75835   0.74997   0.00000  Uiso   1.00
H1126  H     0.62934   0.90832   0.75001   0.00000  Uiso   1.00
H1127  H     0.62941   0.75834   0.75001   0.00000  Uiso   1.00
H1128  H     0.37059   0.90833   0.74996   0.00000  Uiso   1.00
N1129  N     0.50000   0.95069   0.75000   0.00000  Uiso   1.00
N1130  N     0.50000   0.71598   0.75000   0.00000  Uiso   1.00
O1131  O     0.43988   0.87291   0.74999   0.00000  Uiso   1.00
O1132  O     0.56012   0.79375   0.75000   0.00000  Uiso   1.00
O1133  O     0.56012   0.87291   0.75000   0.00000  Uiso   1.00
O1134  O     0.43988   0.79375   0.74999   0.00000  Uiso   1.00
O1135  O     0.49999   0.87293   0.68513   0.00000  Uiso   1.00
O1136  O     0.50001   0.79373   0.81487   0.00000  Uiso   1.00
O1137  O     0.50001   0.87293   0.81487   0.00000  Uiso   1.00
O1138  O     0.49999   0.79373   0.68513   0.00000  Uiso   1.00
Br1139 Br    0.41008   0.82960   0.86947   0.00000  Uiso   1.00
Br1140 Br    0.58987   0.83845   0.63054   0.00000  Uiso   1.00
N1141  N     0.38657   0.83019   0.54332   0.00000  Uiso   1.00
H1142  H     0.36429   0.81028   0.52705   0.00000  Uiso   1.00
C1143  C     0.37100   0.87534   0.55510   0.00000  Uiso   1.00
H1144  H     0.34249   0.87123   0.57404   0.00000  Uiso   1.00
H1145  H     0.36362   0.89588   0.52449   0.00000  Uiso   1.00
H1146  H     0.39405   0.89435   0.57645   0.00000  Uiso   1.00
N1147  N     0.61332   0.84076   0.95673   0.00000  Uiso   1.00
H1148  H     0.63693   0.82297   0.97316   0.00000  Uiso   1.00
C1149  C     0.62565   0.88710   0.94471   0.00000  Uiso   1.00
H1150  H     0.65462   0.88550   0.92620   0.00000  Uiso   1.00
H1151  H     0.63115   0.90845   0.97519   0.00000  Uiso   1.00
H1152  H     0.60150   0.90383   0.92293   0.00000  Uiso   1.00
Br1153 Br    0.43644   0.72280   0.68032   0.00000  Uiso   1.00
Br1154 Br    0.56355   0.94385   0.81972   0.00000  Uiso   1.00
Br1155 Br    0.56356   0.72273   0.81967   0.00000  Uiso   1.00
Br1156 Br    0.43646   0.94392   0.68029   0.00000  Uiso   1.00
C1157  C     0.75413   0.83334   0.74975   0.00000  Uiso   1.00
C1158  C     0.91254   0.83333   0.75025   0.00000  Uiso   1.00
C1159  C     0.75808   0.83145   0.52141   0.00000  Uiso   1.00
C1160  C     0.90848   0.83865   0.97860   0.00000  Uiso   1.00
C1161  C     0.68799   0.79127   0.74991   0.00000  Uiso   1.00
C1162  C     0.97868   0.87541   0.75007   0.00000  Uiso   1.00
C1163  C     0.97871   0.79126   0.75007   0.00000  Uiso   1.00
C1164  C     0.68795   0.87541   0.74991   0.00000  Uiso   1.00
C1165  C     0.95721   0.83333   0.75022   0.00000  Uiso   1.00
C1166  C     0.70945   0.83334   0.74976   0.00000  Uiso   1.00
C1167  C     0.80731   0.69135   0.72150   0.00000  Uiso   1.00
C1168  C     0.85935   0.97531   0.77851   0.00000  Uiso   1.00
C1169  C     0.85935   0.69132   0.77850   0.00000  Uiso   1.00
C1170  C     0.80732   0.97534   0.72149   0.00000  Uiso   1.00
C1171  C     0.83377   0.83335   0.66467   0.00000  Uiso   1.00
C1172  C     0.83291   0.83333   0.83533   0.00000  Uiso   1.00
C1173  C     0.86951   0.83540   0.90751   0.00000  Uiso   1.00
C1174  C     0.79716   0.83166   0.59249   0.00000  Uiso   1.00
C1175  C     0.83203   0.83342   0.88345   0.00000  Uiso   1.00
C1176  C     0.83463   0.83347   0.61655   0.00000  Uiso   1.00
C1177  C     0.79444   0.83203   0.90499   0.00000  Uiso   1.00
C1178  C     0.87218   0.83589   0.59501   0.00000  Uiso   1.00
C1179  C     0.79475   0.83249   0.95193   0.00000  Uiso   1.00
C1180  C     0.87185   0.83621   0.54807   0.00000  Uiso   1.00
C1181  C     0.83297   0.83463   0.97650   0.00000  Uiso   1.00
C1182  C     0.83361   0.83464   0.52350   0.00000  Uiso   1.00
C1183  C     0.87058   0.83644   0.95406   0.00000  Uiso   1.00
C1184  C     0.79601   0.83275   0.54593   0.00000  Uiso   1.00
C1185  C     0.75782   0.83090   0.97486   0.00000  Uiso   1.00
C1186  C     0.90876   0.83808   0.52515   0.00000  Uiso   1.00
Cu1187 Cu    0.83333   0.88022   0.75000   0.00000  Uiso   1.00
Cu1188 Cu    0.83333   0.78645   0.75000   0.00000  Uiso   1.00
H1189  H     0.89780   0.83601   0.88940   0.00000  Uiso   1.00
H1190  H     0.76893   0.82945   0.61059   0.00000  Uiso   1.00
H1191  H     0.72821   0.82964   0.95709   0.00000  Uiso   1.00
H1192  H     0.93834   0.83948   0.54293   0.00000  Uiso   1.00
H1193  H     0.70399   0.75835   0.74997   0.00000  Uiso   1.00
H1194  H     0.96268   0.90832   0.75001   0.00000  Uiso   1.00
H1195  H     0.96274   0.75834   0.75001   0.00000  Uiso   1.00
H1196  H     0.70393   0.90833   0.74996   0.00000  Uiso   1.00
N1197  N     0.83333   0.95069   0.75000   0.00000  Uiso   1.00
N1198  N     0.83333   0.71598   0.75000   0.00000  Uiso   1.00
O1199  O     0.77321   0.87291   0.74999   0.00000  Uiso   1.00
O1200  O     0.89345   0.79375   0.75000   0.00000  Uiso   1.00
O1201  O     0.89345   0.87291   0.75000   0.00000  Uiso   1.00
O1202  O     0.77321   0.79375   0.74999   0.00000  Uiso   1.00
O1203  O     0.83332   0.87293   0.68513   0.00000  Uiso   1.00
O1204  O     0.83334   0.79373   0.81487   0.00000  Uiso   1.00
O1205  O     0.83334   0.87293   0.81487   0.00000  Uiso   1.00
O1206  O     0.83332   0.79373   0.68513   0.00000  Uiso   1.00
Br1207 Br    0.74341   0.82960   0.86947   0.00000  Uiso   1.00
Br1208 Br    0.92320   0.83845   0.63054   0.00000  Uiso   1.00
N1209  N     0.71990   0.83019   0.54332   0.00000  Uiso   1.00
H1210  H     0.69763   0.81028   0.52705   0.00000  Uiso   1.00
C1211  C     0.70434   0.87534   0.55510   0.00000  Uiso   1.00
H1212  H     0.67583   0.87123   0.57404   0.00000  Uiso   1.00
H1213  H     0.69696   0.89588   0.52449   0.00000  Uiso   1.00
H1214  H     0.72738   0.89435   0.57645   0.00000  Uiso   1.00
N1215  N     0.94666   0.84076   0.95673   0.00000  Uiso   1.00
H1216  H     0.97027   0.82297   0.97316   0.00000  Uiso   1.00
C1217  C     0.95898   0.88710   0.94471   0.00000  Uiso   1.00
H1218  H     0.98795   0.88550   0.92620   0.00000  Uiso   1.00
H1219  H     0.96449   0.90845   0.97519   0.00000  Uiso   1.00
H1220  H     0.93484   0.90383   0.92293   0.00000  Uiso   1.00
Br1221 Br    0.76977   0.72280   0.68032   0.00000  Uiso   1.00
Br1222 Br    0.89688   0.94385   0.81972   0.00000  Uiso   1.00
Br1223 Br    0.89690   0.72273   0.81967   0.00000  Uiso   1.00
Br1224 Br    0.76979   0.94392   0.68029   0.00000  Uiso   1.00
loop_
_geom_bond_atom_site_label_1
_geom_bond_atom_site_label_2
_geom_bond_distance
_geom_bond_site_symmetry_2
_ccdc_geom_bond_type
C1     O46     1.300   .     A
C1     O43     1.300   .     A
C1     C10     1.449   .     S
C2     O45     1.300   .     A
C2     C9      1.449   .     S
C2     O44     1.300   .     A
C3     N53     1.425   .     S
C3     C28     1.410   .     A
C3     C641    1.396   1_554 S
C4     N59     1.425   .     S
C4     C27     1.410   .     A
C4     C642    1.396   .     S
C5     H37     1.083   .     S
C5     C10     1.401   .     A
C5     C143    1.382   1_455 S
C6     H38     1.083   .     S
C6     C9      1.401   .     A
C6     C76     1.382   .     S
C7     C9      1.401   .     A
C7     H39     1.083   .     S
C7     C73     1.382   .     S
C8     C10     1.401   .     A
C8     H40     1.083   .     S
C8     C142    1.382   1_455 S
C11    N42     1.376   .     A
C11    Br65    1.928   .     S
C11    C422    1.425   1_545 S
C12    Br66    1.928   .     S
C12    N41     1.376   .     A
C12    C217    1.425   .     S
C13    N42     1.376   .     A
C13    Br67    1.928   .     S
C13    C420    1.425   1_545 S
C14    Br68    1.928   .     S
C14    N41     1.376   .     A
C14    C215    1.425   .     S
C15    O47     1.298   .     A
C15    C20     1.445   .     S
C15    O50     1.298   .     A
C16    O48     1.298   .     A
C16    O49     1.298   .     A
C16    C19     1.445   .     S
C17    H33     1.084   .     S
C17    C19     1.391   .     A
C17    C27     1.396   .     A
C18    H34     1.084   .     S
C18    C20     1.391   .     A
C18    C28     1.396   .     A
C19    C21     1.402   .     A
C20    C22     1.402   .     A
C21    Br51    1.935   .     S
C21    C23     1.408   .     A
C22    Br52    1.935   .     S
C22    C24     1.408   .     A
C23    C29     1.405   .     A
C23    C25     1.419   .     A
C24    C26     1.419   .     A
C24    C30     1.404   .     A
C25    C27     1.417   .     A
C25    C638    1.409   .     S
C26    C28     1.416   .     A
C26    C637    1.409   1_554 S
C29    H35     1.081   .     S
C29    C615    1.396   .     S
C30    H36     1.081   .     S
C30    C616    1.396   1_554 S
Cu31   Cu32    2.708   .     S
Cu31   N41     2.035   .     S
Cu31   O47     1.957   .     S
Cu31   O43     1.962   .     S
Cu31   O49     1.957   .     S
Cu31   O45     1.961   .     S
Cu32   O44     1.962   .     S
Cu32   O48     1.957   .     S
Cu32   O50     1.957   .     S
Cu32   N42     2.035   .     S
Cu32   O46     1.961   .     S
N53    H54     1.032   .     S
N53    C55     1.447   .     S
C55    H56     1.110   .     S
C55    H57     1.111   .     S
C55    H58     1.111   .     S
N59    H60     1.032   .     S
N59    C61     1.447   .     S
C61    H64     1.111   .     S
C61    H62     1.111   .     S
C61    H63     1.111   .     S
C69    O114    1.300   .     A
C69    O111    1.300   .     A
C69    C78     1.449   .     S
C70    O113    1.300   .     A
C70    C77     1.449   .     S
C70    O112    1.300   .     A
C71    N121    1.425   .     S
C71    C96     1.410   .     A
C71    C709    1.396   1_554 S
C72    N127    1.425   .     S
C72    C95     1.410   .     A
C72    C710    1.396   .     S
C73    H105    1.083   .     S
C73    C78     1.401   .     A
C74    H106    1.083   .     S
C74    C77     1.401   .     A
C74    C144    1.382   .     S
C75    C77     1.401   .     A
C75    H107    1.083   .     S
C75    C141    1.382   .     S
C76    C78     1.401   .     A
C76    H108    1.083   .     S
C79    N110    1.376   .     A
C79    Br133   1.928   .     S
C79    C490    1.425   1_545 S
C80    Br134   1.928   .     S
C80    N109    1.376   .     A
C80    C285    1.425   .     S
C81    N110    1.376   .     A
C81    Br135   1.928   .     S
C81    C488    1.425   1_545 S
C82    Br136   1.928   .     S
C82    N109    1.376   .     A
C82    C283    1.425   .     S
C83    O115    1.298   .     A
C83    C88     1.445   .     S
C83    O118    1.298   .     A
C84    O116    1.298   .     A
C84    O117    1.298   .     A
C84    C87     1.445   .     S
C85    H101    1.084   .     S
C85    C87     1.391   .     A
C85    C95     1.396   .     A
C86    H102    1.084   .     S
C86    C88     1.391   .     A
C86    C96     1.396   .     A
C87    C89     1.402   .     A
C88    C90     1.402   .     A
C89    Br119   1.935   .     S
C89    C91     1.408   .     A
C90    Br120   1.935   .     S
C90    C92     1.408   .     A
C91    C97     1.405   .     A
C91    C93     1.419   .     A
C92    C94     1.419   .     A
C92    C98     1.404   .     A
C93    C95     1.417   .     A
C93    C706    1.409   .     S
C94    C96     1.416   .     A
C94    C705    1.409   1_554 S
C97    H103    1.081   .     S
C97    C683    1.396   .     S
C98    H104    1.081   .     S
C98    C684    1.396   1_554 S
Cu99   Cu100   2.708   .     S
Cu99   N109    2.035   .     S
Cu99   O115    1.957   .     S
Cu99   O111    1.962   .     S
Cu99   O117    1.957   .     S
Cu99   O113    1.961   .     S
Cu100  O112    1.962   .     S
Cu100  O116    1.957   .     S
Cu100  O118    1.957   .     S
Cu100  N110    2.035   .     S
Cu100  O114    1.961   .     S
N121   H122    1.032   .     S
N121   C123    1.447   .     S
C123   H124    1.110   .     S
C123   H125    1.111   .     S
C123   H126    1.111   .     S
N127   H128    1.032   .     S
N127   C129    1.447   .     S
C129   H132    1.111   .     S
C129   H130    1.111   .     S
C129   H131    1.111   .     S
C137   O182    1.300   .     A
C137   O179    1.300   .     A
C137   C146    1.449   .     S
C138   O181    1.300   .     A
C138   C145    1.449   .     S
C138   O180    1.300   .     A
C139   N189    1.425   .     S
C139   C164    1.410   .     A
C139   C777    1.396   1_554 S
C140   N195    1.425   .     S
C140   C163    1.410   .     A
C140   C778    1.396   .     S
C141   H173    1.083   .     S
C141   C146    1.401   .     A
C142   H174    1.083   .     S
C142   C145    1.401   .     A
C142   C8      1.382   1_655 S
C143   C145    1.401   .     A
C143   H175    1.083   .     S
C143   C5      1.382   1_655 S
C144   C146    1.401   .     A
C144   H176    1.083   .     S
C147   N178    1.376   .     A
C147   Br201   1.928   .     S
C147   C558    1.425   1_545 S
C148   Br202   1.928   .     S
C148   N177    1.376   .     A
C148   C353    1.425   .     S
C149   N178    1.376   .     A
C149   Br203   1.928   .     S
C149   C556    1.425   1_545 S
C150   Br204   1.928   .     S
C150   N177    1.376   .     A
C150   C351    1.425   .     S
C151   O183    1.298   .     A
C151   C156    1.445   .     S
C151   O186    1.298   .     A
C152   O184    1.298   .     A
C152   O185    1.298   .     A
C152   C155    1.445   .     S
C153   H169    1.084   .     S
C153   C155    1.391   .     A
C153   C163    1.396   .     A
C154   H170    1.084   .     S
C154   C156    1.391   .     A
C154   C164    1.396   .     A
C155   C157    1.402   .     A
C156   C158    1.402   .     A
C157   Br187   1.935   .     S
C157   C159    1.408   .     A
C158   Br188   1.935   .     S
C158   C160    1.408   .     A
C159   C165    1.405   .     A
C159   C161    1.419   .     A
C160   C162    1.419   .     A
C160   C166    1.404   .     A
C161   C163    1.417   .     A
C161   C774    1.409   .     S
C162   C164    1.416   .     A
C162   C773    1.409   1_554 S
C165   H171    1.081   .     S
C165   C751    1.396   .     S
C166   H172    1.081   .     S
C166   C752    1.396   1_554 S
Cu167  Cu168   2.708   .     S
Cu167  N177    2.035   .     S
Cu167  O183    1.957   .     S
Cu167  O179    1.962   .     S
Cu167  O185    1.957   .     S
Cu167  O181    1.961   .     S
Cu168  O180    1.962   .     S
Cu168  O184    1.957   .     S
Cu168  O186    1.957   .     S
Cu168  N178    2.035   .     S
Cu168  O182    1.961   .     S
N189   H190    1.032   .     S
N189   C191    1.447   .     S
C191   H192    1.110   .     S
C191   H193    1.111   .     S
C191   H194    1.111   .     S
N195   H196    1.032   .     S
N195   C197    1.447   .     S
C197   H200    1.111   .     S
C197   H198    1.111   .     S
C197   H199    1.111   .     S
C205   O250    1.300   .     A
C205   O247    1.300   .     A
C205   C214    1.449   .     S
C206   O249    1.300   .     A
C206   C213    1.449   .     S
C206   O248    1.300   .     A
C207   N257    1.425   .     S
C207   C232    1.410   .     A
C207   C845    1.396   1_554 S
C208   N263    1.425   .     S
C208   C231    1.410   .     A
C208   C846    1.396   .     S
C209   H241    1.083   .     S
C209   C214    1.401   .     A
C209   C347    1.382   1_455 S
C210   H242    1.083   .     S
C210   C213    1.401   .     A
C210   C280    1.382   .     S
C211   C213    1.401   .     A
C211   H243    1.083   .     S
C211   C277    1.382   .     S
C212   C214    1.401   .     A
C212   H244    1.083   .     S
C212   C346    1.382   1_455 S
C215   N246    1.376   .     A
C215   Br269   1.928   .     S
C216   Br270   1.928   .     S
C216   N245    1.376   .     A
C216   C421    1.425   .     S
C217   N246    1.376   .     A
C217   Br271   1.928   .     S
C218   Br272   1.928   .     S
C218   N245    1.376   .     A
C218   C419    1.425   .     S
C219   O251    1.298   .     A
C219   C224    1.445   .     S
C219   O254    1.298   .     A
C220   O252    1.298   .     A
C220   O253    1.298   .     A
C220   C223    1.445   .     S
C221   H237    1.084   .     S
C221   C223    1.391   .     A
C221   C231    1.396   .     A
C222   H238    1.084   .     S
C222   C224    1.391   .     A
C222   C232    1.396   .     A
C223   C225    1.402   .     A
C224   C226    1.402   .     A
C225   Br255   1.935   .     S
C225   C227    1.408   .     A
C226   Br256   1.935   .     S
C226   C228    1.408   .     A
C227   C233    1.405   .     A
C227   C229    1.419   .     A
C228   C230    1.419   .     A
C228   C234    1.404   .     A
C229   C231    1.417   .     A
C229   C842    1.409   .     S
C230   C232    1.416   .     A
C230   C841    1.409   1_554 S
C233   H239    1.081   .     S
C233   C819    1.396   .     S
C234   H240    1.081   .     S
C234   C820    1.396   1_554 S
Cu235  Cu236   2.708   .     S
Cu235  N245    2.035   .     S
Cu235  O251    1.957   .     S
Cu235  O247    1.962   .     S
Cu235  O253    1.957   .     S
Cu235  O249    1.961   .     S
Cu236  O248    1.962   .     S
Cu236  O252    1.957   .     S
Cu236  O254    1.957   .     S
Cu236  N246    2.035   .     S
Cu236  O250    1.961   .     S
N257   H258    1.032   .     S
N257   C259    1.447   .     S
C259   H260    1.110   .     S
C259   H261    1.111   .     S
C259   H262    1.111   .     S
N263   H264    1.032   .     S
N263   C265    1.447   .     S
C265   H268    1.111   .     S
C265   H266    1.111   .     S
C265   H267    1.111   .     S
C273   O318    1.300   .     A
C273   O315    1.300   .     A
C273   C282    1.449   .     S
C274   O317    1.300   .     A
C274   C281    1.449   .     S
C274   O316    1.300   .     A
C275   N325    1.425   .     S
C275   C300    1.410   .     A
C275   C913    1.396   1_554 S
C276   N331    1.425   .     S
C276   C299    1.410   .     A
C276   C914    1.396   .     S
C277   H309    1.083   .     S
C277   C282    1.401   .     A
C278   H310    1.083   .     S
C278   C281    1.401   .     A
C278   C348    1.382   .     S
C279   C281    1.401   .     A
C279   H311    1.083   .     S
C279   C345    1.382   .     S
C280   C282    1.401   .     A
C280   H312    1.083   .     S
C283   N314    1.376   .     A
C283   Br337   1.928   .     S
C284   Br338   1.928   .     S
C284   N313    1.376   .     A
C284   C489    1.425   .     S
C285   N314    1.376   .     A
C285   Br339   1.928   .     S
C286   Br340   1.928   .     S
C286   N313    1.376   .     A
C286   C487    1.425   .     S
C287   O319    1.298   .     A
C287   C292    1.445   .     S
C287   O322    1.298   .     A
C288   O320    1.298   .     A
C288   O321    1.298   .     A
C288   C291    1.445   .     S
C289   H305    1.084   .     S
C289   C291    1.391   .     A
C289   C299    1.396   .     A
C290   H306    1.084   .     S
C290   C292    1.391   .     A
C290   C300    1.396   .     A
C291   C293    1.402   .     A
C292   C294    1.402   .     A
C293   Br323   1.935   .     S
C293   C295    1.408   .     A
C294   Br324   1.935   .     S
C294   C296    1.408   .     A
C295   C301    1.405   .     A
C295   C297    1.419   .     A
C296   C298    1.419   .     A
C296   C302    1.404   .     A
C297   C299    1.417   .     A
C297   C910    1.409   .     S
C298   C300    1.416   .     A
C298   C909    1.409   1_554 S
C301   H307    1.081   .     S
C301   C887    1.396   .     S
C302   H308    1.081   .     S
C302   C888    1.396   1_554 S
Cu303  Cu304   2.708   .     S
Cu303  N313    2.035   .     S
Cu303  O319    1.957   .     S
Cu303  O315    1.962   .     S
Cu303  O321    1.957   .     S
Cu303  O317    1.961   .     S
Cu304  O316    1.962   .     S
Cu304  O320    1.957   .     S
Cu304  O322    1.957   .     S
Cu304  N314    2.035   .     S
Cu304  O318    1.961   .     S
N325   H326    1.032   .     S
N325   C327    1.447   .     S
C327   H328    1.110   .     S
C327   H329    1.111   .     S
C327   H330    1.111   .     S
N331   H332    1.032   .     S
N331   C333    1.447   .     S
C333   H336    1.111   .     S
C333   H334    1.111   .     S
C333   H335    1.111   .     S
C341   O386    1.300   .     A
C341   O383    1.300   .     A
C341   C350    1.449   .     S
C342   O385    1.300   .     A
C342   C349    1.449   .     S
C342   O384    1.300   .     A
C343   N393    1.425   .     S
C343   C368    1.410   .     A
C343   C981    1.396   1_554 S
C344   N399    1.425   .     S
C344   C367    1.410   .     A
C344   C982    1.396   .     S
C345   H377    1.083   .     S
C345   C350    1.401   .     A
C346   H378    1.083   .     S
C346   C349    1.401   .     A
C346   C212    1.382   1_655 S
C347   C349    1.401   .     A
C347   H379    1.083   .     S
C347   C209    1.382   1_655 S
C348   C350    1.401   .     A
C348   H380    1.083   .     S
C351   N382    1.376   .     A
C351   Br405   1.928   .     S
C352   Br406   1.928   .     S
C352   N381    1.376   .     A
C352   C557    1.425   .     S
C353   N382    1.376   .     A
C353   Br407   1.928   .     S
C354   Br408   1.928   .     S
C354   N381    1.376   .     A
C354   C555    1.425   .     S
C355   O387    1.298   .     A
C355   C360    1.445   .     S
C355   O390    1.298   .     A
C356   O388    1.298   .     A
C356   O389    1.298   .     A
C356   C359    1.445   .     S
C357   H373    1.084   .     S
C357   C359    1.391   .     A
C357   C367    1.396   .     A
C358   H374    1.084   .     S
C358   C360    1.391   .     A
C358   C368    1.396   .     A
C359   C361    1.402   .     A
C360   C362    1.402   .     A
C361   Br391   1.935   .     S
C361   C363    1.408   .     A
C362   Br392   1.935   .     S
C362   C364    1.408   .     A
C363   C369    1.405   .     A
C363   C365    1.419   .     A
C364   C366    1.419   .     A
C364   C370    1.404   .     A
C365   C367    1.417   .     A
C365   C978    1.409   .     S
C366   C368    1.416   .     A
C366   C977    1.409   1_554 S
C369   H375    1.081   .     S
C369   C955    1.396   .     S
C370   H376    1.081   .     S
C370   C956    1.396   1_554 S
Cu371  Cu372   2.708   .     S
Cu371  N381    2.035   .     S
Cu371  O387    1.957   .     S
Cu371  O383    1.962   .     S
Cu371  O389    1.957   .     S
Cu371  O385    1.961   .     S
Cu372  O384    1.962   .     S
Cu372  O388    1.957   .     S
Cu372  O390    1.957   .     S
Cu372  N382    2.035   .     S
Cu372  O386    1.961   .     S
N393   H394    1.032   .     S
N393   C395    1.447   .     S
C395   H396    1.110   .     S
C395   H397    1.111   .     S
C395   H398    1.111   .     S
N399   H400    1.032   .     S
N399   C401    1.447   .     S
C401   H404    1.111   .     S
C401   H402    1.111   .     S
C401   H403    1.111   .     S
C409   O454    1.300   .     A
C409   O451    1.300   .     A
C409   C418    1.449   .     S
C410   O453    1.300   .     A
C410   C417    1.449   .     S
C410   O452    1.300   .     A
C411   N461    1.425   .     S
C411   C436    1.410   .     A
C411   C1049   1.396   1_554 S
C412   N467    1.425   .     S
C412   C435    1.410   .     A
C412   C1050   1.396   .     S
C413   H445    1.083   .     S
C413   C418    1.401   .     A
C413   C551    1.382   1_455 S
C414   H446    1.083   .     S
C414   C417    1.401   .     A
C414   C484    1.382   .     S
C415   C417    1.401   .     A
C415   H447    1.083   .     S
C415   C481    1.382   .     S
C416   C418    1.401   .     A
C416   H448    1.083   .     S
C416   C550    1.382   1_455 S
C419   N450    1.376   .     A
C419   Br473   1.928   .     S
C420   Br474   1.928   .     S
C420   N449    1.376   .     A
C420   C13     1.425   1_565 S
C421   N450    1.376   .     A
C421   Br475   1.928   .     S
C422   Br476   1.928   .     S
C422   N449    1.376   .     A
C422   C11     1.425   1_565 S
C423   O455    1.298   .     A
C423   C428    1.445   .     S
C423   O458    1.298   .     A
C424   O456    1.298   .     A
C424   O457    1.298   .     A
C424   C427    1.445   .     S
C425   H441    1.084   .     S
C425   C427    1.391   .     A
C425   C435    1.396   .     A
C426   H442    1.084   .     S
C426   C428    1.391   .     A
C426   C436    1.396   .     A
C427   C429    1.402   .     A
C428   C430    1.402   .     A
C429   Br459   1.935   .     S
C429   C431    1.408   .     A
C430   Br460   1.935   .     S
C430   C432    1.408   .     A
C431   C437    1.405   .     A
C431   C433    1.419   .     A
C432   C434    1.419   .     A
C432   C438    1.404   .     A
C433   C435    1.417   .     A
C433   C1046   1.409   .     S
C434   C436    1.416   .     A
C434   C1045   1.409   1_554 S
C437   H443    1.081   .     S
C437   C1023   1.396   .     S
C438   H444    1.081   .     S
C438   C1024   1.396   1_554 S
Cu439  Cu440   2.708   .     S
Cu439  N449    2.035   .     S
Cu439  O455    1.957   .     S
Cu439  O451    1.962   .     S
Cu439  O457    1.957   .     S
Cu439  O453    1.961   .     S
Cu440  O452    1.962   .     S
Cu440  O456    1.957   .     S
Cu440  O458    1.957   .     S
Cu440  N450    2.035   .     S
Cu440  O454    1.961   .     S
N461   H462    1.032   .     S
N461   C463    1.447   .     S
C463   H464    1.110   .     S
C463   H465    1.111   .     S
C463   H466    1.111   .     S
N467   H468    1.032   .     S
N467   C469    1.447   .     S
C469   H472    1.111   .     S
C469   H470    1.111   .     S
C469   H471    1.111   .     S
C477   O522    1.300   .     A
C477   O519    1.300   .     A
C477   C486    1.449   .     S
C478   O521    1.300   .     A
C478   C485    1.449   .     S
C478   O520    1.300   .     A
C479   N529    1.425   .     S
C479   C504    1.410   .     A
C479   C1117   1.396   1_554 S
C480   N535    1.425   .     S
C480   C503    1.410   .     A
C480   C1118   1.396   .     S
C481   H513    1.083   .     S
C481   C486    1.401   .     A
C482   H514    1.083   .     S
C482   C485    1.401   .     A
C482   C552    1.382   .     S
C483   C485    1.401   .     A
C483   H515    1.083   .     S
C483   C549    1.382   .     S
C484   C486    1.401   .     A
C484   H516    1.083   .     S
C487   N518    1.376   .     A
C487   Br541   1.928   .     S
C488   Br542   1.928   .     S
C488   N517    1.376   .     A
C488   C81     1.425   1_565 S
C489   N518    1.376   .     A
C489   Br543   1.928   .     S
C490   Br544   1.928   .     S
C490   N517    1.376   .     A
C490   C79     1.425   1_565 S
C491   O523    1.298   .     A
C491   C496    1.445   .     S
C491   O526    1.298   .     A
C492   O524    1.298   .     A
C492   O525    1.298   .     A
C492   C495    1.445   .     S
C493   H509    1.084   .     S
C493   C495    1.391   .     A
C493   C503    1.396   .     A
C494   H510    1.084   .     S
C494   C496    1.391   .     A
C494   C504    1.396   .     A
C495   C497    1.402   .     A
C496   C498    1.402   .     A
C497   Br527   1.935   .     S
C497   C499    1.408   .     A
C498   Br528   1.935   .     S
C498   C500    1.408   .     A
C499   C505    1.405   .     A
C499   C501    1.419   .     A
C500   C502    1.419   .     A
C500   C506    1.404   .     A
C501   C503    1.417   .     A
C501   C1114   1.409   .     S
C502   C504    1.416   .     A
C502   C1113   1.409   1_554 S
C505   H511    1.081   .     S
C505   C1091   1.396   .     S
C506   H512    1.081   .     S
C506   C1092   1.396   1_554 S
Cu507  Cu508   2.708   .     S
Cu507  N517    2.035   .     S
Cu507  O523    1.957   .     S
Cu507  O519    1.962   .     S
Cu507  O525    1.957   .     S
Cu507  O521    1.961   .     S
Cu508  O520    1.962   .     S
Cu508  O524    1.957   .     S
Cu508  O526    1.957   .     S
Cu508  N518    2.035   .     S
Cu508  O522    1.961   .     S
N529   H530    1.032   .     S
N529   C531    1.447   .     S
C531   H532    1.110   .     S
C531   H533    1.111   .     S
C531   H534    1.111   .     S
N535   H536    1.032   .     S
N535   C537    1.447   .     S
C537   H540    1.111   .     S
C537   H538    1.111   .     S
C537   H539    1.111   .     S
C545   O590    1.300   .     A
C545   O587    1.300   .     A
C545   C554    1.449   .     S
C546   O589    1.300   .     A
C546   C553    1.449   .     S
C546   O588    1.300   .     A
C547   N597    1.425   .     S
C547   C572    1.410   .     A
C547   C1185   1.396   1_554 S
C548   N603    1.425   .     S
C548   C571    1.410   .     A
C548   C1186   1.396   .     S
C549   H581    1.083   .     S
C549   C554    1.401   .     A
C550   H582    1.083   .     S
C550   C553    1.401   .     A
C550   C416    1.382   1_655 S
C551   C553    1.401   .     A
C551   H583    1.083   .     S
C551   C413    1.382   1_655 S
C552   C554    1.401   .     A
C552   H584    1.083   .     S
C555   N586    1.376   .     A
C555   Br609   1.928   .     S
C556   Br610   1.928   .     S
C556   N585    1.376   .     A
C556   C149    1.425   1_565 S
C557   N586    1.376   .     A
C557   Br611   1.928   .     S
C558   Br612   1.928   .     S
C558   N585    1.376   .     A
C558   C147    1.425   1_565 S
C559   O591    1.298   .     A
C559   C564    1.445   .     S
C559   O594    1.298   .     A
C560   O592    1.298   .     A
C560   O593    1.298   .     A
C560   C563    1.445   .     S
C561   H577    1.084   .     S
C561   C563    1.391   .     A
C561   C571    1.396   .     A
C562   H578    1.084   .     S
C562   C564    1.391   .     A
C562   C572    1.396   .     A
C563   C565    1.402   .     A
C564   C566    1.402   .     A
C565   Br595   1.935   .     S
C565   C567    1.408   .     A
C566   Br596   1.935   .     S
C566   C568    1.408   .     A
C567   C573    1.405   .     A
C567   C569    1.419   .     A
C568   C570    1.419   .     A
C568   C574    1.404   .     A
C569   C571    1.417   .     A
C569   C1182   1.409   .     S
C570   C572    1.416   .     A
C570   C1181   1.409   1_554 S
C573   H579    1.081   .     S
C573   C1159   1.396   .     S
C574   H580    1.081   .     S
C574   C1160   1.396   1_554 S
Cu575  Cu576   2.708   .     S
Cu575  N585    2.035   .     S
Cu575  O591    1.957   .     S
Cu575  O587    1.962   .     S
Cu575  O593    1.957   .     S
Cu575  O589    1.961   .     S
Cu576  O588    1.962   .     S
Cu576  O592    1.957   .     S
Cu576  O594    1.957   .     S
Cu576  N586    2.035   .     S
Cu576  O590    1.961   .     S
N597   H598    1.032   .     S
N597   C599    1.447   .     S
C599   H600    1.110   .     S
C599   H601    1.111   .     S
C599   H602    1.111   .     S
N603   H604    1.032   .     S
N603   C605    1.447   .     S
C605   H608    1.111   .     S
C605   H606    1.111   .     S
C605   H607    1.111   .     S
C613   O658    1.300   .     A
C613   O655    1.300   .     A
C613   C622    1.449   .     S
C614   O657    1.300   .     A
C614   C621    1.449   .     S
C614   O656    1.300   .     A
C615   N665    1.425   .     S
C615   C640    1.410   .     A
C616   N671    1.425   .     S
C616   C639    1.410   .     A
C616   C30     1.396   1_556 S
C617   H649    1.083   .     S
C617   C622    1.401   .     A
C617   C755    1.382   1_455 S
C618   H650    1.083   .     S
C618   C621    1.401   .     A
C618   C688    1.382   .     S
C619   C621    1.401   .     A
C619   H651    1.083   .     S
C619   C685    1.382   .     S
C620   C622    1.401   .     A
C620   H652    1.083   .     S
C620   C754    1.382   1_455 S
C623   N654    1.376   .     A
C623   Br677   1.928   .     S
C623   C1034   1.425   1_545 S
C624   Br678   1.928   .     S
C624   N653    1.376   .     A
C624   C829    1.425   .     S
C625   N654    1.376   .     A
C625   Br679   1.928   .     S
C625   C1032   1.425   1_545 S
C626   Br680   1.928   .     S
C626   N653    1.376   .     A
C626   C827    1.425   .     S
C627   O659    1.298   .     A
C627   C632    1.445   .     S
C627   O662    1.298   .     A
C628   O660    1.298   .     A
C628   O661    1.298   .     A
C628   C631    1.445   .     S
C629   H645    1.084   .     S
C629   C631    1.391   .     A
C629   C639    1.396   .     A
C630   H646    1.084   .     S
C630   C632    1.391   .     A
C630   C640    1.396   .     A
C631   C633    1.402   .     A
C632   C634    1.402   .     A
C633   Br663   1.935   .     S
C633   C635    1.408   .     A
C634   Br664   1.935   .     S
C634   C636    1.408   .     A
C635   C641    1.405   .     A
C635   C637    1.419   .     A
C636   C638    1.419   .     A
C636   C642    1.404   .     A
C637   C639    1.417   .     A
C637   C26     1.409   1_556 S
C638   C640    1.416   .     A
C641   H647    1.081   .     S
C641   C3      1.396   1_556 S
C642   H648    1.081   .     S
Cu643  Cu644   2.708   .     S
Cu643  N653    2.035   .     S
Cu643  O659    1.957   .     S
Cu643  O655    1.962   .     S
Cu643  O661    1.957   .     S
Cu643  O657    1.961   .     S
Cu644  O656    1.962   .     S
Cu644  O660    1.957   .     S
Cu644  O662    1.957   .     S
Cu644  N654    2.035   .     S
Cu644  O658    1.961   .     S
N665   H666    1.032   .     S
N665   C667    1.447   .     S
C667   H668    1.110   .     S
C667   H669    1.111   .     S
C667   H670    1.111   .     S
N671   H672    1.032   .     S
N671   C673    1.447   .     S
C673   H676    1.111   .     S
C673   H674    1.111   .     S
C673   H675    1.111   .     S
C681   O726    1.300   .     A
C681   O723    1.300   .     A
C681   C690    1.449   .     S
C682   O725    1.300   .     A
C682   C689    1.449   .     S
C682   O724    1.300   .     A
C683   N733    1.425   .     S
C683   C708    1.410   .     A
C684   N739    1.425   .     S
C684   C707    1.410   .     A
C684   C98     1.396   1_556 S
C685   H717    1.083   .     S
C685   C690    1.401   .     A
C686   H718    1.083   .     S
C686   C689    1.401   .     A
C686   C756    1.382   .     S
C687   C689    1.401   .     A
C687   H719    1.083   .     S
C687   C753    1.382   .     S
C688   C690    1.401   .     A
C688   H720    1.083   .     S
C691   N722    1.376   .     A
C691   Br745   1.928   .     S
C691   C1102   1.425   1_545 S
C692   Br746   1.928   .     S
C692   N721    1.376   .     A
C692   C897    1.425   .     S
C693   N722    1.376   .     A
C693   Br747   1.928   .     S
C693   C1100   1.425   1_545 S
C694   Br748   1.928   .     S
C694   N721    1.376   .     A
C694   C895    1.425   .     S
C695   O727    1.298   .     A
C695   C700    1.445   .     S
C695   O730    1.298   .     A
C696   O728    1.298   .     A
C696   O729    1.298   .     A
C696   C699    1.445   .     S
C697   H713    1.084   .     S
C697   C699    1.391   .     A
C697   C707    1.396   .     A
C698   H714    1.084   .     S
C698   C700    1.391   .     A
C698   C708    1.396   .     A
C699   C701    1.402   .     A
C700   C702    1.402   .     A
C701   Br731   1.935   .     S
C701   C703    1.408   .     A
C702   Br732   1.935   .     S
C702   C704    1.408   .     A
C703   C709    1.405   .     A
C703   C705    1.419   .     A
C704   C706    1.419   .     A
C704   C710    1.404   .     A
C705   C707    1.417   .     A
C705   C94     1.409   1_556 S
C706   C708    1.416   .     A
C709   H715    1.081   .     S
C709   C71     1.396   1_556 S
C710   H716    1.081   .     S
Cu711  Cu712   2.708   .     S
Cu711  N721    2.035   .     S
Cu711  O727    1.957   .     S
Cu711  O723    1.962   .     S
Cu711  O729    1.957   .     S
Cu711  O725    1.961   .     S
Cu712  O724    1.962   .     S
Cu712  O728    1.957   .     S
Cu712  O730    1.957   .     S
Cu712  N722    2.035   .     S
Cu712  O726    1.961   .     S
N733   H734    1.032   .     S
N733   C735    1.447   .     S
C735   H736    1.110   .     S
C735   H737    1.111   .     S
C735   H738    1.111   .     S
N739   H740    1.032   .     S
N739   C741    1.447   .     S
C741   H744    1.111   .     S
C741   H742    1.111   .     S
C741   H743    1.111   .     S
C749   O794    1.300   .     A
C749   O791    1.300   .     A
C749   C758    1.449   .     S
C750   O793    1.300   .     A
C750   C757    1.449   .     S
C750   O792    1.300   .     A
C751   N801    1.425   .     S
C751   C776    1.410   .     A
C752   N807    1.425   .     S
C752   C775    1.410   .     A
C752   C166    1.396   1_556 S
C753   H785    1.083   .     S
C753   C758    1.401   .     A
C754   H786    1.083   .     S
C754   C757    1.401   .     A
C754   C620    1.382   1_655 S
C755   C757    1.401   .     A
C755   H787    1.083   .     S
C755   C617    1.382   1_655 S
C756   C758    1.401   .     A
C756   H788    1.083   .     S
C759   N790    1.376   .     A
C759   Br813   1.928   .     S
C759   C1170   1.425   1_545 S
C760   Br814   1.928   .     S
C760   N789    1.376   .     A
C760   C965    1.425   .     S
C761   N790    1.376   .     A
C761   Br815   1.928   .     S
C761   C1168   1.425   1_545 S
C762   Br816   1.928   .     S
C762   N789    1.376   .     A
C762   C963    1.425   .     S
C763   O795    1.298   .     A
C763   C768    1.445   .     S
C763   O798    1.298   .     A
C764   O796    1.298   .     A
C764   O797    1.298   .     A
C764   C767    1.445   .     S
C765   H781    1.084   .     S
C765   C767    1.391   .     A
C765   C775    1.396   .     A
C766   H782    1.084   .     S
C766   C768    1.391   .     A
C766   C776    1.396   .     A
C767   C769    1.402   .     A
C768   C770    1.402   .     A
C769   Br799   1.935   .     S
C769   C771    1.408   .     A
C770   Br800   1.935   .     S
C770   C772    1.408   .     A
C771   C777    1.405   .     A
C771   C773    1.419   .     A
C772   C774    1.419   .     A
C772   C778    1.404   .     A
C773   C775    1.417   .     A
C773   C162    1.409   1_556 S
C774   C776    1.416   .     A
C777   H783    1.081   .     S
C777   C139    1.396   1_556 S
C778   H784    1.081   .     S
Cu779  Cu780   2.708   .     S
Cu779  N789    2.035   .     S
Cu779  O795    1.957   .     S
Cu779  O791    1.962   .     S
Cu779  O797    1.957   .     S
Cu779  O793    1.961   .     S
Cu780  O792    1.962   .     S
Cu780  O796    1.957   .     S
Cu780  O798    1.957   .     S
Cu780  N790    2.035   .     S
Cu780  O794    1.961   .     S
N801   H802    1.032   .     S
N801   C803    1.447   .     S
C803   H804    1.110   .     S
C803   H805    1.111   .     S
C803   H806    1.111   .     S
N807   H808    1.032   .     S
N807   C809    1.447   .     S
C809   H812    1.111   .     S
C809   H810    1.111   .     S
C809   H811    1.111   .     S
C817   O862    1.300   .     A
C817   O859    1.300   .     A
C817   C826    1.449   .     S
C818   O861    1.300   .     A
C818   C825    1.449   .     S
C818   O860    1.300   .     A
C819   N869    1.425   .     S
C819   C844    1.410   .     A
C820   N875    1.425   .     S
C820   C843    1.410   .     A
C820   C234    1.396   1_556 S
C821   H853    1.083   .     S
C821   C826    1.401   .     A
C821   C959    1.382   1_455 S
C822   H854    1.083   .     S
C822   C825    1.401   .     A
C822   C892    1.382   .     S
C823   C825    1.401   .     A
C823   H855    1.083   .     S
C823   C889    1.382   .     S
C824   C826    1.401   .     A
C824   H856    1.083   .     S
C824   C958    1.382   1_455 S
C827   N858    1.376   .     A
C827   Br881   1.928   .     S
C828   Br882   1.928   .     S
C828   N857    1.376   .     A
C828   C1033   1.425   .     S
C829   N858    1.376   .     A
C829   Br883   1.928   .     S
C830   Br884   1.928   .     S
C830   N857    1.376   .     A
C830   C1031   1.425   .     S
C831   O863    1.298   .     A
C831   C836    1.445   .     S
C831   O866    1.298   .     A
C832   O864    1.298   .     A
C832   O865    1.298   .     A
C832   C835    1.445   .     S
C833   H849    1.084   .     S
C833   C835    1.391   .     A
C833   C843    1.396   .     A
C834   H850    1.084   .     S
C834   C836    1.391   .     A
C834   C844    1.396   .     A
C835   C837    1.402   .     A
C836   C838    1.402   .     A
C837   Br867   1.935   .     S
C837   C839    1.408   .     A
C838   Br868   1.935   .     S
C838   C840    1.408   .     A
C839   C845    1.405   .     A
C839   C841    1.419   .     A
C840   C842    1.419   .     A
C840   C846    1.404   .     A
C841   C843    1.417   .     A
C841   C230    1.409   1_556 S
C842   C844    1.416   .     A
C845   H851    1.081   .     S
C845   C207    1.396   1_556 S
C846   H852    1.081   .     S
Cu847  Cu848   2.708   .     S
Cu847  N857    2.035   .     S
Cu847  O863    1.957   .     S
Cu847  O859    1.962   .     S
Cu847  O865    1.957   .     S
Cu847  O861    1.961   .     S
Cu848  O860    1.962   .     S
Cu848  O864    1.957   .     S
Cu848  O866    1.957   .     S
Cu848  N858    2.035   .     S
Cu848  O862    1.961   .     S
N869   H870    1.032   .     S
N869   C871    1.447   .     S
C871   H872    1.110   .     S
C871   H873    1.111   .     S
C871   H874    1.111   .     S
N875   H876    1.032   .     S
N875   C877    1.447   .     S
C877   H880    1.111   .     S
C877   H878    1.111   .     S
C877   H879    1.111   .     S
C885   O930    1.300   .     A
C885   O927    1.300   .     A
C885   C894    1.449   .     S
C886   O929    1.300   .     A
C886   C893    1.449   .     S
C886   O928    1.300   .     A
C887   N937    1.425   .     S
C887   C912    1.410   .     A
C888   N943    1.425   .     S
C888   C911    1.410   .     A
C888   C302    1.396   1_556 S
C889   H921    1.083   .     S
C889   C894    1.401   .     A
C890   H922    1.083   .     S
C890   C893    1.401   .     A
C890   C960    1.382   .     S
C891   C893    1.401   .     A
C891   H923    1.083   .     S
C891   C957    1.382   .     S
C892   C894    1.401   .     A
C892   H924    1.083   .     S
C895   N926    1.376   .     A
C895   Br949   1.928   .     S
C896   Br950   1.928   .     S
C896   N925    1.376   .     A
C896   C1101   1.425   .     S
C897   N926    1.376   .     A
C897   Br951   1.928   .     S
C898   Br952   1.928   .     S
C898   N925    1.376   .     A
C898   C1099   1.425   .     S
C899   O931    1.298   .     A
C899   C904    1.445   .     S
C899   O934    1.298   .     A
C900   O932    1.298   .     A
C900   O933    1.298   .     A
C900   C903    1.445   .     S
C901   H917    1.084   .     S
C901   C903    1.391   .     A
C901   C911    1.396   .     A
C902   H918    1.084   .     S
C902   C904    1.391   .     A
C902   C912    1.396   .     A
C903   C905    1.402   .     A
C904   C906    1.402   .     A
C905   Br935   1.935   .     S
C905   C907    1.408   .     A
C906   Br936   1.935   .     S
C906   C908    1.408   .     A
C907   C913    1.405   .     A
C907   C909    1.419   .     A
C908   C910    1.419   .     A
C908   C914    1.404   .     A
C909   C911    1.417   .     A
C909   C298    1.409   1_556 S
C910   C912    1.416   .     A
C913   H919    1.081   .     S
C913   C275    1.396   1_556 S
C914   H920    1.081   .     S
Cu915  Cu916   2.708   .     S
Cu915  N925    2.035   .     S
Cu915  O931    1.957   .     S
Cu915  O927    1.962   .     S
Cu915  O933    1.957   .     S
Cu915  O929    1.961   .     S
Cu916  O928    1.962   .     S
Cu916  O932    1.957   .     S
Cu916  O934    1.957   .     S
Cu916  N926    2.035   .     S
Cu916  O930    1.961   .     S
N937   H938    1.032   .     S
N937   C939    1.447   .     S
C939   H940    1.110   .     S
C939   H941    1.111   .     S
C939   H942    1.111   .     S
N943   H944    1.032   .     S
N943   C945    1.447   .     S
C945   H948    1.111   .     S
C945   H946    1.111   .     S
C945   H947    1.111   .     S
C953   O998    1.300   .     A
C953   O995    1.300   .     A
C953   C962    1.449   .     S
C954   O997    1.300   .     A
C954   C961    1.449   .     S
C954   O996    1.300   .     A
C955   N1005   1.425   .     S
C955   C980    1.410   .     A
C956   N1011   1.425   .     S
C956   C979    1.410   .     A
C956   C370    1.396   1_556 S
C957   H989    1.083   .     S
C957   C962    1.401   .     A
C958   H990    1.083   .     S
C958   C961    1.401   .     A
C958   C824    1.382   1_655 S
C959   C961    1.401   .     A
C959   H991    1.083   .     S
C959   C821    1.382   1_655 S
C960   C962    1.401   .     A
C960   H992    1.083   .     S
C963   N994    1.376   .     A
C963   Br1017  1.928   .     S
C964   Br1018  1.928   .     S
C964   N993    1.376   .     A
C964   C1169   1.425   .     S
C965   N994    1.376   .     A
C965   Br1019  1.928   .     S
C966   Br1020  1.928   .     S
C966   N993    1.376   .     A
C966   C1167   1.425   .     S
C967   O999    1.298   .     A
C967   C972    1.445   .     S
C967   O1002   1.298   .     A
C968   O1000   1.298   .     A
C968   O1001   1.298   .     A
C968   C971    1.445   .     S
C969   H985    1.084   .     S
C969   C971    1.391   .     A
C969   C979    1.396   .     A
C970   H986    1.084   .     S
C970   C972    1.391   .     A
C970   C980    1.396   .     A
C971   C973    1.402   .     A
C972   C974    1.402   .     A
C973   Br1003  1.935   .     S
C973   C975    1.408   .     A
C974   Br1004  1.935   .     S
C974   C976    1.408   .     A
C975   C981    1.405   .     A
C975   C977    1.419   .     A
C976   C978    1.419   .     A
C976   C982    1.404   .     A
C977   C979    1.417   .     A
C977   C366    1.409   1_556 S
C978   C980    1.416   .     A
C981   H987    1.081   .     S
C981   C343    1.396   1_556 S
C982   H988    1.081   .     S
Cu983  Cu984   2.708   .     S
Cu983  N993    2.035   .     S
Cu983  O999    1.957   .     S
Cu983  O995    1.962   .     S
Cu983  O1001   1.957   .     S
Cu983  O997    1.961   .     S
Cu984  O996    1.962   .     S
Cu984  O1000   1.957   .     S
Cu984  O1002   1.957   .     S
Cu984  N994    2.035   .     S
Cu984  O998    1.961   .     S
N1005  H1006   1.032   .     S
N1005  C1007   1.447   .     S
C1007  H1008   1.110   .     S
C1007  H1009   1.111   .     S
C1007  H1010   1.111   .     S
N1011  H1012   1.032   .     S
N1011  C1013   1.447   .     S
C1013  H1016   1.111   .     S
C1013  H1014   1.111   .     S
C1013  H1015   1.111   .     S
C1021  O1066   1.300   .     A
C1021  O1063   1.300   .     A
C1021  C1030   1.449   .     S
C1022  O1065   1.300   .     A
C1022  C1029   1.449   .     S
C1022  O1064   1.300   .     A
C1023  N1073   1.425   .     S
C1023  C1048   1.410   .     A
C1024  N1079   1.425   .     S
C1024  C1047   1.410   .     A
C1024  C438    1.396   1_556 S
C1025  H1057   1.083   .     S
C1025  C1030   1.401   .     A
C1025  C1163   1.382   1_455 S
C1026  H1058   1.083   .     S
C1026  C1029   1.401   .     A
C1026  C1096   1.382   .     S
C1027  C1029   1.401   .     A
C1027  H1059   1.083   .     S
C1027  C1093   1.382   .     S
C1028  C1030   1.401   .     A
C1028  H1060   1.083   .     S
C1028  C1162   1.382   1_455 S
C1031  N1062   1.376   .     A
C1031  Br1085  1.928   .     S
C1032  Br1086  1.928   .     S
C1032  N1061   1.376   .     A
C1032  C625    1.425   1_565 S
C1033  N1062   1.376   .     A
C1033  Br1087  1.928   .     S
C1034  Br1088  1.928   .     S
C1034  N1061   1.376   .     A
C1034  C623    1.425   1_565 S
C1035  O1067   1.298   .     A
C1035  C1040   1.445   .     S
C1035  O1070   1.298   .     A
C1036  O1068   1.298   .     A
C1036  O1069   1.298   .     A
C1036  C1039   1.445   .     S
C1037  H1053   1.084   .     S
C1037  C1039   1.391   .     A
C1037  C1047   1.396   .     A
C1038  H1054   1.084   .     S
C1038  C1040   1.391   .     A
C1038  C1048   1.396   .     A
C1039  C1041   1.402   .     A
C1040  C1042   1.402   .     A
C1041  Br1071  1.935   .     S
C1041  C1043   1.408   .     A
C1042  Br1072  1.935   .     S
C1042  C1044   1.408   .     A
C1043  C1049   1.405   .     A
C1043  C1045   1.419   .     A
C1044  C1046   1.419   .     A
C1044  C1050   1.404   .     A
C1045  C1047   1.417   .     A
C1045  C434    1.409   1_556 S
C1046  C1048   1.416   .     A
C1049  H1055   1.081   .     S
C1049  C411    1.396   1_556 S
C1050  H1056   1.081   .     S
Cu1051 Cu1052  2.708   .     S
Cu1051 N1061   2.035   .     S
Cu1051 O1067   1.957   .     S
Cu1051 O1063   1.962   .     S
Cu1051 O1069   1.957   .     S
Cu1051 O1065   1.961   .     S
Cu1052 O1064   1.962   .     S
Cu1052 O1068   1.957   .     S
Cu1052 O1070   1.957   .     S
Cu1052 N1062   2.035   .     S
Cu1052 O1066   1.961   .     S
N1073  H1074   1.032   .     S
N1073  C1075   1.447   .     S
C1075  H1076   1.110   .     S
C1075  H1077   1.111   .     S
C1075  H1078   1.111   .     S
N1079  H1080   1.032   .     S
N1079  C1081   1.447   .     S
C1081  H1084   1.111   .     S
C1081  H1082   1.111   .     S
C1081  H1083   1.111   .     S
C1089  O1134   1.300   .     A
C1089  O1131   1.300   .     A
C1089  C1098   1.449   .     S
C1090  O1133   1.300   .     A
C1090  C1097   1.449   .     S
C1090  O1132   1.300   .     A
C1091  N1141   1.425   .     S
C1091  C1116   1.410   .     A
C1092  N1147   1.425   .     S
C1092  C1115   1.410   .     A
C1092  C506    1.396   1_556 S
C1093  H1125   1.083   .     S
C1093  C1098   1.401   .     A
C1094  H1126   1.083   .     S
C1094  C1097   1.401   .     A
C1094  C1164   1.382   .     S
C1095  C1097   1.401   .     A
C1095  H1127   1.083   .     S
C1095  C1161   1.382   .     S
C1096  C1098   1.401   .     A
C1096  H1128   1.083   .     S
C1099  N1130   1.376   .     A
C1099  Br1153  1.928   .     S
C1100  Br1154  1.928   .     S
C1100  N1129   1.376   .     A
C1100  C693    1.425   1_565 S
C1101  N1130   1.376   .     A
C1101  Br1155  1.928   .     S
C1102  Br1156  1.928   .     S
C1102  N1129   1.376   .     A
C1102  C691    1.425   1_565 S
C1103  O1135   1.298   .     A
C1103  C1108   1.445   .     S
C1103  O1138   1.298   .     A
C1104  O1136   1.298   .     A
C1104  O1137   1.298   .     A
C1104  C1107   1.445   .     S
C1105  H1121   1.084   .     S
C1105  C1107   1.391   .     A
C1105  C1115   1.396   .     A
C1106  H1122   1.084   .     S
C1106  C1108   1.391   .     A
C1106  C1116   1.396   .     A
C1107  C1109   1.402   .     A
C1108  C1110   1.402   .     A
C1109  Br1139  1.935   .     S
C1109  C1111   1.408   .     A
C1110  Br1140  1.935   .     S
C1110  C1112   1.408   .     A
C1111  C1117   1.405   .     A
C1111  C1113   1.419   .     A
C1112  C1114   1.419   .     A
C1112  C1118   1.404   .     A
C1113  C1115   1.417   .     A
C1113  C502    1.409   1_556 S
C1114  C1116   1.416   .     A
C1117  H1123   1.081   .     S
C1117  C479    1.396   1_556 S
C1118  H1124   1.081   .     S
Cu1119 Cu1120  2.708   .     S
Cu1119 N1129   2.035   .     S
Cu1119 O1135   1.957   .     S
Cu1119 O1131   1.962   .     S
Cu1119 O1137   1.957   .     S
Cu1119 O1133   1.961   .     S
Cu1120 O1132   1.962   .     S
Cu1120 O1136   1.957   .     S
Cu1120 O1138   1.957   .     S
Cu1120 N1130   2.035   .     S
Cu1120 O1134   1.961   .     S
N1141  H1142   1.032   .     S
N1141  C1143   1.447   .     S
C1143  H1144   1.110   .     S
C1143  H1145   1.111   .     S
C1143  H1146   1.111   .     S
N1147  H1148   1.032   .     S
N1147  C1149   1.447   .     S
C1149  H1152   1.111   .     S
C1149  H1150   1.111   .     S
C1149  H1151   1.111   .     S
C1157  O1202   1.300   .     A
C1157  O1199   1.300   .     A
C1157  C1166   1.449   .     S
C1158  O1201   1.300   .     A
C1158  C1165   1.449   .     S
C1158  O1200   1.300   .     A
C1159  N1209   1.425   .     S
C1159  C1184   1.410   .     A
C1160  N1215   1.425   .     S
C1160  C1183   1.410   .     A
C1160  C574    1.396   1_556 S
C1161  H1193   1.083   .     S
C1161  C1166   1.401   .     A
C1162  H1194   1.083   .     S
C1162  C1165   1.401   .     A
C1162  C1028   1.382   1_655 S
C1163  C1165   1.401   .     A
C1163  H1195   1.083   .     S
C1163  C1025   1.382   1_655 S
C1164  C1166   1.401   .     A
C1164  H1196   1.083   .     S
C1167  N1198   1.376   .     A
C1167  Br1221  1.928   .     S
C1168  Br1222  1.928   .     S
C1168  N1197   1.376   .     A
C1168  C761    1.425   1_565 S
C1169  N1198   1.376   .     A
C1169  Br1223  1.928   .     S
C1170  Br1224  1.928   .     S
C1170  N1197   1.376   .     A
C1170  C759    1.425   1_565 S
C1171  O1203   1.298   .     A
C1171  C1176   1.445   .     S
C1171  O1206   1.298   .     A
C1172  O1204   1.298   .     A
C1172  O1205   1.298   .     A
C1172  C1175   1.445   .     S
C1173  H1189   1.084   .     S
C1173  C1175   1.391   .     A
C1173  C1183   1.396   .     A
C1174  H1190   1.084   .     S
C1174  C1176   1.391   .     A
C1174  C1184   1.396   .     A
C1175  C1177   1.402   .     A
C1176  C1178   1.402   .     A
C1177  Br1207  1.935   .     S
C1177  C1179   1.408   .     A
C1178  Br1208  1.935   .     S
C1178  C1180   1.408   .     A
C1179  C1185   1.405   .     A
C1179  C1181   1.419   .     A
C1180  C1182   1.419   .     A
C1180  C1186   1.404   .     A
C1181  C1183   1.417   .     A
C1181  C570    1.409   1_556 S
C1182  C1184   1.416   .     A
C1185  H1191   1.081   .     S
C1185  C547    1.396   1_556 S
C1186  H1192   1.081   .     S
Cu1187 Cu1188  2.708   .     S
Cu1187 N1197   2.035   .     S
Cu1187 O1203   1.957   .     S
Cu1187 O1199   1.962   .     S
Cu1187 O1205   1.957   .     S
Cu1187 O1201   1.961   .     S
Cu1188 O1200   1.962   .     S
Cu1188 O1204   1.957   .     S
Cu1188 O1206   1.957   .     S
Cu1188 N1198   2.035   .     S
Cu1188 O1202   1.961   .     S
N1209  H1210   1.032   .     S
N1209  C1211   1.447   .     S
C1211  H1212   1.110   .     S
C1211  H1213   1.111   .     S
C1211  H1214   1.111   .     S
N1215  H1216   1.032   .     S
N1215  C1217   1.447   .     S
C1217  H1220   1.111   .     S
C1217  H1218   1.111   .     S
C1217  H1219   1.111   .     S
