data_str_m3_o2_o5_pcu_sym.133
_audit_creation_date              2020-01-03
_audit_creation_method            'Materials Studio'
_symmetry_space_group_name_H-M    'P1'
_symmetry_Int_Tables_number       1
_symmetry_cell_setting            triclinic
loop_
_symmetry_equiv_pos_as_xyz
  x,y,z
_cell_length_a                    30.1607
_cell_length_b                    28.4320
_cell_length_c                    26.6052
_cell_angle_alpha                 90.0082
_cell_angle_beta                  90.8412
_cell_angle_gamma                 90.0371
loop_
_atom_site_label
_atom_site_type_symbol
_atom_site_fract_x
_atom_site_fract_y
_atom_site_fract_z
_atom_site_U_iso_or_equiv
_atom_site_adp_type
_atom_site_occupancy
C1     C     0.16379   0.24995   0.16791   0.00000  Uiso   1.00
C2     C     0.33615   0.24998   0.16458   0.00000  Uiso   1.00
C3     C     0.23795   0.10182   0.12407   0.00000  Uiso   1.00
C4     C     0.27407   0.39739   0.20244   0.00000  Uiso   1.00
C5     C     0.26210   0.10188   0.20928   0.00000  Uiso   1.00
C6     C     0.22594   0.39737   0.13090   0.00000  Uiso   1.00
C7     C     0.23980   0.05218   0.12307   0.00000  Uiso   1.00
C8     C     0.27556   0.44719   0.20167   0.00000  Uiso   1.00
C9     C     0.26024   0.05223   0.21030   0.00000  Uiso   1.00
C10    C     0.22440   0.44715   0.13173   0.00000  Uiso   1.00
C11    C     0.25005   0.25000   0.07291   0.00000  Uiso   1.00
C12    C     0.24997   0.25001   0.26043   0.00000  Uiso   1.00
C13    C     0.25001   0.02631   0.16669   0.00000  Uiso   1.00
C14    C     0.24998   0.47302   0.16670   0.00000  Uiso   1.00
C15    C     0.25007   0.25003   0.02182   0.00000  Uiso   1.00
C16    C     0.24998   0.25003   0.31151   0.00000  Uiso   1.00
C17    C     0.04647   0.28516   0.14269   0.00000  Uiso   1.00
C18    C     0.45190   0.20796   0.14028   0.00000  Uiso   1.00
C19    C     0.45484   0.28618   0.17607   0.00000  Uiso   1.00
C20    C     0.04664   0.20731   0.17954   0.00000  Uiso   1.00
C21    C     0.09170   0.28933   0.15139   0.00000  Uiso   1.00
C22    C     0.40546   0.20837   0.14175   0.00000  Uiso   1.00
C23    C     0.40907   0.28994   0.17289   0.00000  Uiso   1.00
C24    C     0.09302   0.20805   0.18337   0.00000  Uiso   1.00
C25    C     0.11552   0.24936   0.16802   0.00000  Uiso   1.00
C26    C     0.38420   0.24951   0.15978   0.00000  Uiso   1.00
C27    C     0.02395   0.24529   0.15852   0.00000  Uiso   1.00
C28    C     0.47604   0.24610   0.15863   0.00000  Uiso   1.00
H29    H     0.02837   0.31430   0.12606   0.00000  Uiso   1.00
H30    H     0.46971   0.17864   0.12439   0.00000  Uiso   1.00
H31    H     0.47411   0.31523   0.19113   0.00000  Uiso   1.00
H32    H     0.02771   0.17826   0.19437   0.00000  Uiso   1.00
H33    H     0.23336   0.03440   0.08778   0.00000  Uiso   1.00
H34    H     0.29753   0.46521   0.22767   0.00000  Uiso   1.00
H35    H     0.26663   0.03446   0.24560   0.00000  Uiso   1.00
H36    H     0.20244   0.46514   0.10572   0.00000  Uiso   1.00
N37    N     0.25000   0.12623   0.16667   0.00000  Uiso   1.00
N38    N     0.25000   0.37376   0.16667   0.00000  Uiso   1.00
O39    O     0.18453   0.28974   0.16667   0.00000  Uiso   1.00
O40    O     0.31547   0.21026   0.16666   0.00000  Uiso   1.00
O41    O     0.31547   0.28974   0.16666   0.00000  Uiso   1.00
O42    O     0.18453   0.21026   0.16667   0.00000  Uiso   1.00
O43    O     0.25000   0.28973   0.09511   0.00000  Uiso   1.00
O44    O     0.25000   0.21027   0.23822   0.00000  Uiso   1.00
O45    O     0.25000   0.28973   0.23822   0.00000  Uiso   1.00
O46    O     0.25000   0.21027   0.09511   0.00000  Uiso   1.00
Zn47   Zn    0.25000   0.30307   0.16667   0.00000  Uiso   1.00
Zn48   Zn    0.25000   0.19693   0.16667   0.00000  Uiso   1.00
O49    O     0.22687   0.12578   0.08059   0.00000  Uiso   1.00
C50    C     0.18092   0.12093   0.07092   0.00000  Uiso   1.00
H51    H     0.16132   0.13426   0.10309   0.00000  Uiso   1.00
H52    H     0.17193   0.08358   0.06338   0.00000  Uiso   1.00
C53    C     0.16827   0.14957   0.02458   0.00000  Uiso   1.00
H54    H     0.18882   0.13882   0.32555   0.00000  Uiso   1.00
H55    H     0.13277   0.14372   0.01483   0.00000  Uiso   1.00
H56    H     0.17345   0.18758   0.03209   0.00000  Uiso   1.00
O57    O     0.30078   0.37165   0.23513   0.00000  Uiso   1.00
C58    C     0.29427   0.38462   0.28592   0.00000  Uiso   1.00
H59    H     0.28408   0.35275   0.30687   0.00000  Uiso   1.00
H60    H     0.26783   0.41140   0.29186   0.00000  Uiso   1.00
C61    C     0.33776   0.40203   0.30901   0.00000  Uiso   1.00
H62    H     0.34909   0.43422   0.28942   0.00000  Uiso   1.00
H63    H     0.33305   0.41031   0.01605   0.00000  Uiso   1.00
H64    H     0.36361   0.37442   0.30581   0.00000  Uiso   1.00
O65    O     0.27313   0.12596   0.25272   0.00000  Uiso   1.00
C66    C     0.31891   0.12051   0.26309   0.00000  Uiso   1.00
H67    H     0.33911   0.13227   0.23067   0.00000  Uiso   1.00
H68    H     0.32703   0.08327   0.27222   0.00000  Uiso   1.00
C69    C     0.33170   0.15051   0.30841   0.00000  Uiso   1.00
H70    H     0.31043   0.14160   0.00746   0.00000  Uiso   1.00
H71    H     0.36690   0.14403   0.31906   0.00000  Uiso   1.00
H72    H     0.32763   0.18835   0.29920   0.00000  Uiso   1.00
O73    O     0.19932   0.37158   0.09811   0.00000  Uiso   1.00
C74    C     0.20589   0.38463   0.04736   0.00000  Uiso   1.00
H75    H     0.21617   0.35281   0.02638   0.00000  Uiso   1.00
H76    H     0.23229   0.41150   0.04151   0.00000  Uiso   1.00
C77    C     0.16240   0.40191   0.02423   0.00000  Uiso   1.00
H78    H     0.15103   0.43410   0.04377   0.00000  Uiso   1.00
H79    H     0.16712   0.41015   0.31718   0.00000  Uiso   1.00
H80    H     0.13657   0.37425   0.02744   0.00000  Uiso   1.00
O81    O     0.11270   0.33216   0.14358   0.00000  Uiso   1.00
C82    C     0.09383   0.36679   0.17519   0.00000  Uiso   1.00
H83    H     0.08732   0.35293   0.21367   0.00000  Uiso   1.00
H84    H     0.06233   0.38015   0.15833   0.00000  Uiso   1.00
C85    C     0.12525   0.40823   0.18098   0.00000  Uiso   1.00
H86    H     0.13186   0.42384   0.14361   0.00000  Uiso   1.00
H87    H     0.11003   0.43552   0.20508   0.00000  Uiso   1.00
H88    H     0.15673   0.39651   0.19910   0.00000  Uiso   1.00
O89    O     0.37963   0.17242   0.12061   0.00000  Uiso   1.00
C90    C     0.39865   0.12730   0.12676   0.00000  Uiso   1.00
H91    H     0.41292   0.12244   0.16531   0.00000  Uiso   1.00
H92    H     0.42453   0.12151   0.09810   0.00000  Uiso   1.00
C93    C     0.36305   0.09009   0.11838   0.00000  Uiso   1.00
H94    H     0.37786   0.05446   0.12173   0.00000  Uiso   1.00
H95    H     0.33697   0.09377   0.14695   0.00000  Uiso   1.00
H96    H     0.34781   0.09399   0.08036   0.00000  Uiso   1.00
O97    O     0.38841   0.33239   0.18376   0.00000  Uiso   1.00
C98    C     0.40585   0.36864   0.15310   0.00000  Uiso   1.00
H99    H     0.41206   0.35636   0.11395   0.00000  Uiso   1.00
H100   H     0.43724   0.38239   0.16989   0.00000  Uiso   1.00
C101   C     0.37332   0.40924   0.14962   0.00000  Uiso   1.00
H102   H     0.36723   0.42353   0.18771   0.00000  Uiso   1.00
H103   H     0.38729   0.43769   0.12603   0.00000  Uiso   1.00
H104   H     0.34174   0.39709   0.13203   0.00000  Uiso   1.00
O105   O     0.11702   0.17252   0.20773   0.00000  Uiso   1.00
C106   C     0.09941   0.12712   0.19877   0.00000  Uiso   1.00
H107   H     0.08944   0.12226   0.15857   0.00000  Uiso   1.00
H108   H     0.07065   0.12069   0.22350   0.00000  Uiso   1.00
C109   C     0.13444   0.09051   0.21189   0.00000  Uiso   1.00
H110   H     0.14492   0.09407   0.25190   0.00000  Uiso   1.00
H111   H     0.12082   0.05464   0.20569   0.00000  Uiso   1.00
H112   H     0.16370   0.09525   0.18777   0.00000  Uiso   1.00
C113   C     0.66379   0.24995   0.16791   0.00000  Uiso   1.00
C114   C     0.83615   0.24998   0.16458   0.00000  Uiso   1.00
C115   C     0.73795   0.10182   0.12407   0.00000  Uiso   1.00
C116   C     0.77407   0.39739   0.20244   0.00000  Uiso   1.00
C117   C     0.76210   0.10188   0.20928   0.00000  Uiso   1.00
C118   C     0.72594   0.39737   0.13090   0.00000  Uiso   1.00
C119   C     0.73980   0.05218   0.12307   0.00000  Uiso   1.00
C120   C     0.77556   0.44719   0.20167   0.00000  Uiso   1.00
C121   C     0.76024   0.05223   0.21030   0.00000  Uiso   1.00
C122   C     0.72440   0.44715   0.13173   0.00000  Uiso   1.00
C123   C     0.75005   0.25000   0.07291   0.00000  Uiso   1.00
C124   C     0.74997   0.25001   0.26043   0.00000  Uiso   1.00
C125   C     0.75001   0.02631   0.16669   0.00000  Uiso   1.00
C126   C     0.74998   0.47302   0.16670   0.00000  Uiso   1.00
C127   C     0.75007   0.25003   0.02182   0.00000  Uiso   1.00
C128   C     0.74998   0.25003   0.31151   0.00000  Uiso   1.00
C129   C     0.54647   0.28516   0.14269   0.00000  Uiso   1.00
C130   C     0.95190   0.20796   0.14028   0.00000  Uiso   1.00
C131   C     0.95484   0.28618   0.17607   0.00000  Uiso   1.00
C132   C     0.54664   0.20731   0.17954   0.00000  Uiso   1.00
C133   C     0.59170   0.28933   0.15139   0.00000  Uiso   1.00
C134   C     0.90546   0.20837   0.14175   0.00000  Uiso   1.00
C135   C     0.90907   0.28994   0.17289   0.00000  Uiso   1.00
C136   C     0.59302   0.20805   0.18337   0.00000  Uiso   1.00
C137   C     0.61552   0.24936   0.16802   0.00000  Uiso   1.00
C138   C     0.88420   0.24951   0.15978   0.00000  Uiso   1.00
C139   C     0.52395   0.24529   0.15852   0.00000  Uiso   1.00
C140   C     0.97604   0.24610   0.15863   0.00000  Uiso   1.00
H141   H     0.52837   0.31430   0.12606   0.00000  Uiso   1.00
H142   H     0.96971   0.17864   0.12439   0.00000  Uiso   1.00
H143   H     0.97411   0.31523   0.19113   0.00000  Uiso   1.00
H144   H     0.52771   0.17826   0.19437   0.00000  Uiso   1.00
H145   H     0.73336   0.03440   0.08778   0.00000  Uiso   1.00
H146   H     0.79753   0.46521   0.22767   0.00000  Uiso   1.00
H147   H     0.76663   0.03446   0.24560   0.00000  Uiso   1.00
H148   H     0.70244   0.46514   0.10572   0.00000  Uiso   1.00
N149   N     0.75000   0.12623   0.16667   0.00000  Uiso   1.00
N150   N     0.75000   0.37376   0.16667   0.00000  Uiso   1.00
O151   O     0.68453   0.28974   0.16667   0.00000  Uiso   1.00
O152   O     0.81547   0.21026   0.16666   0.00000  Uiso   1.00
O153   O     0.81547   0.28974   0.16666   0.00000  Uiso   1.00
O154   O     0.68453   0.21026   0.16667   0.00000  Uiso   1.00
O155   O     0.75000   0.28973   0.09511   0.00000  Uiso   1.00
O156   O     0.75000   0.21027   0.23822   0.00000  Uiso   1.00
O157   O     0.75000   0.28973   0.23822   0.00000  Uiso   1.00
O158   O     0.75000   0.21027   0.09511   0.00000  Uiso   1.00
Zn159  Zn    0.75000   0.30307   0.16667   0.00000  Uiso   1.00
Zn160  Zn    0.75000   0.19693   0.16667   0.00000  Uiso   1.00
O161   O     0.72687   0.12578   0.08059   0.00000  Uiso   1.00
C162   C     0.68092   0.12093   0.07092   0.00000  Uiso   1.00
H163   H     0.66132   0.13426   0.10309   0.00000  Uiso   1.00
H164   H     0.67193   0.08358   0.06338   0.00000  Uiso   1.00
C165   C     0.66827   0.14957   0.02458   0.00000  Uiso   1.00
H166   H     0.68882   0.13882   0.32555   0.00000  Uiso   1.00
H167   H     0.63277   0.14372   0.01483   0.00000  Uiso   1.00
H168   H     0.67345   0.18758   0.03209   0.00000  Uiso   1.00
O169   O     0.80078   0.37165   0.23513   0.00000  Uiso   1.00
C170   C     0.79427   0.38462   0.28592   0.00000  Uiso   1.00
H171   H     0.78408   0.35275   0.30687   0.00000  Uiso   1.00
H172   H     0.76783   0.41140   0.29186   0.00000  Uiso   1.00
C173   C     0.83776   0.40203   0.30901   0.00000  Uiso   1.00
H174   H     0.84909   0.43422   0.28942   0.00000  Uiso   1.00
H175   H     0.83305   0.41031   0.01605   0.00000  Uiso   1.00
H176   H     0.86361   0.37442   0.30581   0.00000  Uiso   1.00
O177   O     0.77313   0.12596   0.25272   0.00000  Uiso   1.00
C178   C     0.81891   0.12051   0.26309   0.00000  Uiso   1.00
H179   H     0.83911   0.13227   0.23067   0.00000  Uiso   1.00
H180   H     0.82703   0.08327   0.27222   0.00000  Uiso   1.00
C181   C     0.83170   0.15051   0.30841   0.00000  Uiso   1.00
H182   H     0.81043   0.14160   0.00746   0.00000  Uiso   1.00
H183   H     0.86690   0.14403   0.31906   0.00000  Uiso   1.00
H184   H     0.82763   0.18835   0.29920   0.00000  Uiso   1.00
O185   O     0.69932   0.37158   0.09811   0.00000  Uiso   1.00
C186   C     0.70589   0.38463   0.04736   0.00000  Uiso   1.00
H187   H     0.71617   0.35281   0.02638   0.00000  Uiso   1.00
H188   H     0.73229   0.41150   0.04151   0.00000  Uiso   1.00
C189   C     0.66240   0.40191   0.02423   0.00000  Uiso   1.00
H190   H     0.65103   0.43410   0.04377   0.00000  Uiso   1.00
H191   H     0.66712   0.41015   0.31718   0.00000  Uiso   1.00
H192   H     0.63657   0.37425   0.02744   0.00000  Uiso   1.00
O193   O     0.61270   0.33216   0.14358   0.00000  Uiso   1.00
C194   C     0.59383   0.36679   0.17519   0.00000  Uiso   1.00
H195   H     0.58732   0.35293   0.21367   0.00000  Uiso   1.00
H196   H     0.56233   0.38015   0.15833   0.00000  Uiso   1.00
C197   C     0.62525   0.40823   0.18098   0.00000  Uiso   1.00
H198   H     0.63186   0.42384   0.14361   0.00000  Uiso   1.00
H199   H     0.61003   0.43552   0.20508   0.00000  Uiso   1.00
H200   H     0.65673   0.39651   0.19910   0.00000  Uiso   1.00
O201   O     0.87963   0.17242   0.12061   0.00000  Uiso   1.00
C202   C     0.89865   0.12730   0.12676   0.00000  Uiso   1.00
H203   H     0.91292   0.12244   0.16531   0.00000  Uiso   1.00
H204   H     0.92453   0.12151   0.09810   0.00000  Uiso   1.00
C205   C     0.86305   0.09009   0.11838   0.00000  Uiso   1.00
H206   H     0.87786   0.05446   0.12173   0.00000  Uiso   1.00
H207   H     0.83697   0.09377   0.14695   0.00000  Uiso   1.00
H208   H     0.84781   0.09399   0.08036   0.00000  Uiso   1.00
O209   O     0.88841   0.33239   0.18376   0.00000  Uiso   1.00
C210   C     0.90585   0.36864   0.15310   0.00000  Uiso   1.00
H211   H     0.91206   0.35636   0.11395   0.00000  Uiso   1.00
H212   H     0.93724   0.38239   0.16989   0.00000  Uiso   1.00
C213   C     0.87332   0.40924   0.14962   0.00000  Uiso   1.00
H214   H     0.86723   0.42353   0.18771   0.00000  Uiso   1.00
H215   H     0.88729   0.43769   0.12603   0.00000  Uiso   1.00
H216   H     0.84174   0.39709   0.13203   0.00000  Uiso   1.00
O217   O     0.61702   0.17252   0.20773   0.00000  Uiso   1.00
C218   C     0.59941   0.12712   0.19877   0.00000  Uiso   1.00
H219   H     0.58944   0.12226   0.15857   0.00000  Uiso   1.00
H220   H     0.57065   0.12069   0.22350   0.00000  Uiso   1.00
C221   C     0.63444   0.09051   0.21189   0.00000  Uiso   1.00
H222   H     0.64492   0.09407   0.25190   0.00000  Uiso   1.00
H223   H     0.62082   0.05464   0.20569   0.00000  Uiso   1.00
H224   H     0.66370   0.09525   0.18777   0.00000  Uiso   1.00
C225   C     0.16379   0.74995   0.16791   0.00000  Uiso   1.00
C226   C     0.33615   0.74998   0.16458   0.00000  Uiso   1.00
C227   C     0.23795   0.60182   0.12407   0.00000  Uiso   1.00
C228   C     0.27407   0.89739   0.20244   0.00000  Uiso   1.00
C229   C     0.26210   0.60188   0.20928   0.00000  Uiso   1.00
C230   C     0.22594   0.89737   0.13090   0.00000  Uiso   1.00
C231   C     0.23980   0.55218   0.12307   0.00000  Uiso   1.00
C232   C     0.27556   0.94719   0.20167   0.00000  Uiso   1.00
C233   C     0.26024   0.55223   0.21030   0.00000  Uiso   1.00
C234   C     0.22440   0.94715   0.13173   0.00000  Uiso   1.00
C235   C     0.25005   0.75000   0.07291   0.00000  Uiso   1.00
C236   C     0.24997   0.75001   0.26043   0.00000  Uiso   1.00
C237   C     0.25001   0.52631   0.16669   0.00000  Uiso   1.00
C238   C     0.24998   0.97302   0.16670   0.00000  Uiso   1.00
C239   C     0.25007   0.75003   0.02182   0.00000  Uiso   1.00
C240   C     0.24998   0.75003   0.31151   0.00000  Uiso   1.00
C241   C     0.04647   0.78516   0.14269   0.00000  Uiso   1.00
C242   C     0.45190   0.70796   0.14028   0.00000  Uiso   1.00
C243   C     0.45484   0.78618   0.17607   0.00000  Uiso   1.00
C244   C     0.04664   0.70731   0.17954   0.00000  Uiso   1.00
C245   C     0.09170   0.78933   0.15139   0.00000  Uiso   1.00
C246   C     0.40546   0.70837   0.14175   0.00000  Uiso   1.00
C247   C     0.40907   0.78994   0.17289   0.00000  Uiso   1.00
C248   C     0.09302   0.70805   0.18337   0.00000  Uiso   1.00
C249   C     0.11552   0.74936   0.16802   0.00000  Uiso   1.00
C250   C     0.38420   0.74951   0.15978   0.00000  Uiso   1.00
C251   C     0.02395   0.74529   0.15852   0.00000  Uiso   1.00
C252   C     0.47604   0.74610   0.15863   0.00000  Uiso   1.00
H253   H     0.02837   0.81430   0.12606   0.00000  Uiso   1.00
H254   H     0.46971   0.67864   0.12439   0.00000  Uiso   1.00
H255   H     0.47411   0.81523   0.19113   0.00000  Uiso   1.00
H256   H     0.02771   0.67826   0.19437   0.00000  Uiso   1.00
H257   H     0.23336   0.53440   0.08778   0.00000  Uiso   1.00
H258   H     0.29753   0.96521   0.22767   0.00000  Uiso   1.00
H259   H     0.26663   0.53446   0.24560   0.00000  Uiso   1.00
H260   H     0.20244   0.96514   0.10572   0.00000  Uiso   1.00
N261   N     0.25000   0.62623   0.16667   0.00000  Uiso   1.00
N262   N     0.25000   0.87376   0.16667   0.00000  Uiso   1.00
O263   O     0.18453   0.78974   0.16667   0.00000  Uiso   1.00
O264   O     0.31547   0.71026   0.16666   0.00000  Uiso   1.00
O265   O     0.31547   0.78974   0.16666   0.00000  Uiso   1.00
O266   O     0.18453   0.71026   0.16667   0.00000  Uiso   1.00
O267   O     0.25000   0.78973   0.09511   0.00000  Uiso   1.00
O268   O     0.25000   0.71027   0.23822   0.00000  Uiso   1.00
O269   O     0.25000   0.78973   0.23822   0.00000  Uiso   1.00
O270   O     0.25000   0.71027   0.09511   0.00000  Uiso   1.00
Zn271  Zn    0.25000   0.80307   0.16667   0.00000  Uiso   1.00
Zn272  Zn    0.25000   0.69693   0.16667   0.00000  Uiso   1.00
O273   O     0.22687   0.62578   0.08059   0.00000  Uiso   1.00
C274   C     0.18092   0.62093   0.07092   0.00000  Uiso   1.00
H275   H     0.16132   0.63426   0.10309   0.00000  Uiso   1.00
H276   H     0.17193   0.58358   0.06338   0.00000  Uiso   1.00
C277   C     0.16827   0.64957   0.02458   0.00000  Uiso   1.00
H278   H     0.18882   0.63882   0.32555   0.00000  Uiso   1.00
H279   H     0.13277   0.64372   0.01483   0.00000  Uiso   1.00
H280   H     0.17345   0.68758   0.03209   0.00000  Uiso   1.00
O281   O     0.30078   0.87165   0.23513   0.00000  Uiso   1.00
C282   C     0.29427   0.88462   0.28592   0.00000  Uiso   1.00
H283   H     0.28408   0.85275   0.30687   0.00000  Uiso   1.00
H284   H     0.26783   0.91140   0.29186   0.00000  Uiso   1.00
C285   C     0.33776   0.90203   0.30901   0.00000  Uiso   1.00
H286   H     0.34909   0.93422   0.28942   0.00000  Uiso   1.00
H287   H     0.33305   0.91031   0.01605   0.00000  Uiso   1.00
H288   H     0.36361   0.87442   0.30581   0.00000  Uiso   1.00
O289   O     0.27313   0.62596   0.25272   0.00000  Uiso   1.00
C290   C     0.31891   0.62051   0.26309   0.00000  Uiso   1.00
H291   H     0.33911   0.63227   0.23067   0.00000  Uiso   1.00
H292   H     0.32703   0.58327   0.27222   0.00000  Uiso   1.00
C293   C     0.33170   0.65051   0.30841   0.00000  Uiso   1.00
H294   H     0.31043   0.64160   0.00746   0.00000  Uiso   1.00
H295   H     0.36690   0.64403   0.31906   0.00000  Uiso   1.00
H296   H     0.32763   0.68835   0.29920   0.00000  Uiso   1.00
O297   O     0.19932   0.87158   0.09811   0.00000  Uiso   1.00
C298   C     0.20589   0.88463   0.04736   0.00000  Uiso   1.00
H299   H     0.21617   0.85281   0.02638   0.00000  Uiso   1.00
H300   H     0.23229   0.91150   0.04151   0.00000  Uiso   1.00
C301   C     0.16240   0.90191   0.02423   0.00000  Uiso   1.00
H302   H     0.15103   0.93410   0.04377   0.00000  Uiso   1.00
H303   H     0.16712   0.91015   0.31718   0.00000  Uiso   1.00
H304   H     0.13657   0.87425   0.02744   0.00000  Uiso   1.00
O305   O     0.11270   0.83216   0.14358   0.00000  Uiso   1.00
C306   C     0.09383   0.86679   0.17519   0.00000  Uiso   1.00
H307   H     0.08732   0.85293   0.21367   0.00000  Uiso   1.00
H308   H     0.06233   0.88015   0.15833   0.00000  Uiso   1.00
C309   C     0.12525   0.90823   0.18098   0.00000  Uiso   1.00
H310   H     0.13186   0.92384   0.14361   0.00000  Uiso   1.00
H311   H     0.11003   0.93552   0.20508   0.00000  Uiso   1.00
H312   H     0.15673   0.89651   0.19910   0.00000  Uiso   1.00
O313   O     0.37963   0.67242   0.12061   0.00000  Uiso   1.00
C314   C     0.39865   0.62730   0.12676   0.00000  Uiso   1.00
H315   H     0.41292   0.62244   0.16531   0.00000  Uiso   1.00
H316   H     0.42453   0.62151   0.09810   0.00000  Uiso   1.00
C317   C     0.36305   0.59009   0.11838   0.00000  Uiso   1.00
H318   H     0.37786   0.55446   0.12173   0.00000  Uiso   1.00
H319   H     0.33697   0.59377   0.14695   0.00000  Uiso   1.00
H320   H     0.34781   0.59399   0.08036   0.00000  Uiso   1.00
O321   O     0.38841   0.83239   0.18376   0.00000  Uiso   1.00
C322   C     0.40585   0.86864   0.15310   0.00000  Uiso   1.00
H323   H     0.41206   0.85636   0.11395   0.00000  Uiso   1.00
H324   H     0.43724   0.88239   0.16989   0.00000  Uiso   1.00
C325   C     0.37332   0.90924   0.14962   0.00000  Uiso   1.00
H326   H     0.36723   0.92353   0.18771   0.00000  Uiso   1.00
H327   H     0.38729   0.93769   0.12603   0.00000  Uiso   1.00
H328   H     0.34174   0.89709   0.13203   0.00000  Uiso   1.00
O329   O     0.11702   0.67252   0.20773   0.00000  Uiso   1.00
C330   C     0.09941   0.62712   0.19877   0.00000  Uiso   1.00
H331   H     0.08944   0.62226   0.15857   0.00000  Uiso   1.00
H332   H     0.07065   0.62069   0.22350   0.00000  Uiso   1.00
C333   C     0.13444   0.59051   0.21189   0.00000  Uiso   1.00
H334   H     0.14492   0.59407   0.25190   0.00000  Uiso   1.00
H335   H     0.12082   0.55464   0.20569   0.00000  Uiso   1.00
H336   H     0.16370   0.59525   0.18777   0.00000  Uiso   1.00
C337   C     0.66379   0.74995   0.16791   0.00000  Uiso   1.00
C338   C     0.83615   0.74998   0.16458   0.00000  Uiso   1.00
C339   C     0.73795   0.60182   0.12407   0.00000  Uiso   1.00
C340   C     0.77407   0.89739   0.20244   0.00000  Uiso   1.00
C341   C     0.76210   0.60188   0.20928   0.00000  Uiso   1.00
C342   C     0.72594   0.89737   0.13090   0.00000  Uiso   1.00
C343   C     0.73980   0.55218   0.12307   0.00000  Uiso   1.00
C344   C     0.77556   0.94719   0.20167   0.00000  Uiso   1.00
C345   C     0.76024   0.55223   0.21030   0.00000  Uiso   1.00
C346   C     0.72440   0.94715   0.13173   0.00000  Uiso   1.00
C347   C     0.75005   0.75000   0.07291   0.00000  Uiso   1.00
C348   C     0.74997   0.75001   0.26043   0.00000  Uiso   1.00
C349   C     0.75001   0.52631   0.16669   0.00000  Uiso   1.00
C350   C     0.74998   0.97302   0.16670   0.00000  Uiso   1.00
C351   C     0.75007   0.75003   0.02182   0.00000  Uiso   1.00
C352   C     0.74998   0.75003   0.31151   0.00000  Uiso   1.00
C353   C     0.54647   0.78516   0.14269   0.00000  Uiso   1.00
C354   C     0.95190   0.70796   0.14028   0.00000  Uiso   1.00
C355   C     0.95484   0.78618   0.17607   0.00000  Uiso   1.00
C356   C     0.54664   0.70731   0.17954   0.00000  Uiso   1.00
C357   C     0.59170   0.78933   0.15139   0.00000  Uiso   1.00
C358   C     0.90546   0.70837   0.14175   0.00000  Uiso   1.00
C359   C     0.90907   0.78994   0.17289   0.00000  Uiso   1.00
C360   C     0.59302   0.70805   0.18337   0.00000  Uiso   1.00
C361   C     0.61552   0.74936   0.16802   0.00000  Uiso   1.00
C362   C     0.88420   0.74951   0.15978   0.00000  Uiso   1.00
C363   C     0.52395   0.74529   0.15852   0.00000  Uiso   1.00
C364   C     0.97604   0.74610   0.15863   0.00000  Uiso   1.00
H365   H     0.52837   0.81430   0.12606   0.00000  Uiso   1.00
H366   H     0.96971   0.67864   0.12439   0.00000  Uiso   1.00
H367   H     0.97411   0.81523   0.19113   0.00000  Uiso   1.00
H368   H     0.52771   0.67826   0.19437   0.00000  Uiso   1.00
H369   H     0.73336   0.53440   0.08778   0.00000  Uiso   1.00
H370   H     0.79753   0.96521   0.22767   0.00000  Uiso   1.00
H371   H     0.76663   0.53446   0.24560   0.00000  Uiso   1.00
H372   H     0.70244   0.96514   0.10572   0.00000  Uiso   1.00
N373   N     0.75000   0.62623   0.16667   0.00000  Uiso   1.00
N374   N     0.75000   0.87376   0.16667   0.00000  Uiso   1.00
O375   O     0.68453   0.78974   0.16667   0.00000  Uiso   1.00
O376   O     0.81547   0.71026   0.16666   0.00000  Uiso   1.00
O377   O     0.81547   0.78974   0.16666   0.00000  Uiso   1.00
O378   O     0.68453   0.71026   0.16667   0.00000  Uiso   1.00
O379   O     0.75000   0.78973   0.09511   0.00000  Uiso   1.00
O380   O     0.75000   0.71027   0.23822   0.00000  Uiso   1.00
O381   O     0.75000   0.78973   0.23822   0.00000  Uiso   1.00
O382   O     0.75000   0.71027   0.09511   0.00000  Uiso   1.00
Zn383  Zn    0.75000   0.80307   0.16667   0.00000  Uiso   1.00
Zn384  Zn    0.75000   0.69693   0.16667   0.00000  Uiso   1.00
O385   O     0.72687   0.62578   0.08059   0.00000  Uiso   1.00
C386   C     0.68092   0.62093   0.07092   0.00000  Uiso   1.00
H387   H     0.66132   0.63426   0.10309   0.00000  Uiso   1.00
H388   H     0.67193   0.58358   0.06338   0.00000  Uiso   1.00
C389   C     0.66827   0.64957   0.02458   0.00000  Uiso   1.00
H390   H     0.68882   0.63882   0.32555   0.00000  Uiso   1.00
H391   H     0.63277   0.64372   0.01483   0.00000  Uiso   1.00
H392   H     0.67345   0.68758   0.03209   0.00000  Uiso   1.00
O393   O     0.80078   0.87165   0.23513   0.00000  Uiso   1.00
C394   C     0.79427   0.88462   0.28592   0.00000  Uiso   1.00
H395   H     0.78408   0.85275   0.30687   0.00000  Uiso   1.00
H396   H     0.76783   0.91140   0.29186   0.00000  Uiso   1.00
C397   C     0.83776   0.90203   0.30901   0.00000  Uiso   1.00
H398   H     0.84909   0.93422   0.28942   0.00000  Uiso   1.00
H399   H     0.83305   0.91031   0.01605   0.00000  Uiso   1.00
H400   H     0.86361   0.87442   0.30581   0.00000  Uiso   1.00
O401   O     0.77313   0.62596   0.25272   0.00000  Uiso   1.00
C402   C     0.81891   0.62051   0.26309   0.00000  Uiso   1.00
H403   H     0.83911   0.63227   0.23067   0.00000  Uiso   1.00
H404   H     0.82703   0.58327   0.27222   0.00000  Uiso   1.00
C405   C     0.83170   0.65051   0.30841   0.00000  Uiso   1.00
H406   H     0.81043   0.64160   0.00746   0.00000  Uiso   1.00
H407   H     0.86690   0.64403   0.31906   0.00000  Uiso   1.00
H408   H     0.82763   0.68835   0.29920   0.00000  Uiso   1.00
O409   O     0.69932   0.87158   0.09811   0.00000  Uiso   1.00
C410   C     0.70589   0.88463   0.04736   0.00000  Uiso   1.00
H411   H     0.71617   0.85281   0.02638   0.00000  Uiso   1.00
H412   H     0.73229   0.91150   0.04151   0.00000  Uiso   1.00
C413   C     0.66240   0.90191   0.02423   0.00000  Uiso   1.00
H414   H     0.65103   0.93410   0.04377   0.00000  Uiso   1.00
H415   H     0.66712   0.91015   0.31718   0.00000  Uiso   1.00
H416   H     0.63657   0.87425   0.02744   0.00000  Uiso   1.00
O417   O     0.61270   0.83216   0.14358   0.00000  Uiso   1.00
C418   C     0.59383   0.86679   0.17519   0.00000  Uiso   1.00
H419   H     0.58732   0.85293   0.21367   0.00000  Uiso   1.00
H420   H     0.56233   0.88015   0.15833   0.00000  Uiso   1.00
C421   C     0.62525   0.90823   0.18098   0.00000  Uiso   1.00
H422   H     0.63186   0.92384   0.14361   0.00000  Uiso   1.00
H423   H     0.61003   0.93552   0.20508   0.00000  Uiso   1.00
H424   H     0.65673   0.89651   0.19910   0.00000  Uiso   1.00
O425   O     0.87963   0.67242   0.12061   0.00000  Uiso   1.00
C426   C     0.89865   0.62730   0.12676   0.00000  Uiso   1.00
H427   H     0.91292   0.62244   0.16531   0.00000  Uiso   1.00
H428   H     0.92453   0.62151   0.09810   0.00000  Uiso   1.00
C429   C     0.86305   0.59009   0.11838   0.00000  Uiso   1.00
H430   H     0.87786   0.55446   0.12173   0.00000  Uiso   1.00
H431   H     0.83697   0.59377   0.14695   0.00000  Uiso   1.00
H432   H     0.84781   0.59399   0.08036   0.00000  Uiso   1.00
O433   O     0.88841   0.83239   0.18376   0.00000  Uiso   1.00
C434   C     0.90585   0.86864   0.15310   0.00000  Uiso   1.00
H435   H     0.91206   0.85636   0.11395   0.00000  Uiso   1.00
H436   H     0.93724   0.88239   0.16989   0.00000  Uiso   1.00
C437   C     0.87332   0.90924   0.14962   0.00000  Uiso   1.00
H438   H     0.86723   0.92353   0.18771   0.00000  Uiso   1.00
H439   H     0.88729   0.93769   0.12603   0.00000  Uiso   1.00
H440   H     0.84174   0.89709   0.13203   0.00000  Uiso   1.00
O441   O     0.61702   0.67252   0.20773   0.00000  Uiso   1.00
C442   C     0.59941   0.62712   0.19877   0.00000  Uiso   1.00
H443   H     0.58944   0.62226   0.15857   0.00000  Uiso   1.00
H444   H     0.57065   0.62069   0.22350   0.00000  Uiso   1.00
C445   C     0.63444   0.59051   0.21189   0.00000  Uiso   1.00
H446   H     0.64492   0.59407   0.25190   0.00000  Uiso   1.00
H447   H     0.62082   0.55464   0.20569   0.00000  Uiso   1.00
H448   H     0.66370   0.59525   0.18777   0.00000  Uiso   1.00
C449   C     0.16379   0.24995   0.50125   0.00000  Uiso   1.00
C450   C     0.33615   0.24998   0.49791   0.00000  Uiso   1.00
C451   C     0.23795   0.10182   0.45740   0.00000  Uiso   1.00
C452   C     0.27407   0.39739   0.53577   0.00000  Uiso   1.00
C453   C     0.26210   0.10188   0.54261   0.00000  Uiso   1.00
C454   C     0.22594   0.39737   0.46423   0.00000  Uiso   1.00
C455   C     0.23980   0.05218   0.45640   0.00000  Uiso   1.00
C456   C     0.27556   0.44719   0.53500   0.00000  Uiso   1.00
C457   C     0.26024   0.05223   0.54364   0.00000  Uiso   1.00
C458   C     0.22440   0.44715   0.46506   0.00000  Uiso   1.00
C459   C     0.25005   0.25000   0.40624   0.00000  Uiso   1.00
C460   C     0.24997   0.25001   0.59376   0.00000  Uiso   1.00
C461   C     0.25001   0.02631   0.50003   0.00000  Uiso   1.00
C462   C     0.24998   0.47302   0.50004   0.00000  Uiso   1.00
C463   C     0.25007   0.25003   0.35516   0.00000  Uiso   1.00
C464   C     0.24998   0.25003   0.64484   0.00000  Uiso   1.00
C465   C     0.04647   0.28516   0.47602   0.00000  Uiso   1.00
C466   C     0.45190   0.20796   0.47361   0.00000  Uiso   1.00
C467   C     0.45484   0.28618   0.50941   0.00000  Uiso   1.00
C468   C     0.04664   0.20731   0.51288   0.00000  Uiso   1.00
C469   C     0.09170   0.28933   0.48473   0.00000  Uiso   1.00
C470   C     0.40546   0.20837   0.47508   0.00000  Uiso   1.00
C471   C     0.40907   0.28994   0.50623   0.00000  Uiso   1.00
C472   C     0.09302   0.20805   0.51670   0.00000  Uiso   1.00
C473   C     0.11552   0.24936   0.50136   0.00000  Uiso   1.00
C474   C     0.38420   0.24951   0.49312   0.00000  Uiso   1.00
C475   C     0.02395   0.24529   0.49186   0.00000  Uiso   1.00
C476   C     0.47604   0.24610   0.49196   0.00000  Uiso   1.00
H477   H     0.02837   0.31430   0.45939   0.00000  Uiso   1.00
H478   H     0.46971   0.17864   0.45772   0.00000  Uiso   1.00
H479   H     0.47411   0.31523   0.52446   0.00000  Uiso   1.00
H480   H     0.02771   0.17826   0.52770   0.00000  Uiso   1.00
H481   H     0.23336   0.03440   0.42111   0.00000  Uiso   1.00
H482   H     0.29753   0.46521   0.56101   0.00000  Uiso   1.00
H483   H     0.26663   0.03446   0.57893   0.00000  Uiso   1.00
H484   H     0.20244   0.46514   0.43905   0.00000  Uiso   1.00
N485   N     0.25000   0.12623   0.50000   0.00000  Uiso   1.00
N486   N     0.25000   0.37376   0.50000   0.00000  Uiso   1.00
O487   O     0.18453   0.28974   0.50000   0.00000  Uiso   1.00
O488   O     0.31547   0.21026   0.50000   0.00000  Uiso   1.00
O489   O     0.31547   0.28974   0.50000   0.00000  Uiso   1.00
O490   O     0.18453   0.21026   0.50000   0.00000  Uiso   1.00
O491   O     0.25000   0.28973   0.42845   0.00000  Uiso   1.00
O492   O     0.25000   0.21027   0.57155   0.00000  Uiso   1.00
O493   O     0.25000   0.28973   0.57155   0.00000  Uiso   1.00
O494   O     0.25000   0.21027   0.42845   0.00000  Uiso   1.00
Zn495  Zn    0.25000   0.30307   0.50000   0.00000  Uiso   1.00
Zn496  Zn    0.25000   0.19693   0.50000   0.00000  Uiso   1.00
O497   O     0.22687   0.12578   0.41392   0.00000  Uiso   1.00
C498   C     0.18092   0.12093   0.40425   0.00000  Uiso   1.00
H499   H     0.16132   0.13426   0.43642   0.00000  Uiso   1.00
H500   H     0.17193   0.08358   0.39672   0.00000  Uiso   1.00
C501   C     0.16827   0.14957   0.35791   0.00000  Uiso   1.00
H502   H     0.18882   0.13882   0.65888   0.00000  Uiso   1.00
H503   H     0.13277   0.14372   0.34816   0.00000  Uiso   1.00
H504   H     0.17345   0.18758   0.36543   0.00000  Uiso   1.00
O505   O     0.30078   0.37165   0.56846   0.00000  Uiso   1.00
C506   C     0.29427   0.38462   0.61925   0.00000  Uiso   1.00
H507   H     0.28408   0.35275   0.64021   0.00000  Uiso   1.00
H508   H     0.26783   0.41140   0.62519   0.00000  Uiso   1.00
C509   C     0.33776   0.40203   0.64234   0.00000  Uiso   1.00
H510   H     0.34909   0.43422   0.62275   0.00000  Uiso   1.00
H511   H     0.33305   0.41031   0.34938   0.00000  Uiso   1.00
H512   H     0.36361   0.37442   0.63914   0.00000  Uiso   1.00
O513   O     0.27313   0.12596   0.58606   0.00000  Uiso   1.00
C514   C     0.31891   0.12051   0.59642   0.00000  Uiso   1.00
H515   H     0.33911   0.13227   0.56401   0.00000  Uiso   1.00
H516   H     0.32703   0.08327   0.60556   0.00000  Uiso   1.00
C517   C     0.33170   0.15051   0.64174   0.00000  Uiso   1.00
H518   H     0.31043   0.14160   0.34080   0.00000  Uiso   1.00
H519   H     0.36690   0.14403   0.65240   0.00000  Uiso   1.00
H520   H     0.32763   0.18835   0.63253   0.00000  Uiso   1.00
O521   O     0.19932   0.37158   0.43145   0.00000  Uiso   1.00
C522   C     0.20589   0.38463   0.38069   0.00000  Uiso   1.00
H523   H     0.21617   0.35281   0.35971   0.00000  Uiso   1.00
H524   H     0.23229   0.41150   0.37484   0.00000  Uiso   1.00
C525   C     0.16240   0.40191   0.35756   0.00000  Uiso   1.00
H526   H     0.15103   0.43410   0.37710   0.00000  Uiso   1.00
H527   H     0.16712   0.41015   0.65051   0.00000  Uiso   1.00
H528   H     0.13657   0.37425   0.36078   0.00000  Uiso   1.00
O529   O     0.11270   0.33216   0.47691   0.00000  Uiso   1.00
C530   C     0.09383   0.36679   0.50852   0.00000  Uiso   1.00
H531   H     0.08732   0.35293   0.54700   0.00000  Uiso   1.00
H532   H     0.06233   0.38015   0.49166   0.00000  Uiso   1.00
C533   C     0.12525   0.40823   0.51431   0.00000  Uiso   1.00
H534   H     0.13186   0.42384   0.47694   0.00000  Uiso   1.00
H535   H     0.11003   0.43552   0.53842   0.00000  Uiso   1.00
H536   H     0.15673   0.39651   0.53243   0.00000  Uiso   1.00
O537   O     0.37963   0.17242   0.45394   0.00000  Uiso   1.00
C538   C     0.39865   0.12730   0.46009   0.00000  Uiso   1.00
H539   H     0.41292   0.12244   0.49865   0.00000  Uiso   1.00
H540   H     0.42453   0.12151   0.43143   0.00000  Uiso   1.00
C541   C     0.36305   0.09009   0.45171   0.00000  Uiso   1.00
H542   H     0.37786   0.05446   0.45506   0.00000  Uiso   1.00
H543   H     0.33697   0.09377   0.48029   0.00000  Uiso   1.00
H544   H     0.34781   0.09399   0.41369   0.00000  Uiso   1.00
O545   O     0.38841   0.33239   0.51709   0.00000  Uiso   1.00
C546   C     0.40585   0.36864   0.48643   0.00000  Uiso   1.00
H547   H     0.41206   0.35636   0.44729   0.00000  Uiso   1.00
H548   H     0.43724   0.38239   0.50322   0.00000  Uiso   1.00
C549   C     0.37332   0.40924   0.48296   0.00000  Uiso   1.00
H550   H     0.36723   0.42353   0.52104   0.00000  Uiso   1.00
H551   H     0.38729   0.43769   0.45936   0.00000  Uiso   1.00
H552   H     0.34174   0.39709   0.46537   0.00000  Uiso   1.00
O553   O     0.11702   0.17252   0.54107   0.00000  Uiso   1.00
C554   C     0.09941   0.12712   0.53210   0.00000  Uiso   1.00
H555   H     0.08944   0.12226   0.49191   0.00000  Uiso   1.00
H556   H     0.07065   0.12069   0.55683   0.00000  Uiso   1.00
C557   C     0.13444   0.09051   0.54523   0.00000  Uiso   1.00
H558   H     0.14492   0.09407   0.58524   0.00000  Uiso   1.00
H559   H     0.12082   0.05464   0.53902   0.00000  Uiso   1.00
H560   H     0.16370   0.09525   0.52111   0.00000  Uiso   1.00
C561   C     0.66379   0.24995   0.50125   0.00000  Uiso   1.00
C562   C     0.83615   0.24998   0.49791   0.00000  Uiso   1.00
C563   C     0.73795   0.10182   0.45740   0.00000  Uiso   1.00
C564   C     0.77407   0.39739   0.53577   0.00000  Uiso   1.00
C565   C     0.76210   0.10188   0.54261   0.00000  Uiso   1.00
C566   C     0.72594   0.39737   0.46423   0.00000  Uiso   1.00
C567   C     0.73980   0.05218   0.45640   0.00000  Uiso   1.00
C568   C     0.77556   0.44719   0.53500   0.00000  Uiso   1.00
C569   C     0.76024   0.05223   0.54364   0.00000  Uiso   1.00
C570   C     0.72440   0.44715   0.46506   0.00000  Uiso   1.00
C571   C     0.75005   0.25000   0.40624   0.00000  Uiso   1.00
C572   C     0.74997   0.25001   0.59376   0.00000  Uiso   1.00
C573   C     0.75001   0.02631   0.50003   0.00000  Uiso   1.00
C574   C     0.74998   0.47302   0.50004   0.00000  Uiso   1.00
C575   C     0.75007   0.25003   0.35516   0.00000  Uiso   1.00
C576   C     0.74998   0.25003   0.64484   0.00000  Uiso   1.00
C577   C     0.54647   0.28516   0.47602   0.00000  Uiso   1.00
C578   C     0.95190   0.20796   0.47361   0.00000  Uiso   1.00
C579   C     0.95484   0.28618   0.50941   0.00000  Uiso   1.00
C580   C     0.54664   0.20731   0.51288   0.00000  Uiso   1.00
C581   C     0.59170   0.28933   0.48473   0.00000  Uiso   1.00
C582   C     0.90546   0.20837   0.47508   0.00000  Uiso   1.00
C583   C     0.90907   0.28994   0.50623   0.00000  Uiso   1.00
C584   C     0.59302   0.20805   0.51670   0.00000  Uiso   1.00
C585   C     0.61552   0.24936   0.50136   0.00000  Uiso   1.00
C586   C     0.88420   0.24951   0.49312   0.00000  Uiso   1.00
C587   C     0.52395   0.24529   0.49186   0.00000  Uiso   1.00
C588   C     0.97604   0.24610   0.49196   0.00000  Uiso   1.00
H589   H     0.52837   0.31430   0.45939   0.00000  Uiso   1.00
H590   H     0.96971   0.17864   0.45772   0.00000  Uiso   1.00
H591   H     0.97411   0.31523   0.52446   0.00000  Uiso   1.00
H592   H     0.52771   0.17826   0.52770   0.00000  Uiso   1.00
H593   H     0.73336   0.03440   0.42111   0.00000  Uiso   1.00
H594   H     0.79753   0.46521   0.56101   0.00000  Uiso   1.00
H595   H     0.76663   0.03446   0.57893   0.00000  Uiso   1.00
H596   H     0.70244   0.46514   0.43905   0.00000  Uiso   1.00
N597   N     0.75000   0.12623   0.50000   0.00000  Uiso   1.00
N598   N     0.75000   0.37376   0.50000   0.00000  Uiso   1.00
O599   O     0.68453   0.28974   0.50000   0.00000  Uiso   1.00
O600   O     0.81547   0.21026   0.50000   0.00000  Uiso   1.00
O601   O     0.81547   0.28974   0.50000   0.00000  Uiso   1.00
O602   O     0.68453   0.21026   0.50000   0.00000  Uiso   1.00
O603   O     0.75000   0.28973   0.42845   0.00000  Uiso   1.00
O604   O     0.75000   0.21027   0.57155   0.00000  Uiso   1.00
O605   O     0.75000   0.28973   0.57155   0.00000  Uiso   1.00
O606   O     0.75000   0.21027   0.42845   0.00000  Uiso   1.00
Zn607  Zn    0.75000   0.30307   0.50000   0.00000  Uiso   1.00
Zn608  Zn    0.75000   0.19693   0.50000   0.00000  Uiso   1.00
O609   O     0.72687   0.12578   0.41392   0.00000  Uiso   1.00
C610   C     0.68092   0.12093   0.40425   0.00000  Uiso   1.00
H611   H     0.66132   0.13426   0.43642   0.00000  Uiso   1.00
H612   H     0.67193   0.08358   0.39672   0.00000  Uiso   1.00
C613   C     0.66827   0.14957   0.35791   0.00000  Uiso   1.00
H614   H     0.68882   0.13882   0.65888   0.00000  Uiso   1.00
H615   H     0.63277   0.14372   0.34816   0.00000  Uiso   1.00
H616   H     0.67345   0.18758   0.36543   0.00000  Uiso   1.00
O617   O     0.80078   0.37165   0.56846   0.00000  Uiso   1.00
C618   C     0.79427   0.38462   0.61925   0.00000  Uiso   1.00
H619   H     0.78408   0.35275   0.64021   0.00000  Uiso   1.00
H620   H     0.76783   0.41140   0.62519   0.00000  Uiso   1.00
C621   C     0.83776   0.40203   0.64234   0.00000  Uiso   1.00
H622   H     0.84909   0.43422   0.62275   0.00000  Uiso   1.00
H623   H     0.83305   0.41031   0.34938   0.00000  Uiso   1.00
H624   H     0.86361   0.37442   0.63914   0.00000  Uiso   1.00
O625   O     0.77313   0.12596   0.58606   0.00000  Uiso   1.00
C626   C     0.81891   0.12051   0.59642   0.00000  Uiso   1.00
H627   H     0.83911   0.13227   0.56401   0.00000  Uiso   1.00
H628   H     0.82703   0.08327   0.60556   0.00000  Uiso   1.00
C629   C     0.83170   0.15051   0.64174   0.00000  Uiso   1.00
H630   H     0.81043   0.14160   0.34080   0.00000  Uiso   1.00
H631   H     0.86690   0.14403   0.65240   0.00000  Uiso   1.00
H632   H     0.82763   0.18835   0.63253   0.00000  Uiso   1.00
O633   O     0.69932   0.37158   0.43145   0.00000  Uiso   1.00
C634   C     0.70589   0.38463   0.38069   0.00000  Uiso   1.00
H635   H     0.71617   0.35281   0.35971   0.00000  Uiso   1.00
H636   H     0.73229   0.41150   0.37484   0.00000  Uiso   1.00
C637   C     0.66240   0.40191   0.35756   0.00000  Uiso   1.00
H638   H     0.65103   0.43410   0.37710   0.00000  Uiso   1.00
H639   H     0.66712   0.41015   0.65051   0.00000  Uiso   1.00
H640   H     0.63657   0.37425   0.36078   0.00000  Uiso   1.00
O641   O     0.61270   0.33216   0.47691   0.00000  Uiso   1.00
C642   C     0.59383   0.36679   0.50852   0.00000  Uiso   1.00
H643   H     0.58732   0.35293   0.54700   0.00000  Uiso   1.00
H644   H     0.56233   0.38015   0.49166   0.00000  Uiso   1.00
C645   C     0.62525   0.40823   0.51431   0.00000  Uiso   1.00
H646   H     0.63186   0.42384   0.47694   0.00000  Uiso   1.00
H647   H     0.61003   0.43552   0.53842   0.00000  Uiso   1.00
H648   H     0.65673   0.39651   0.53243   0.00000  Uiso   1.00
O649   O     0.87963   0.17242   0.45394   0.00000  Uiso   1.00
C650   C     0.89865   0.12730   0.46009   0.00000  Uiso   1.00
H651   H     0.91292   0.12244   0.49865   0.00000  Uiso   1.00
H652   H     0.92453   0.12151   0.43143   0.00000  Uiso   1.00
C653   C     0.86305   0.09009   0.45171   0.00000  Uiso   1.00
H654   H     0.87786   0.05446   0.45506   0.00000  Uiso   1.00
H655   H     0.83697   0.09377   0.48029   0.00000  Uiso   1.00
H656   H     0.84781   0.09399   0.41369   0.00000  Uiso   1.00
O657   O     0.88841   0.33239   0.51709   0.00000  Uiso   1.00
C658   C     0.90585   0.36864   0.48643   0.00000  Uiso   1.00
H659   H     0.91206   0.35636   0.44729   0.00000  Uiso   1.00
H660   H     0.93724   0.38239   0.50322   0.00000  Uiso   1.00
C661   C     0.87332   0.40924   0.48296   0.00000  Uiso   1.00
H662   H     0.86723   0.42353   0.52104   0.00000  Uiso   1.00
H663   H     0.88729   0.43769   0.45936   0.00000  Uiso   1.00
H664   H     0.84174   0.39709   0.46537   0.00000  Uiso   1.00
O665   O     0.61702   0.17252   0.54107   0.00000  Uiso   1.00
C666   C     0.59941   0.12712   0.53210   0.00000  Uiso   1.00
H667   H     0.58944   0.12226   0.49191   0.00000  Uiso   1.00
H668   H     0.57065   0.12069   0.55683   0.00000  Uiso   1.00
C669   C     0.63444   0.09051   0.54523   0.00000  Uiso   1.00
H670   H     0.64492   0.09407   0.58524   0.00000  Uiso   1.00
H671   H     0.62082   0.05464   0.53902   0.00000  Uiso   1.00
H672   H     0.66370   0.09525   0.52111   0.00000  Uiso   1.00
C673   C     0.16379   0.74995   0.50125   0.00000  Uiso   1.00
C674   C     0.33615   0.74998   0.49791   0.00000  Uiso   1.00
C675   C     0.23795   0.60182   0.45740   0.00000  Uiso   1.00
C676   C     0.27407   0.89739   0.53577   0.00000  Uiso   1.00
C677   C     0.26210   0.60188   0.54261   0.00000  Uiso   1.00
C678   C     0.22594   0.89737   0.46423   0.00000  Uiso   1.00
C679   C     0.23980   0.55218   0.45640   0.00000  Uiso   1.00
C680   C     0.27556   0.94719   0.53500   0.00000  Uiso   1.00
C681   C     0.26024   0.55223   0.54364   0.00000  Uiso   1.00
C682   C     0.22440   0.94715   0.46506   0.00000  Uiso   1.00
C683   C     0.25005   0.75000   0.40624   0.00000  Uiso   1.00
C684   C     0.24997   0.75001   0.59376   0.00000  Uiso   1.00
C685   C     0.25001   0.52631   0.50003   0.00000  Uiso   1.00
C686   C     0.24998   0.97302   0.50004   0.00000  Uiso   1.00
C687   C     0.25007   0.75003   0.35516   0.00000  Uiso   1.00
C688   C     0.24998   0.75003   0.64484   0.00000  Uiso   1.00
C689   C     0.04647   0.78516   0.47602   0.00000  Uiso   1.00
C690   C     0.45190   0.70796   0.47361   0.00000  Uiso   1.00
C691   C     0.45484   0.78618   0.50941   0.00000  Uiso   1.00
C692   C     0.04664   0.70731   0.51288   0.00000  Uiso   1.00
C693   C     0.09170   0.78933   0.48473   0.00000  Uiso   1.00
C694   C     0.40546   0.70837   0.47508   0.00000  Uiso   1.00
C695   C     0.40907   0.78994   0.50623   0.00000  Uiso   1.00
C696   C     0.09302   0.70805   0.51670   0.00000  Uiso   1.00
C697   C     0.11552   0.74936   0.50136   0.00000  Uiso   1.00
C698   C     0.38420   0.74951   0.49312   0.00000  Uiso   1.00
C699   C     0.02395   0.74529   0.49186   0.00000  Uiso   1.00
C700   C     0.47604   0.74610   0.49196   0.00000  Uiso   1.00
H701   H     0.02837   0.81430   0.45939   0.00000  Uiso   1.00
H702   H     0.46971   0.67864   0.45772   0.00000  Uiso   1.00
H703   H     0.47411   0.81523   0.52446   0.00000  Uiso   1.00
H704   H     0.02771   0.67826   0.52770   0.00000  Uiso   1.00
H705   H     0.23336   0.53440   0.42111   0.00000  Uiso   1.00
H706   H     0.29753   0.96521   0.56101   0.00000  Uiso   1.00
H707   H     0.26663   0.53446   0.57893   0.00000  Uiso   1.00
H708   H     0.20244   0.96514   0.43905   0.00000  Uiso   1.00
N709   N     0.25000   0.62623   0.50000   0.00000  Uiso   1.00
N710   N     0.25000   0.87376   0.50000   0.00000  Uiso   1.00
O711   O     0.18453   0.78974   0.50000   0.00000  Uiso   1.00
O712   O     0.31547   0.71026   0.50000   0.00000  Uiso   1.00
O713   O     0.31547   0.78974   0.50000   0.00000  Uiso   1.00
O714   O     0.18453   0.71026   0.50000   0.00000  Uiso   1.00
O715   O     0.25000   0.78973   0.42845   0.00000  Uiso   1.00
O716   O     0.25000   0.71027   0.57155   0.00000  Uiso   1.00
O717   O     0.25000   0.78973   0.57155   0.00000  Uiso   1.00
O718   O     0.25000   0.71027   0.42845   0.00000  Uiso   1.00
Zn719  Zn    0.25000   0.80307   0.50000   0.00000  Uiso   1.00
Zn720  Zn    0.25000   0.69693   0.50000   0.00000  Uiso   1.00
O721   O     0.22687   0.62578   0.41392   0.00000  Uiso   1.00
C722   C     0.18092   0.62093   0.40425   0.00000  Uiso   1.00
H723   H     0.16132   0.63426   0.43642   0.00000  Uiso   1.00
H724   H     0.17193   0.58358   0.39672   0.00000  Uiso   1.00
C725   C     0.16827   0.64957   0.35791   0.00000  Uiso   1.00
H726   H     0.18882   0.63882   0.65888   0.00000  Uiso   1.00
H727   H     0.13277   0.64372   0.34816   0.00000  Uiso   1.00
H728   H     0.17345   0.68758   0.36543   0.00000  Uiso   1.00
O729   O     0.30078   0.87165   0.56846   0.00000  Uiso   1.00
C730   C     0.29427   0.88462   0.61925   0.00000  Uiso   1.00
H731   H     0.28408   0.85275   0.64021   0.00000  Uiso   1.00
H732   H     0.26783   0.91140   0.62519   0.00000  Uiso   1.00
C733   C     0.33776   0.90203   0.64234   0.00000  Uiso   1.00
H734   H     0.34909   0.93422   0.62275   0.00000  Uiso   1.00
H735   H     0.33305   0.91031   0.34938   0.00000  Uiso   1.00
H736   H     0.36361   0.87442   0.63914   0.00000  Uiso   1.00
O737   O     0.27313   0.62596   0.58606   0.00000  Uiso   1.00
C738   C     0.31891   0.62051   0.59642   0.00000  Uiso   1.00
H739   H     0.33911   0.63227   0.56401   0.00000  Uiso   1.00
H740   H     0.32703   0.58327   0.60556   0.00000  Uiso   1.00
C741   C     0.33170   0.65051   0.64174   0.00000  Uiso   1.00
H742   H     0.31043   0.64160   0.34080   0.00000  Uiso   1.00
H743   H     0.36690   0.64403   0.65240   0.00000  Uiso   1.00
H744   H     0.32763   0.68835   0.63253   0.00000  Uiso   1.00
O745   O     0.19932   0.87158   0.43145   0.00000  Uiso   1.00
C746   C     0.20589   0.88463   0.38069   0.00000  Uiso   1.00
H747   H     0.21617   0.85281   0.35971   0.00000  Uiso   1.00
H748   H     0.23229   0.91150   0.37484   0.00000  Uiso   1.00
C749   C     0.16240   0.90191   0.35756   0.00000  Uiso   1.00
H750   H     0.15103   0.93410   0.37710   0.00000  Uiso   1.00
H751   H     0.16712   0.91015   0.65051   0.00000  Uiso   1.00
H752   H     0.13657   0.87425   0.36078   0.00000  Uiso   1.00
O753   O     0.11270   0.83216   0.47691   0.00000  Uiso   1.00
C754   C     0.09383   0.86679   0.50852   0.00000  Uiso   1.00
H755   H     0.08732   0.85293   0.54700   0.00000  Uiso   1.00
H756   H     0.06233   0.88015   0.49166   0.00000  Uiso   1.00
C757   C     0.12525   0.90823   0.51431   0.00000  Uiso   1.00
H758   H     0.13186   0.92384   0.47694   0.00000  Uiso   1.00
H759   H     0.11003   0.93552   0.53842   0.00000  Uiso   1.00
H760   H     0.15673   0.89651   0.53243   0.00000  Uiso   1.00
O761   O     0.37963   0.67242   0.45394   0.00000  Uiso   1.00
C762   C     0.39865   0.62730   0.46009   0.00000  Uiso   1.00
H763   H     0.41292   0.62244   0.49865   0.00000  Uiso   1.00
H764   H     0.42453   0.62151   0.43143   0.00000  Uiso   1.00
C765   C     0.36305   0.59009   0.45171   0.00000  Uiso   1.00
H766   H     0.37786   0.55446   0.45506   0.00000  Uiso   1.00
H767   H     0.33697   0.59377   0.48029   0.00000  Uiso   1.00
H768   H     0.34781   0.59399   0.41369   0.00000  Uiso   1.00
O769   O     0.38841   0.83239   0.51709   0.00000  Uiso   1.00
C770   C     0.40585   0.86864   0.48643   0.00000  Uiso   1.00
H771   H     0.41206   0.85636   0.44729   0.00000  Uiso   1.00
H772   H     0.43724   0.88239   0.50322   0.00000  Uiso   1.00
C773   C     0.37332   0.90924   0.48296   0.00000  Uiso   1.00
H774   H     0.36723   0.92353   0.52104   0.00000  Uiso   1.00
H775   H     0.38729   0.93769   0.45936   0.00000  Uiso   1.00
H776   H     0.34174   0.89709   0.46537   0.00000  Uiso   1.00
O777   O     0.11702   0.67252   0.54107   0.00000  Uiso   1.00
C778   C     0.09941   0.62712   0.53210   0.00000  Uiso   1.00
H779   H     0.08944   0.62226   0.49191   0.00000  Uiso   1.00
H780   H     0.07065   0.62069   0.55683   0.00000  Uiso   1.00
C781   C     0.13444   0.59051   0.54523   0.00000  Uiso   1.00
H782   H     0.14492   0.59407   0.58524   0.00000  Uiso   1.00
H783   H     0.12082   0.55464   0.53902   0.00000  Uiso   1.00
H784   H     0.16370   0.59525   0.52111   0.00000  Uiso   1.00
C785   C     0.66379   0.74995   0.50125   0.00000  Uiso   1.00
C786   C     0.83615   0.74998   0.49791   0.00000  Uiso   1.00
C787   C     0.73795   0.60182   0.45740   0.00000  Uiso   1.00
C788   C     0.77407   0.89739   0.53577   0.00000  Uiso   1.00
C789   C     0.76210   0.60188   0.54261   0.00000  Uiso   1.00
C790   C     0.72594   0.89737   0.46423   0.00000  Uiso   1.00
C791   C     0.73980   0.55218   0.45640   0.00000  Uiso   1.00
C792   C     0.77556   0.94719   0.53500   0.00000  Uiso   1.00
C793   C     0.76024   0.55223   0.54364   0.00000  Uiso   1.00
C794   C     0.72440   0.94715   0.46506   0.00000  Uiso   1.00
C795   C     0.75005   0.75000   0.40624   0.00000  Uiso   1.00
C796   C     0.74997   0.75001   0.59376   0.00000  Uiso   1.00
C797   C     0.75001   0.52631   0.50003   0.00000  Uiso   1.00
C798   C     0.74998   0.97302   0.50004   0.00000  Uiso   1.00
C799   C     0.75007   0.75003   0.35516   0.00000  Uiso   1.00
C800   C     0.74998   0.75003   0.64484   0.00000  Uiso   1.00
C801   C     0.54647   0.78516   0.47602   0.00000  Uiso   1.00
C802   C     0.95190   0.70796   0.47361   0.00000  Uiso   1.00
C803   C     0.95484   0.78618   0.50941   0.00000  Uiso   1.00
C804   C     0.54664   0.70731   0.51288   0.00000  Uiso   1.00
C805   C     0.59170   0.78933   0.48473   0.00000  Uiso   1.00
C806   C     0.90546   0.70837   0.47508   0.00000  Uiso   1.00
C807   C     0.90907   0.78994   0.50623   0.00000  Uiso   1.00
C808   C     0.59302   0.70805   0.51670   0.00000  Uiso   1.00
C809   C     0.61552   0.74936   0.50136   0.00000  Uiso   1.00
C810   C     0.88420   0.74951   0.49312   0.00000  Uiso   1.00
C811   C     0.52395   0.74529   0.49186   0.00000  Uiso   1.00
C812   C     0.97604   0.74610   0.49196   0.00000  Uiso   1.00
H813   H     0.52837   0.81430   0.45939   0.00000  Uiso   1.00
H814   H     0.96971   0.67864   0.45772   0.00000  Uiso   1.00
H815   H     0.97411   0.81523   0.52446   0.00000  Uiso   1.00
H816   H     0.52771   0.67826   0.52770   0.00000  Uiso   1.00
H817   H     0.73336   0.53440   0.42111   0.00000  Uiso   1.00
H818   H     0.79753   0.96521   0.56101   0.00000  Uiso   1.00
H819   H     0.76663   0.53446   0.57893   0.00000  Uiso   1.00
H820   H     0.70244   0.96514   0.43905   0.00000  Uiso   1.00
N821   N     0.75000   0.62623   0.50000   0.00000  Uiso   1.00
N822   N     0.75000   0.87376   0.50000   0.00000  Uiso   1.00
O823   O     0.68453   0.78974   0.50000   0.00000  Uiso   1.00
O824   O     0.81547   0.71026   0.50000   0.00000  Uiso   1.00
O825   O     0.81547   0.78974   0.50000   0.00000  Uiso   1.00
O826   O     0.68453   0.71026   0.50000   0.00000  Uiso   1.00
O827   O     0.75000   0.78973   0.42845   0.00000  Uiso   1.00
O828   O     0.75000   0.71027   0.57155   0.00000  Uiso   1.00
O829   O     0.75000   0.78973   0.57155   0.00000  Uiso   1.00
O830   O     0.75000   0.71027   0.42845   0.00000  Uiso   1.00
Zn831  Zn    0.75000   0.80307   0.50000   0.00000  Uiso   1.00
Zn832  Zn    0.75000   0.69693   0.50000   0.00000  Uiso   1.00
O833   O     0.72687   0.62578   0.41392   0.00000  Uiso   1.00
C834   C     0.68092   0.62093   0.40425   0.00000  Uiso   1.00
H835   H     0.66132   0.63426   0.43642   0.00000  Uiso   1.00
H836   H     0.67193   0.58358   0.39672   0.00000  Uiso   1.00
C837   C     0.66827   0.64957   0.35791   0.00000  Uiso   1.00
H838   H     0.68882   0.63882   0.65888   0.00000  Uiso   1.00
H839   H     0.63277   0.64372   0.34816   0.00000  Uiso   1.00
H840   H     0.67345   0.68758   0.36543   0.00000  Uiso   1.00
O841   O     0.80078   0.87165   0.56846   0.00000  Uiso   1.00
C842   C     0.79427   0.88462   0.61925   0.00000  Uiso   1.00
H843   H     0.78408   0.85275   0.64021   0.00000  Uiso   1.00
H844   H     0.76783   0.91140   0.62519   0.00000  Uiso   1.00
C845   C     0.83776   0.90203   0.64234   0.00000  Uiso   1.00
H846   H     0.84909   0.93422   0.62275   0.00000  Uiso   1.00
H847   H     0.83305   0.91031   0.34938   0.00000  Uiso   1.00
H848   H     0.86361   0.87442   0.63914   0.00000  Uiso   1.00
O849   O     0.77313   0.62596   0.58606   0.00000  Uiso   1.00
C850   C     0.81891   0.62051   0.59642   0.00000  Uiso   1.00
H851   H     0.83911   0.63227   0.56401   0.00000  Uiso   1.00
H852   H     0.82703   0.58327   0.60556   0.00000  Uiso   1.00
C853   C     0.83170   0.65051   0.64174   0.00000  Uiso   1.00
H854   H     0.81043   0.64160   0.34080   0.00000  Uiso   1.00
H855   H     0.86690   0.64403   0.65240   0.00000  Uiso   1.00
H856   H     0.82763   0.68835   0.63253   0.00000  Uiso   1.00
O857   O     0.69932   0.87158   0.43145   0.00000  Uiso   1.00
C858   C     0.70589   0.88463   0.38069   0.00000  Uiso   1.00
H859   H     0.71617   0.85281   0.35971   0.00000  Uiso   1.00
H860   H     0.73229   0.91150   0.37484   0.00000  Uiso   1.00
C861   C     0.66240   0.90191   0.35756   0.00000  Uiso   1.00
H862   H     0.65103   0.93410   0.37710   0.00000  Uiso   1.00
H863   H     0.66712   0.91015   0.65051   0.00000  Uiso   1.00
H864   H     0.63657   0.87425   0.36078   0.00000  Uiso   1.00
O865   O     0.61270   0.83216   0.47691   0.00000  Uiso   1.00
C866   C     0.59383   0.86679   0.50852   0.00000  Uiso   1.00
H867   H     0.58732   0.85293   0.54700   0.00000  Uiso   1.00
H868   H     0.56233   0.88015   0.49166   0.00000  Uiso   1.00
C869   C     0.62525   0.90823   0.51431   0.00000  Uiso   1.00
H870   H     0.63186   0.92384   0.47694   0.00000  Uiso   1.00
H871   H     0.61003   0.93552   0.53842   0.00000  Uiso   1.00
H872   H     0.65673   0.89651   0.53243   0.00000  Uiso   1.00
O873   O     0.87963   0.67242   0.45394   0.00000  Uiso   1.00
C874   C     0.89865   0.62730   0.46009   0.00000  Uiso   1.00
H875   H     0.91292   0.62244   0.49865   0.00000  Uiso   1.00
H876   H     0.92453   0.62151   0.43143   0.00000  Uiso   1.00
C877   C     0.86305   0.59009   0.45171   0.00000  Uiso   1.00
H878   H     0.87786   0.55446   0.45506   0.00000  Uiso   1.00
H879   H     0.83697   0.59377   0.48029   0.00000  Uiso   1.00
H880   H     0.84781   0.59399   0.41369   0.00000  Uiso   1.00
O881   O     0.88841   0.83239   0.51709   0.00000  Uiso   1.00
C882   C     0.90585   0.86864   0.48643   0.00000  Uiso   1.00
H883   H     0.91206   0.85636   0.44729   0.00000  Uiso   1.00
H884   H     0.93724   0.88239   0.50322   0.00000  Uiso   1.00
C885   C     0.87332   0.90924   0.48296   0.00000  Uiso   1.00
H886   H     0.86723   0.92353   0.52104   0.00000  Uiso   1.00
H887   H     0.88729   0.93769   0.45936   0.00000  Uiso   1.00
H888   H     0.84174   0.89709   0.46537   0.00000  Uiso   1.00
O889   O     0.61702   0.67252   0.54107   0.00000  Uiso   1.00
C890   C     0.59941   0.62712   0.53210   0.00000  Uiso   1.00
H891   H     0.58944   0.62226   0.49191   0.00000  Uiso   1.00
H892   H     0.57065   0.62069   0.55683   0.00000  Uiso   1.00
C893   C     0.63444   0.59051   0.54523   0.00000  Uiso   1.00
H894   H     0.64492   0.59407   0.58524   0.00000  Uiso   1.00
H895   H     0.62082   0.55464   0.53902   0.00000  Uiso   1.00
H896   H     0.66370   0.59525   0.52111   0.00000  Uiso   1.00
C897   C     0.16379   0.24995   0.83458   0.00000  Uiso   1.00
C898   C     0.33615   0.24998   0.83124   0.00000  Uiso   1.00
C899   C     0.23795   0.10182   0.79073   0.00000  Uiso   1.00
C900   C     0.27407   0.39739   0.86911   0.00000  Uiso   1.00
C901   C     0.26210   0.10188   0.87594   0.00000  Uiso   1.00
C902   C     0.22594   0.39737   0.79757   0.00000  Uiso   1.00
C903   C     0.23980   0.05218   0.78973   0.00000  Uiso   1.00
C904   C     0.27556   0.44719   0.86833   0.00000  Uiso   1.00
C905   C     0.26024   0.05223   0.87697   0.00000  Uiso   1.00
C906   C     0.22440   0.44715   0.79840   0.00000  Uiso   1.00
C907   C     0.25005   0.25000   0.73957   0.00000  Uiso   1.00
C908   C     0.24997   0.25001   0.92709   0.00000  Uiso   1.00
C909   C     0.25001   0.02631   0.83336   0.00000  Uiso   1.00
C910   C     0.24998   0.47302   0.83337   0.00000  Uiso   1.00
C911   C     0.25007   0.25003   0.68849   0.00000  Uiso   1.00
C912   C     0.24998   0.25003   0.97818   0.00000  Uiso   1.00
C913   C     0.04647   0.28516   0.80935   0.00000  Uiso   1.00
C914   C     0.45190   0.20796   0.80694   0.00000  Uiso   1.00
C915   C     0.45484   0.28618   0.84274   0.00000  Uiso   1.00
C916   C     0.04664   0.20731   0.84621   0.00000  Uiso   1.00
C917   C     0.09170   0.28933   0.81806   0.00000  Uiso   1.00
C918   C     0.40546   0.20837   0.80841   0.00000  Uiso   1.00
C919   C     0.40907   0.28994   0.83956   0.00000  Uiso   1.00
C920   C     0.09302   0.20805   0.85003   0.00000  Uiso   1.00
C921   C     0.11552   0.24936   0.83469   0.00000  Uiso   1.00
C922   C     0.38420   0.24951   0.82645   0.00000  Uiso   1.00
C923   C     0.02395   0.24529   0.82519   0.00000  Uiso   1.00
C924   C     0.47604   0.24610   0.82530   0.00000  Uiso   1.00
H925   H     0.02837   0.31430   0.79272   0.00000  Uiso   1.00
H926   H     0.46971   0.17864   0.79105   0.00000  Uiso   1.00
H927   H     0.47411   0.31523   0.85780   0.00000  Uiso   1.00
H928   H     0.02771   0.17826   0.86103   0.00000  Uiso   1.00
H929   H     0.23336   0.03440   0.75444   0.00000  Uiso   1.00
H930   H     0.29753   0.46521   0.89434   0.00000  Uiso   1.00
H931   H     0.26663   0.03446   0.91227   0.00000  Uiso   1.00
H932   H     0.20244   0.46514   0.77239   0.00000  Uiso   1.00
N933   N     0.25000   0.12623   0.83333   0.00000  Uiso   1.00
N934   N     0.25000   0.37376   0.83333   0.00000  Uiso   1.00
O935   O     0.18453   0.28974   0.83334   0.00000  Uiso   1.00
O936   O     0.31547   0.21026   0.83333   0.00000  Uiso   1.00
O937   O     0.31547   0.28974   0.83333   0.00000  Uiso   1.00
O938   O     0.18453   0.21026   0.83334   0.00000  Uiso   1.00
O939   O     0.25000   0.28973   0.76178   0.00000  Uiso   1.00
O940   O     0.25000   0.21027   0.90489   0.00000  Uiso   1.00
O941   O     0.25000   0.28973   0.90489   0.00000  Uiso   1.00
O942   O     0.25000   0.21027   0.76178   0.00000  Uiso   1.00
Zn943  Zn    0.25000   0.30307   0.83333   0.00000  Uiso   1.00
Zn944  Zn    0.25000   0.19693   0.83333   0.00000  Uiso   1.00
O945   O     0.22687   0.12578   0.74725   0.00000  Uiso   1.00
C946   C     0.18092   0.12093   0.73759   0.00000  Uiso   1.00
H947   H     0.16132   0.13426   0.76976   0.00000  Uiso   1.00
H948   H     0.17193   0.08358   0.73005   0.00000  Uiso   1.00
C949   C     0.16827   0.14957   0.69124   0.00000  Uiso   1.00
H950   H     0.18882   0.13882   0.99222   0.00000  Uiso   1.00
H951   H     0.13277   0.14372   0.68149   0.00000  Uiso   1.00
H952   H     0.17345   0.18758   0.69876   0.00000  Uiso   1.00
O953   O     0.30078   0.37165   0.90180   0.00000  Uiso   1.00
C954   C     0.29427   0.38462   0.95259   0.00000  Uiso   1.00
H955   H     0.28408   0.35275   0.97354   0.00000  Uiso   1.00
H956   H     0.26783   0.41140   0.95852   0.00000  Uiso   1.00
C957   C     0.33776   0.40203   0.97567   0.00000  Uiso   1.00
H958   H     0.34909   0.43422   0.95608   0.00000  Uiso   1.00
H959   H     0.33305   0.41031   0.68271   0.00000  Uiso   1.00
H960   H     0.36361   0.37442   0.97247   0.00000  Uiso   1.00
O961   O     0.27313   0.12596   0.91939   0.00000  Uiso   1.00
C962   C     0.31891   0.12051   0.92975   0.00000  Uiso   1.00
H963   H     0.33911   0.13227   0.89734   0.00000  Uiso   1.00
H964   H     0.32703   0.08327   0.93889   0.00000  Uiso   1.00
C965   C     0.33170   0.15051   0.97507   0.00000  Uiso   1.00
H966   H     0.31043   0.14160   0.67413   0.00000  Uiso   1.00
H967   H     0.36690   0.14403   0.98573   0.00000  Uiso   1.00
H968   H     0.32763   0.18835   0.96586   0.00000  Uiso   1.00
O969   O     0.19932   0.37158   0.76478   0.00000  Uiso   1.00
C970   C     0.20589   0.38463   0.71402   0.00000  Uiso   1.00
H971   H     0.21617   0.35281   0.69305   0.00000  Uiso   1.00
H972   H     0.23229   0.41150   0.70818   0.00000  Uiso   1.00
C973   C     0.16240   0.40191   0.69089   0.00000  Uiso   1.00
H974   H     0.15103   0.43410   0.71044   0.00000  Uiso   1.00
H975   H     0.16712   0.41015   0.98385   0.00000  Uiso   1.00
H976   H     0.13657   0.37425   0.69411   0.00000  Uiso   1.00
O977   O     0.11270   0.33216   0.81025   0.00000  Uiso   1.00
C978   C     0.09383   0.36679   0.84186   0.00000  Uiso   1.00
H979   H     0.08732   0.35293   0.88033   0.00000  Uiso   1.00
H980   H     0.06233   0.38015   0.82500   0.00000  Uiso   1.00
C981   C     0.12525   0.40823   0.84764   0.00000  Uiso   1.00
H982   H     0.13186   0.42384   0.81027   0.00000  Uiso   1.00
H983   H     0.11003   0.43552   0.87175   0.00000  Uiso   1.00
H984   H     0.15673   0.39651   0.86576   0.00000  Uiso   1.00
O985   O     0.37963   0.17242   0.78727   0.00000  Uiso   1.00
C986   C     0.39865   0.12730   0.79343   0.00000  Uiso   1.00
H987   H     0.41292   0.12244   0.83198   0.00000  Uiso   1.00
H988   H     0.42453   0.12151   0.76477   0.00000  Uiso   1.00
C989   C     0.36305   0.09009   0.78504   0.00000  Uiso   1.00
H990   H     0.37786   0.05446   0.78839   0.00000  Uiso   1.00
H991   H     0.33697   0.09377   0.81362   0.00000  Uiso   1.00
H992   H     0.34781   0.09399   0.74702   0.00000  Uiso   1.00
O993   O     0.38841   0.33239   0.85043   0.00000  Uiso   1.00
C994   C     0.40585   0.36864   0.81977   0.00000  Uiso   1.00
H995   H     0.41206   0.35636   0.78062   0.00000  Uiso   1.00
H996   H     0.43724   0.38239   0.83656   0.00000  Uiso   1.00
C997   C     0.37332   0.40924   0.81629   0.00000  Uiso   1.00
H998   H     0.36723   0.42353   0.85438   0.00000  Uiso   1.00
H999   H     0.38729   0.43769   0.79269   0.00000  Uiso   1.00
H1000  H     0.34174   0.39709   0.79870   0.00000  Uiso   1.00
O1001  O     0.11702   0.17252   0.87440   0.00000  Uiso   1.00
C1002  C     0.09941   0.12712   0.86543   0.00000  Uiso   1.00
H1003  H     0.08944   0.12226   0.82524   0.00000  Uiso   1.00
H1004  H     0.07065   0.12069   0.89016   0.00000  Uiso   1.00
C1005  C     0.13444   0.09051   0.87856   0.00000  Uiso   1.00
H1006  H     0.14492   0.09407   0.91857   0.00000  Uiso   1.00
H1007  H     0.12082   0.05464   0.87235   0.00000  Uiso   1.00
H1008  H     0.16370   0.09525   0.85444   0.00000  Uiso   1.00
C1009  C     0.66379   0.24995   0.83458   0.00000  Uiso   1.00
C1010  C     0.83615   0.24998   0.83124   0.00000  Uiso   1.00
C1011  C     0.73795   0.10182   0.79073   0.00000  Uiso   1.00
C1012  C     0.77407   0.39739   0.86911   0.00000  Uiso   1.00
C1013  C     0.76210   0.10188   0.87594   0.00000  Uiso   1.00
C1014  C     0.72594   0.39737   0.79757   0.00000  Uiso   1.00
C1015  C     0.73980   0.05218   0.78973   0.00000  Uiso   1.00
C1016  C     0.77556   0.44719   0.86833   0.00000  Uiso   1.00
C1017  C     0.76024   0.05223   0.87697   0.00000  Uiso   1.00
C1018  C     0.72440   0.44715   0.79840   0.00000  Uiso   1.00
C1019  C     0.75005   0.25000   0.73957   0.00000  Uiso   1.00
C1020  C     0.74997   0.25001   0.92709   0.00000  Uiso   1.00
C1021  C     0.75001   0.02631   0.83336   0.00000  Uiso   1.00
C1022  C     0.74998   0.47302   0.83337   0.00000  Uiso   1.00
C1023  C     0.75007   0.25003   0.68849   0.00000  Uiso   1.00
C1024  C     0.74998   0.25003   0.97818   0.00000  Uiso   1.00
C1025  C     0.54647   0.28516   0.80935   0.00000  Uiso   1.00
C1026  C     0.95190   0.20796   0.80694   0.00000  Uiso   1.00
C1027  C     0.95484   0.28618   0.84274   0.00000  Uiso   1.00
C1028  C     0.54664   0.20731   0.84621   0.00000  Uiso   1.00
C1029  C     0.59170   0.28933   0.81806   0.00000  Uiso   1.00
C1030  C     0.90546   0.20837   0.80841   0.00000  Uiso   1.00
C1031  C     0.90907   0.28994   0.83956   0.00000  Uiso   1.00
C1032  C     0.59302   0.20805   0.85003   0.00000  Uiso   1.00
C1033  C     0.61552   0.24936   0.83469   0.00000  Uiso   1.00
C1034  C     0.88420   0.24951   0.82645   0.00000  Uiso   1.00
C1035  C     0.52395   0.24529   0.82519   0.00000  Uiso   1.00
C1036  C     0.97604   0.24610   0.82530   0.00000  Uiso   1.00
H1037  H     0.52837   0.31430   0.79272   0.00000  Uiso   1.00
H1038  H     0.96971   0.17864   0.79105   0.00000  Uiso   1.00
H1039  H     0.97411   0.31523   0.85780   0.00000  Uiso   1.00
H1040  H     0.52771   0.17826   0.86103   0.00000  Uiso   1.00
H1041  H     0.73336   0.03440   0.75444   0.00000  Uiso   1.00
H1042  H     0.79753   0.46521   0.89434   0.00000  Uiso   1.00
H1043  H     0.76663   0.03446   0.91227   0.00000  Uiso   1.00
H1044  H     0.70244   0.46514   0.77239   0.00000  Uiso   1.00
N1045  N     0.75000   0.12623   0.83333   0.00000  Uiso   1.00
N1046  N     0.75000   0.37376   0.83333   0.00000  Uiso   1.00
O1047  O     0.68453   0.28974   0.83334   0.00000  Uiso   1.00
O1048  O     0.81547   0.21026   0.83333   0.00000  Uiso   1.00
O1049  O     0.81547   0.28974   0.83333   0.00000  Uiso   1.00
O1050  O     0.68453   0.21026   0.83334   0.00000  Uiso   1.00
O1051  O     0.75000   0.28973   0.76178   0.00000  Uiso   1.00
O1052  O     0.75000   0.21027   0.90489   0.00000  Uiso   1.00
O1053  O     0.75000   0.28973   0.90489   0.00000  Uiso   1.00
O1054  O     0.75000   0.21027   0.76178   0.00000  Uiso   1.00
Zn1055 Zn    0.75000   0.30307   0.83333   0.00000  Uiso   1.00
Zn1056 Zn    0.75000   0.19693   0.83333   0.00000  Uiso   1.00
O1057  O     0.72687   0.12578   0.74725   0.00000  Uiso   1.00
C1058  C     0.68092   0.12093   0.73759   0.00000  Uiso   1.00
H1059  H     0.66132   0.13426   0.76976   0.00000  Uiso   1.00
H1060  H     0.67193   0.08358   0.73005   0.00000  Uiso   1.00
C1061  C     0.66827   0.14957   0.69124   0.00000  Uiso   1.00
H1062  H     0.68882   0.13882   0.99222   0.00000  Uiso   1.00
H1063  H     0.63277   0.14372   0.68149   0.00000  Uiso   1.00
H1064  H     0.67345   0.18758   0.69876   0.00000  Uiso   1.00
O1065  O     0.80078   0.37165   0.90180   0.00000  Uiso   1.00
C1066  C     0.79427   0.38462   0.95259   0.00000  Uiso   1.00
H1067  H     0.78408   0.35275   0.97354   0.00000  Uiso   1.00
H1068  H     0.76783   0.41140   0.95852   0.00000  Uiso   1.00
C1069  C     0.83776   0.40203   0.97567   0.00000  Uiso   1.00
H1070  H     0.84909   0.43422   0.95608   0.00000  Uiso   1.00
H1071  H     0.83305   0.41031   0.68271   0.00000  Uiso   1.00
H1072  H     0.86361   0.37442   0.97247   0.00000  Uiso   1.00
O1073  O     0.77313   0.12596   0.91939   0.00000  Uiso   1.00
C1074  C     0.81891   0.12051   0.92975   0.00000  Uiso   1.00
H1075  H     0.83911   0.13227   0.89734   0.00000  Uiso   1.00
H1076  H     0.82703   0.08327   0.93889   0.00000  Uiso   1.00
C1077  C     0.83170   0.15051   0.97507   0.00000  Uiso   1.00
H1078  H     0.81043   0.14160   0.67413   0.00000  Uiso   1.00
H1079  H     0.86690   0.14403   0.98573   0.00000  Uiso   1.00
H1080  H     0.82763   0.18835   0.96586   0.00000  Uiso   1.00
O1081  O     0.69932   0.37158   0.76478   0.00000  Uiso   1.00
C1082  C     0.70589   0.38463   0.71402   0.00000  Uiso   1.00
H1083  H     0.71617   0.35281   0.69305   0.00000  Uiso   1.00
H1084  H     0.73229   0.41150   0.70818   0.00000  Uiso   1.00
C1085  C     0.66240   0.40191   0.69089   0.00000  Uiso   1.00
H1086  H     0.65103   0.43410   0.71044   0.00000  Uiso   1.00
H1087  H     0.66712   0.41015   0.98385   0.00000  Uiso   1.00
H1088  H     0.63657   0.37425   0.69411   0.00000  Uiso   1.00
O1089  O     0.61270   0.33216   0.81025   0.00000  Uiso   1.00
C1090  C     0.59383   0.36679   0.84186   0.00000  Uiso   1.00
H1091  H     0.58732   0.35293   0.88033   0.00000  Uiso   1.00
H1092  H     0.56233   0.38015   0.82500   0.00000  Uiso   1.00
C1093  C     0.62525   0.40823   0.84764   0.00000  Uiso   1.00
H1094  H     0.63186   0.42384   0.81027   0.00000  Uiso   1.00
H1095  H     0.61003   0.43552   0.87175   0.00000  Uiso   1.00
H1096  H     0.65673   0.39651   0.86576   0.00000  Uiso   1.00
O1097  O     0.87963   0.17242   0.78727   0.00000  Uiso   1.00
C1098  C     0.89865   0.12730   0.79343   0.00000  Uiso   1.00
H1099  H     0.91292   0.12244   0.83198   0.00000  Uiso   1.00
H1100  H     0.92453   0.12151   0.76477   0.00000  Uiso   1.00
C1101  C     0.86305   0.09009   0.78504   0.00000  Uiso   1.00
H1102  H     0.87786   0.05446   0.78839   0.00000  Uiso   1.00
H1103  H     0.83697   0.09377   0.81362   0.00000  Uiso   1.00
H1104  H     0.84781   0.09399   0.74702   0.00000  Uiso   1.00
O1105  O     0.88841   0.33239   0.85043   0.00000  Uiso   1.00
C1106  C     0.90585   0.36864   0.81977   0.00000  Uiso   1.00
H1107  H     0.91206   0.35636   0.78062   0.00000  Uiso   1.00
H1108  H     0.93724   0.38239   0.83656   0.00000  Uiso   1.00
C1109  C     0.87332   0.40924   0.81629   0.00000  Uiso   1.00
H1110  H     0.86723   0.42353   0.85438   0.00000  Uiso   1.00
H1111  H     0.88729   0.43769   0.79269   0.00000  Uiso   1.00
H1112  H     0.84174   0.39709   0.79870   0.00000  Uiso   1.00
O1113  O     0.61702   0.17252   0.87440   0.00000  Uiso   1.00
C1114  C     0.59941   0.12712   0.86543   0.00000  Uiso   1.00
H1115  H     0.58944   0.12226   0.82524   0.00000  Uiso   1.00
H1116  H     0.57065   0.12069   0.89016   0.00000  Uiso   1.00
C1117  C     0.63444   0.09051   0.87856   0.00000  Uiso   1.00
H1118  H     0.64492   0.09407   0.91857   0.00000  Uiso   1.00
H1119  H     0.62082   0.05464   0.87235   0.00000  Uiso   1.00
H1120  H     0.66370   0.09525   0.85444   0.00000  Uiso   1.00
C1121  C     0.16379   0.74995   0.83458   0.00000  Uiso   1.00
C1122  C     0.33615   0.74998   0.83124   0.00000  Uiso   1.00
C1123  C     0.23795   0.60182   0.79073   0.00000  Uiso   1.00
C1124  C     0.27407   0.89739   0.86911   0.00000  Uiso   1.00
C1125  C     0.26210   0.60188   0.87594   0.00000  Uiso   1.00
C1126  C     0.22594   0.89737   0.79757   0.00000  Uiso   1.00
C1127  C     0.23980   0.55218   0.78973   0.00000  Uiso   1.00
C1128  C     0.27556   0.94719   0.86833   0.00000  Uiso   1.00
C1129  C     0.26024   0.55223   0.87697   0.00000  Uiso   1.00
C1130  C     0.22440   0.94715   0.79840   0.00000  Uiso   1.00
C1131  C     0.25005   0.75000   0.73957   0.00000  Uiso   1.00
C1132  C     0.24997   0.75001   0.92709   0.00000  Uiso   1.00
C1133  C     0.25001   0.52631   0.83336   0.00000  Uiso   1.00
C1134  C     0.24998   0.97302   0.83337   0.00000  Uiso   1.00
C1135  C     0.25007   0.75003   0.68849   0.00000  Uiso   1.00
C1136  C     0.24998   0.75003   0.97818   0.00000  Uiso   1.00
C1137  C     0.04647   0.78516   0.80935   0.00000  Uiso   1.00
C1138  C     0.45190   0.70796   0.80694   0.00000  Uiso   1.00
C1139  C     0.45484   0.78618   0.84274   0.00000  Uiso   1.00
C1140  C     0.04664   0.70731   0.84621   0.00000  Uiso   1.00
C1141  C     0.09170   0.78933   0.81806   0.00000  Uiso   1.00
C1142  C     0.40546   0.70837   0.80841   0.00000  Uiso   1.00
C1143  C     0.40907   0.78994   0.83956   0.00000  Uiso   1.00
C1144  C     0.09302   0.70805   0.85003   0.00000  Uiso   1.00
C1145  C     0.11552   0.74936   0.83469   0.00000  Uiso   1.00
C1146  C     0.38420   0.74951   0.82645   0.00000  Uiso   1.00
C1147  C     0.02395   0.74529   0.82519   0.00000  Uiso   1.00
C1148  C     0.47604   0.74610   0.82530   0.00000  Uiso   1.00
H1149  H     0.02837   0.81430   0.79272   0.00000  Uiso   1.00
H1150  H     0.46971   0.67864   0.79105   0.00000  Uiso   1.00
H1151  H     0.47411   0.81523   0.85780   0.00000  Uiso   1.00
H1152  H     0.02771   0.67826   0.86103   0.00000  Uiso   1.00
H1153  H     0.23336   0.53440   0.75444   0.00000  Uiso   1.00
H1154  H     0.29753   0.96521   0.89434   0.00000  Uiso   1.00
H1155  H     0.26663   0.53446   0.91227   0.00000  Uiso   1.00
H1156  H     0.20244   0.96514   0.77239   0.00000  Uiso   1.00
N1157  N     0.25000   0.62623   0.83333   0.00000  Uiso   1.00
N1158  N     0.25000   0.87376   0.83333   0.00000  Uiso   1.00
O1159  O     0.18453   0.78974   0.83334   0.00000  Uiso   1.00
O1160  O     0.31547   0.71026   0.83333   0.00000  Uiso   1.00
O1161  O     0.31547   0.78974   0.83333   0.00000  Uiso   1.00
O1162  O     0.18453   0.71026   0.83334   0.00000  Uiso   1.00
O1163  O     0.25000   0.78973   0.76178   0.00000  Uiso   1.00
O1164  O     0.25000   0.71027   0.90489   0.00000  Uiso   1.00
O1165  O     0.25000   0.78973   0.90489   0.00000  Uiso   1.00
O1166  O     0.25000   0.71027   0.76178   0.00000  Uiso   1.00
Zn1167 Zn    0.25000   0.80307   0.83333   0.00000  Uiso   1.00
Zn1168 Zn    0.25000   0.69693   0.83333   0.00000  Uiso   1.00
O1169  O     0.22687   0.62578   0.74725   0.00000  Uiso   1.00
C1170  C     0.18092   0.62093   0.73759   0.00000  Uiso   1.00
H1171  H     0.16132   0.63426   0.76976   0.00000  Uiso   1.00
H1172  H     0.17193   0.58358   0.73005   0.00000  Uiso   1.00
C1173  C     0.16827   0.64957   0.69124   0.00000  Uiso   1.00
H1174  H     0.18882   0.63882   0.99222   0.00000  Uiso   1.00
H1175  H     0.13277   0.64372   0.68149   0.00000  Uiso   1.00
H1176  H     0.17345   0.68758   0.69876   0.00000  Uiso   1.00
O1177  O     0.30078   0.87165   0.90180   0.00000  Uiso   1.00
C1178  C     0.29427   0.88462   0.95259   0.00000  Uiso   1.00
H1179  H     0.28408   0.85275   0.97354   0.00000  Uiso   1.00
H1180  H     0.26783   0.91140   0.95852   0.00000  Uiso   1.00
C1181  C     0.33776   0.90203   0.97567   0.00000  Uiso   1.00
H1182  H     0.34909   0.93422   0.95608   0.00000  Uiso   1.00
H1183  H     0.33305   0.91031   0.68271   0.00000  Uiso   1.00
H1184  H     0.36361   0.87442   0.97247   0.00000  Uiso   1.00
O1185  O     0.27313   0.62596   0.91939   0.00000  Uiso   1.00
C1186  C     0.31891   0.62051   0.92975   0.00000  Uiso   1.00
H1187  H     0.33911   0.63227   0.89734   0.00000  Uiso   1.00
H1188  H     0.32703   0.58327   0.93889   0.00000  Uiso   1.00
C1189  C     0.33170   0.65051   0.97507   0.00000  Uiso   1.00
H1190  H     0.31043   0.64160   0.67413   0.00000  Uiso   1.00
H1191  H     0.36690   0.64403   0.98573   0.00000  Uiso   1.00
H1192  H     0.32763   0.68835   0.96586   0.00000  Uiso   1.00
O1193  O     0.19932   0.87158   0.76478   0.00000  Uiso   1.00
C1194  C     0.20589   0.88463   0.71402   0.00000  Uiso   1.00
H1195  H     0.21617   0.85281   0.69305   0.00000  Uiso   1.00
H1196  H     0.23229   0.91150   0.70818   0.00000  Uiso   1.00
C1197  C     0.16240   0.90191   0.69089   0.00000  Uiso   1.00
H1198  H     0.15103   0.93410   0.71044   0.00000  Uiso   1.00
H1199  H     0.16712   0.91015   0.98385   0.00000  Uiso   1.00
H1200  H     0.13657   0.87425   0.69411   0.00000  Uiso   1.00
O1201  O     0.11270   0.83216   0.81025   0.00000  Uiso   1.00
C1202  C     0.09383   0.86679   0.84186   0.00000  Uiso   1.00
H1203  H     0.08732   0.85293   0.88033   0.00000  Uiso   1.00
H1204  H     0.06233   0.88015   0.82500   0.00000  Uiso   1.00
C1205  C     0.12525   0.90823   0.84764   0.00000  Uiso   1.00
H1206  H     0.13186   0.92384   0.81027   0.00000  Uiso   1.00
H1207  H     0.11003   0.93552   0.87175   0.00000  Uiso   1.00
H1208  H     0.15673   0.89651   0.86576   0.00000  Uiso   1.00
O1209  O     0.37963   0.67242   0.78727   0.00000  Uiso   1.00
C1210  C     0.39865   0.62730   0.79343   0.00000  Uiso   1.00
H1211  H     0.41292   0.62244   0.83198   0.00000  Uiso   1.00
H1212  H     0.42453   0.62151   0.76477   0.00000  Uiso   1.00
C1213  C     0.36305   0.59009   0.78504   0.00000  Uiso   1.00
H1214  H     0.37786   0.55446   0.78839   0.00000  Uiso   1.00
H1215  H     0.33697   0.59377   0.81362   0.00000  Uiso   1.00
H1216  H     0.34781   0.59399   0.74702   0.00000  Uiso   1.00
O1217  O     0.38841   0.83239   0.85043   0.00000  Uiso   1.00
C1218  C     0.40585   0.86864   0.81977   0.00000  Uiso   1.00
H1219  H     0.41206   0.85636   0.78062   0.00000  Uiso   1.00
H1220  H     0.43724   0.88239   0.83656   0.00000  Uiso   1.00
C1221  C     0.37332   0.90924   0.81629   0.00000  Uiso   1.00
H1222  H     0.36723   0.92353   0.85438   0.00000  Uiso   1.00
H1223  H     0.38729   0.93769   0.79269   0.00000  Uiso   1.00
H1224  H     0.34174   0.89709   0.79870   0.00000  Uiso   1.00
O1225  O     0.11702   0.67252   0.87440   0.00000  Uiso   1.00
C1226  C     0.09941   0.62712   0.86543   0.00000  Uiso   1.00
H1227  H     0.08944   0.62226   0.82524   0.00000  Uiso   1.00
H1228  H     0.07065   0.62069   0.89016   0.00000  Uiso   1.00
C1229  C     0.13444   0.59051   0.87856   0.00000  Uiso   1.00
H1230  H     0.14492   0.59407   0.91857   0.00000  Uiso   1.00
H1231  H     0.12082   0.55464   0.87235   0.00000  Uiso   1.00
H1232  H     0.16370   0.59525   0.85444   0.00000  Uiso   1.00
C1233  C     0.66379   0.74995   0.83458   0.00000  Uiso   1.00
C1234  C     0.83615   0.74998   0.83124   0.00000  Uiso   1.00
C1235  C     0.73795   0.60182   0.79073   0.00000  Uiso   1.00
C1236  C     0.77407   0.89739   0.86911   0.00000  Uiso   1.00
C1237  C     0.76210   0.60188   0.87594   0.00000  Uiso   1.00
C1238  C     0.72594   0.89737   0.79757   0.00000  Uiso   1.00
C1239  C     0.73980   0.55218   0.78973   0.00000  Uiso   1.00
C1240  C     0.77556   0.94719   0.86833   0.00000  Uiso   1.00
C1241  C     0.76024   0.55223   0.87697   0.00000  Uiso   1.00
C1242  C     0.72440   0.94715   0.79840   0.00000  Uiso   1.00
C1243  C     0.75005   0.75000   0.73957   0.00000  Uiso   1.00
C1244  C     0.74997   0.75001   0.92709   0.00000  Uiso   1.00
C1245  C     0.75001   0.52631   0.83336   0.00000  Uiso   1.00
C1246  C     0.74998   0.97302   0.83337   0.00000  Uiso   1.00
C1247  C     0.75007   0.75003   0.68849   0.00000  Uiso   1.00
C1248  C     0.74998   0.75003   0.97818   0.00000  Uiso   1.00
C1249  C     0.54647   0.78516   0.80935   0.00000  Uiso   1.00
C1250  C     0.95190   0.70796   0.80694   0.00000  Uiso   1.00
C1251  C     0.95484   0.78618   0.84274   0.00000  Uiso   1.00
C1252  C     0.54664   0.70731   0.84621   0.00000  Uiso   1.00
C1253  C     0.59170   0.78933   0.81806   0.00000  Uiso   1.00
C1254  C     0.90546   0.70837   0.80841   0.00000  Uiso   1.00
C1255  C     0.90907   0.78994   0.83956   0.00000  Uiso   1.00
C1256  C     0.59302   0.70805   0.85003   0.00000  Uiso   1.00
C1257  C     0.61552   0.74936   0.83469   0.00000  Uiso   1.00
C1258  C     0.88420   0.74951   0.82645   0.00000  Uiso   1.00
C1259  C     0.52395   0.74529   0.82519   0.00000  Uiso   1.00
C1260  C     0.97604   0.74610   0.82530   0.00000  Uiso   1.00
H1261  H     0.52837   0.81430   0.79272   0.00000  Uiso   1.00
H1262  H     0.96971   0.67864   0.79105   0.00000  Uiso   1.00
H1263  H     0.97411   0.81523   0.85780   0.00000  Uiso   1.00
H1264  H     0.52771   0.67826   0.86103   0.00000  Uiso   1.00
H1265  H     0.73336   0.53440   0.75444   0.00000  Uiso   1.00
H1266  H     0.79753   0.96521   0.89434   0.00000  Uiso   1.00
H1267  H     0.76663   0.53446   0.91227   0.00000  Uiso   1.00
H1268  H     0.70244   0.96514   0.77239   0.00000  Uiso   1.00
N1269  N     0.75000   0.62623   0.83333   0.00000  Uiso   1.00
N1270  N     0.75000   0.87376   0.83333   0.00000  Uiso   1.00
O1271  O     0.68453   0.78974   0.83334   0.00000  Uiso   1.00
O1272  O     0.81547   0.71026   0.83333   0.00000  Uiso   1.00
O1273  O     0.81547   0.78974   0.83333   0.00000  Uiso   1.00
O1274  O     0.68453   0.71026   0.83334   0.00000  Uiso   1.00
O1275  O     0.75000   0.78973   0.76178   0.00000  Uiso   1.00
O1276  O     0.75000   0.71027   0.90489   0.00000  Uiso   1.00
O1277  O     0.75000   0.78973   0.90489   0.00000  Uiso   1.00
O1278  O     0.75000   0.71027   0.76178   0.00000  Uiso   1.00
Zn1279 Zn    0.75000   0.80307   0.83333   0.00000  Uiso   1.00
Zn1280 Zn    0.75000   0.69693   0.83333   0.00000  Uiso   1.00
O1281  O     0.72687   0.62578   0.74725   0.00000  Uiso   1.00
C1282  C     0.68092   0.62093   0.73759   0.00000  Uiso   1.00
H1283  H     0.66132   0.63426   0.76976   0.00000  Uiso   1.00
H1284  H     0.67193   0.58358   0.73005   0.00000  Uiso   1.00
C1285  C     0.66827   0.64957   0.69124   0.00000  Uiso   1.00
H1286  H     0.68882   0.63882   0.99222   0.00000  Uiso   1.00
H1287  H     0.63277   0.64372   0.68149   0.00000  Uiso   1.00
H1288  H     0.67345   0.68758   0.69876   0.00000  Uiso   1.00
O1289  O     0.80078   0.87165   0.90180   0.00000  Uiso   1.00
C1290  C     0.79427   0.88462   0.95259   0.00000  Uiso   1.00
H1291  H     0.78408   0.85275   0.97354   0.00000  Uiso   1.00
H1292  H     0.76783   0.91140   0.95852   0.00000  Uiso   1.00
C1293  C     0.83776   0.90203   0.97567   0.00000  Uiso   1.00
H1294  H     0.84909   0.93422   0.95608   0.00000  Uiso   1.00
H1295  H     0.83305   0.91031   0.68271   0.00000  Uiso   1.00
H1296  H     0.86361   0.87442   0.97247   0.00000  Uiso   1.00
O1297  O     0.77313   0.62596   0.91939   0.00000  Uiso   1.00
C1298  C     0.81891   0.62051   0.92975   0.00000  Uiso   1.00
H1299  H     0.83911   0.63227   0.89734   0.00000  Uiso   1.00
H1300  H     0.82703   0.58327   0.93889   0.00000  Uiso   1.00
C1301  C     0.83170   0.65051   0.97507   0.00000  Uiso   1.00
H1302  H     0.81043   0.64160   0.67413   0.00000  Uiso   1.00
H1303  H     0.86690   0.64403   0.98573   0.00000  Uiso   1.00
H1304  H     0.82763   0.68835   0.96586   0.00000  Uiso   1.00
O1305  O     0.69932   0.87158   0.76478   0.00000  Uiso   1.00
C1306  C     0.70589   0.88463   0.71402   0.00000  Uiso   1.00
H1307  H     0.71617   0.85281   0.69305   0.00000  Uiso   1.00
H1308  H     0.73229   0.91150   0.70818   0.00000  Uiso   1.00
C1309  C     0.66240   0.90191   0.69089   0.00000  Uiso   1.00
H1310  H     0.65103   0.93410   0.71044   0.00000  Uiso   1.00
H1311  H     0.66712   0.91015   0.98385   0.00000  Uiso   1.00
H1312  H     0.63657   0.87425   0.69411   0.00000  Uiso   1.00
O1313  O     0.61270   0.83216   0.81025   0.00000  Uiso   1.00
C1314  C     0.59383   0.86679   0.84186   0.00000  Uiso   1.00
H1315  H     0.58732   0.85293   0.88033   0.00000  Uiso   1.00
H1316  H     0.56233   0.88015   0.82500   0.00000  Uiso   1.00
C1317  C     0.62525   0.90823   0.84764   0.00000  Uiso   1.00
H1318  H     0.63186   0.92384   0.81027   0.00000  Uiso   1.00
H1319  H     0.61003   0.93552   0.87175   0.00000  Uiso   1.00
H1320  H     0.65673   0.89651   0.86576   0.00000  Uiso   1.00
O1321  O     0.87963   0.67242   0.78727   0.00000  Uiso   1.00
C1322  C     0.89865   0.62730   0.79343   0.00000  Uiso   1.00
H1323  H     0.91292   0.62244   0.83198   0.00000  Uiso   1.00
H1324  H     0.92453   0.62151   0.76477   0.00000  Uiso   1.00
C1325  C     0.86305   0.59009   0.78504   0.00000  Uiso   1.00
H1326  H     0.87786   0.55446   0.78839   0.00000  Uiso   1.00
H1327  H     0.83697   0.59377   0.81362   0.00000  Uiso   1.00
H1328  H     0.84781   0.59399   0.74702   0.00000  Uiso   1.00
O1329  O     0.88841   0.83239   0.85043   0.00000  Uiso   1.00
C1330  C     0.90585   0.86864   0.81977   0.00000  Uiso   1.00
H1331  H     0.91206   0.85636   0.78062   0.00000  Uiso   1.00
H1332  H     0.93724   0.88239   0.83656   0.00000  Uiso   1.00
C1333  C     0.87332   0.90924   0.81629   0.00000  Uiso   1.00
H1334  H     0.86723   0.92353   0.85438   0.00000  Uiso   1.00
H1335  H     0.88729   0.93769   0.79269   0.00000  Uiso   1.00
H1336  H     0.84174   0.89709   0.79870   0.00000  Uiso   1.00
O1337  O     0.61702   0.67252   0.87440   0.00000  Uiso   1.00
C1338  C     0.59941   0.62712   0.86543   0.00000  Uiso   1.00
H1339  H     0.58944   0.62226   0.82524   0.00000  Uiso   1.00
H1340  H     0.57065   0.62069   0.89016   0.00000  Uiso   1.00
C1341  C     0.63444   0.59051   0.87856   0.00000  Uiso   1.00
H1342  H     0.64492   0.59407   0.91857   0.00000  Uiso   1.00
H1343  H     0.62082   0.55464   0.87235   0.00000  Uiso   1.00
H1344  H     0.66370   0.59525   0.85444   0.00000  Uiso   1.00
loop_
_geom_bond_atom_site_label_1
_geom_bond_atom_site_label_2
_geom_bond_distance
_geom_bond_site_symmetry_2
_ccdc_geom_bond_type
C1     C25     1.456   .     S
C1     O39     1.293   .     A
C1     O42     1.291   .     A
C2     O41     1.293   .     A
C2     C26     1.457   .     S
C2     O40     1.291   .     A
C3     O49     1.380   .     S
C3     C7      1.413   .     A
C3     N37     1.373   .     A
C4     C8      1.417   .     A
C4     O57     1.386   .     S
C4     N38     1.365   .     A
C5     N37     1.373   .     A
C5     O65     1.380   .     S
C5     C9      1.413   .     A
C6     O73     1.386   .     S
C6     N38     1.365   .     A
C6     C10     1.416   .     A
C7     H33     1.081   .     S
C7     C13     1.405   .     A
C8     H34     1.080   .     S
C8     C14     1.407   .     A
C9     C13     1.405   .     A
C9     H35     1.081   .     S
C10    C14     1.407   .     A
C10    H36     1.080   .     S
C11    C15     1.359   .     S
C11    O43     1.275   .     A
C11    O46     1.275   .     A
C12    C16     1.359   .     S
C12    O45     1.275   .     A
C12    O44     1.275   .     A
C13    C238    1.515   1_545 S
C14    C237    1.515   .     S
C15    C912    1.161   1_554 S
C16    C463    1.161   .     S
C17    H29     1.083   .     S
C17    C27     1.390   .     A
C17    C21     1.385   .     A
C18    H30     1.081   .     S
C18    C28     1.390   .     A
C18    C22     1.402   .     A
C19    H31     1.083   .     S
C19    C23     1.386   .     A
C19    C28     1.390   .     A
C20    C24     1.401   .     A
C20    H32     1.081   .     S
C20    C27     1.392   .     A
C21    O81     1.389   .     S
C21    C25     1.412   .     A
C22    O89     1.398   .     S
C22    C26     1.421   .     A
C23    C26     1.413   .     A
C23    O97     1.391   .     S
C24    C25     1.419   .     A
C24    O105    1.397   .     S
C27    C140    1.445   1_455 S
C28    C139    1.445   .     S
N37    Zn48    2.010   .     S
N38    Zn47    2.010   .     S
O39    Zn47    2.010   .     S
O40    Zn48    2.010   .     S
O41    Zn47    2.011   .     S
O42    Zn48    2.011   .     S
O43    Zn47    1.941   .     S
O44    Zn48    1.941   .     S
O45    Zn47    1.941   .     S
O46    Zn48    1.941   .     S
O49    C50     1.413   .     S
C50    H52     1.113   .     S
C50    C53     1.522   .     S
C50    H51     1.114   .     S
C53    H55     1.111   .     S
C53    H56     1.110   .     S
C53    H950    1.111   1_554 S
H54    C501    1.111   .     S
O57    C58     1.417   .     S
C58    H60     1.116   .     S
C58    C61     1.522   .     S
C58    H59     1.110   .     S
C61    H64     1.111   .     S
C61    H62     1.110   .     S
C61    H511    1.111   .     S
H63    C957    1.111   1_554 S
O65    C66     1.413   .     S
C66    H68     1.113   .     S
C66    C69     1.522   .     S
C66    H67     1.114   .     S
C69    H71     1.111   .     S
C69    H72     1.110   .     S
C69    H518    1.111   .     S
H70    C965    1.111   1_554 S
O73    C74     1.417   .     S
C74    H76     1.116   .     S
C74    C77     1.522   .     S
C74    H75     1.110   .     S
C77    H78     1.110   .     S
C77    H80     1.111   .     S
C77    H975    1.111   1_554 S
H79    C525    1.111   .     S
O81    C82     1.420   .     S
C82    H83     1.117   .     S
C82    H84     1.112   .     S
C82    C85     1.518   .     S
C85    H88     1.110   .     S
C85    H87     1.111   .     S
C85    H86     1.110   .     S
O89    C90     1.414   .     S
C90    H92     1.112   .     S
C90    H91     1.115   .     S
C90    C93     1.521   .     S
C93    H94     1.111   .     S
C93    H96     1.110   .     S
C93    H95     1.107   .     S
O97    C98     1.420   .     S
C98    H99     1.117   .     S
C98    C101    1.518   .     S
C98    H100    1.112   .     S
C101   H102    1.110   .     S
C101   H103    1.111   .     S
C101   H104    1.110   .     S
O105   C106    1.414   .     S
C106   H107    1.115   .     S
C106   H108    1.111   .     S
C106   C109    1.521   .     S
C109   H111    1.111   .     S
C109   H112    1.107   .     S
C109   H110    1.111   .     S
C113   C137    1.456   .     S
C113   O151    1.293   .     A
C113   O154    1.291   .     A
C114   O153    1.293   .     A
C114   C138    1.457   .     S
C114   O152    1.291   .     A
C115   O161    1.380   .     S
C115   C119    1.413   .     A
C115   N149    1.373   .     A
C116   C120    1.417   .     A
C116   O169    1.386   .     S
C116   N150    1.365   .     A
C117   N149    1.373   .     A
C117   O177    1.380   .     S
C117   C121    1.413   .     A
C118   O185    1.386   .     S
C118   N150    1.365   .     A
C118   C122    1.416   .     A
C119   H145    1.081   .     S
C119   C125    1.405   .     A
C120   H146    1.080   .     S
C120   C126    1.407   .     A
C121   C125    1.405   .     A
C121   H147    1.081   .     S
C122   C126    1.407   .     A
C122   H148    1.080   .     S
C123   C127    1.359   .     S
C123   O155    1.275   .     A
C123   O158    1.275   .     A
C124   C128    1.359   .     S
C124   O157    1.275   .     A
C124   O156    1.275   .     A
C125   C350    1.515   1_545 S
C126   C349    1.515   .     S
C127   C1024   1.161   1_554 S
C128   C575    1.161   .     S
C129   H141    1.083   .     S
C129   C139    1.390   .     A
C129   C133    1.385   .     A
C130   H142    1.081   .     S
C130   C140    1.390   .     A
C130   C134    1.402   .     A
C131   H143    1.083   .     S
C131   C135    1.386   .     A
C131   C140    1.390   .     A
C132   C136    1.401   .     A
C132   H144    1.081   .     S
C132   C139    1.392   .     A
C133   O193    1.389   .     S
C133   C137    1.412   .     A
C134   O201    1.398   .     S
C134   C138    1.421   .     A
C135   C138    1.413   .     A
C135   O209    1.391   .     S
C136   C137    1.419   .     A
C136   O217    1.397   .     S
C140   C27     1.445   1_655 S
N149   Zn160   2.010   .     S
N150   Zn159   2.010   .     S
O151   Zn159   2.010   .     S
O152   Zn160   2.010   .     S
O153   Zn159   2.011   .     S
O154   Zn160   2.011   .     S
O155   Zn159   1.941   .     S
O156   Zn160   1.941   .     S
O157   Zn159   1.941   .     S
O158   Zn160   1.941   .     S
O161   C162    1.413   .     S
C162   H164    1.113   .     S
C162   C165    1.522   .     S
C162   H163    1.114   .     S
C165   H167    1.111   .     S
C165   H168    1.110   .     S
C165   H1062   1.111   1_554 S
H166   C613    1.111   .     S
O169   C170    1.417   .     S
C170   H172    1.116   .     S
C170   C173    1.522   .     S
C170   H171    1.110   .     S
C173   H176    1.111   .     S
C173   H174    1.110   .     S
C173   H623    1.111   .     S
H175   C1069   1.111   1_554 S
O177   C178    1.413   .     S
C178   H180    1.113   .     S
C178   C181    1.522   .     S
C178   H179    1.114   .     S
C181   H183    1.111   .     S
C181   H184    1.110   .     S
C181   H630    1.111   .     S
H182   C1077   1.111   1_554 S
O185   C186    1.417   .     S
C186   H188    1.116   .     S
C186   C189    1.522   .     S
C186   H187    1.110   .     S
C189   H190    1.110   .     S
C189   H192    1.111   .     S
C189   H1087   1.111   1_554 S
H191   C637    1.111   .     S
O193   C194    1.420   .     S
C194   H195    1.117   .     S
C194   H196    1.112   .     S
C194   C197    1.518   .     S
C197   H200    1.110   .     S
C197   H199    1.111   .     S
C197   H198    1.110   .     S
O201   C202    1.414   .     S
C202   H204    1.112   .     S
C202   H203    1.115   .     S
C202   C205    1.521   .     S
C205   H206    1.111   .     S
C205   H208    1.110   .     S
C205   H207    1.107   .     S
O209   C210    1.420   .     S
C210   H211    1.117   .     S
C210   C213    1.518   .     S
C210   H212    1.112   .     S
C213   H214    1.110   .     S
C213   H215    1.111   .     S
C213   H216    1.110   .     S
O217   C218    1.414   .     S
C218   H219    1.115   .     S
C218   H220    1.111   .     S
C218   C221    1.521   .     S
C221   H223    1.111   .     S
C221   H224    1.107   .     S
C221   H222    1.111   .     S
C225   C249    1.456   .     S
C225   O263    1.293   .     A
C225   O266    1.291   .     A
C226   O265    1.293   .     A
C226   C250    1.457   .     S
C226   O264    1.291   .     A
C227   O273    1.380   .     S
C227   C231    1.413   .     A
C227   N261    1.373   .     A
C228   C232    1.417   .     A
C228   O281    1.386   .     S
C228   N262    1.365   .     A
C229   N261    1.373   .     A
C229   O289    1.380   .     S
C229   C233    1.413   .     A
C230   O297    1.386   .     S
C230   N262    1.365   .     A
C230   C234    1.416   .     A
C231   H257    1.081   .     S
C231   C237    1.405   .     A
C232   H258    1.080   .     S
C232   C238    1.407   .     A
C233   C237    1.405   .     A
C233   H259    1.081   .     S
C234   C238    1.407   .     A
C234   H260    1.080   .     S
C235   C239    1.359   .     S
C235   O267    1.275   .     A
C235   O270    1.275   .     A
C236   C240    1.359   .     S
C236   O269    1.275   .     A
C236   O268    1.275   .     A
C238   C13     1.515   1_565 S
C239   C1136   1.161   1_554 S
C240   C687    1.161   .     S
C241   H253    1.083   .     S
C241   C251    1.390   .     A
C241   C245    1.385   .     A
C242   H254    1.081   .     S
C242   C252    1.390   .     A
C242   C246    1.402   .     A
C243   H255    1.083   .     S
C243   C247    1.386   .     A
C243   C252    1.390   .     A
C244   C248    1.401   .     A
C244   H256    1.081   .     S
C244   C251    1.392   .     A
C245   O305    1.389   .     S
C245   C249    1.412   .     A
C246   O313    1.398   .     S
C246   C250    1.421   .     A
C247   C250    1.413   .     A
C247   O321    1.391   .     S
C248   C249    1.419   .     A
C248   O329    1.397   .     S
C251   C364    1.445   1_455 S
C252   C363    1.445   .     S
N261   Zn272   2.010   .     S
N262   Zn271   2.010   .     S
O263   Zn271   2.010   .     S
O264   Zn272   2.010   .     S
O265   Zn271   2.011   .     S
O266   Zn272   2.011   .     S
O267   Zn271   1.941   .     S
O268   Zn272   1.941   .     S
O269   Zn271   1.941   .     S
O270   Zn272   1.941   .     S
O273   C274    1.413   .     S
C274   H276    1.113   .     S
C274   C277    1.522   .     S
C274   H275    1.114   .     S
C277   H279    1.111   .     S
C277   H280    1.110   .     S
C277   H1174   1.111   1_554 S
H278   C725    1.111   .     S
O281   C282    1.417   .     S
C282   H284    1.116   .     S
C282   C285    1.522   .     S
C282   H283    1.110   .     S
C285   H288    1.111   .     S
C285   H286    1.110   .     S
C285   H735    1.111   .     S
H287   C1181   1.111   1_554 S
O289   C290    1.413   .     S
C290   H292    1.113   .     S
C290   C293    1.522   .     S
C290   H291    1.114   .     S
C293   H295    1.111   .     S
C293   H296    1.110   .     S
C293   H742    1.111   .     S
H294   C1189   1.111   1_554 S
O297   C298    1.417   .     S
C298   H300    1.116   .     S
C298   C301    1.522   .     S
C298   H299    1.110   .     S
C301   H302    1.110   .     S
C301   H304    1.111   .     S
C301   H1199   1.111   1_554 S
H303   C749    1.111   .     S
O305   C306    1.420   .     S
C306   H307    1.117   .     S
C306   H308    1.112   .     S
C306   C309    1.518   .     S
C309   H312    1.110   .     S
C309   H311    1.111   .     S
C309   H310    1.110   .     S
O313   C314    1.414   .     S
C314   H316    1.112   .     S
C314   H315    1.115   .     S
C314   C317    1.521   .     S
C317   H318    1.111   .     S
C317   H320    1.110   .     S
C317   H319    1.107   .     S
O321   C322    1.420   .     S
C322   H323    1.117   .     S
C322   C325    1.518   .     S
C322   H324    1.112   .     S
C325   H326    1.110   .     S
C325   H327    1.111   .     S
C325   H328    1.110   .     S
O329   C330    1.414   .     S
C330   H331    1.115   .     S
C330   H332    1.111   .     S
C330   C333    1.521   .     S
C333   H335    1.111   .     S
C333   H336    1.107   .     S
C333   H334    1.111   .     S
C337   C361    1.456   .     S
C337   O375    1.293   .     A
C337   O378    1.291   .     A
C338   O377    1.293   .     A
C338   C362    1.457   .     S
C338   O376    1.291   .     A
C339   O385    1.380   .     S
C339   C343    1.413   .     A
C339   N373    1.373   .     A
C340   C344    1.417   .     A
C340   O393    1.386   .     S
C340   N374    1.365   .     A
C341   N373    1.373   .     A
C341   O401    1.380   .     S
C341   C345    1.413   .     A
C342   O409    1.386   .     S
C342   N374    1.365   .     A
C342   C346    1.416   .     A
C343   H369    1.081   .     S
C343   C349    1.405   .     A
C344   H370    1.080   .     S
C344   C350    1.407   .     A
C345   C349    1.405   .     A
C345   H371    1.081   .     S
C346   C350    1.407   .     A
C346   H372    1.080   .     S
C347   C351    1.359   .     S
C347   O379    1.275   .     A
C347   O382    1.275   .     A
C348   C352    1.359   .     S
C348   O381    1.275   .     A
C348   O380    1.275   .     A
C350   C125    1.515   1_565 S
C351   C1248   1.161   1_554 S
C352   C799    1.161   .     S
C353   H365    1.083   .     S
C353   C363    1.390   .     A
C353   C357    1.385   .     A
C354   H366    1.081   .     S
C354   C364    1.390   .     A
C354   C358    1.402   .     A
C355   H367    1.083   .     S
C355   C359    1.386   .     A
C355   C364    1.390   .     A
C356   C360    1.401   .     A
C356   H368    1.081   .     S
C356   C363    1.392   .     A
C357   O417    1.389   .     S
C357   C361    1.412   .     A
C358   O425    1.398   .     S
C358   C362    1.421   .     A
C359   C362    1.413   .     A
C359   O433    1.391   .     S
C360   C361    1.419   .     A
C360   O441    1.397   .     S
C364   C251    1.445   1_655 S
N373   Zn384   2.010   .     S
N374   Zn383   2.010   .     S
O375   Zn383   2.010   .     S
O376   Zn384   2.010   .     S
O377   Zn383   2.011   .     S
O378   Zn384   2.011   .     S
O379   Zn383   1.941   .     S
O380   Zn384   1.941   .     S
O381   Zn383   1.941   .     S
O382   Zn384   1.941   .     S
O385   C386    1.413   .     S
C386   H388    1.113   .     S
C386   C389    1.522   .     S
C386   H387    1.114   .     S
C389   H391    1.111   .     S
C389   H392    1.110   .     S
C389   H1286   1.111   1_554 S
H390   C837    1.111   .     S
O393   C394    1.417   .     S
C394   H396    1.116   .     S
C394   C397    1.522   .     S
C394   H395    1.110   .     S
C397   H400    1.111   .     S
C397   H398    1.110   .     S
C397   H847    1.111   .     S
H399   C1293   1.111   1_554 S
O401   C402    1.413   .     S
C402   H404    1.113   .     S
C402   C405    1.522   .     S
C402   H403    1.114   .     S
C405   H407    1.111   .     S
C405   H408    1.110   .     S
C405   H854    1.111   .     S
H406   C1301   1.111   1_554 S
O409   C410    1.417   .     S
C410   H412    1.116   .     S
C410   C413    1.522   .     S
C410   H411    1.110   .     S
C413   H414    1.110   .     S
C413   H416    1.111   .     S
C413   H1311   1.111   1_554 S
H415   C861    1.111   .     S
O417   C418    1.420   .     S
C418   H419    1.117   .     S
C418   H420    1.112   .     S
C418   C421    1.518   .     S
C421   H424    1.110   .     S
C421   H423    1.111   .     S
C421   H422    1.110   .     S
O425   C426    1.414   .     S
C426   H428    1.112   .     S
C426   H427    1.115   .     S
C426   C429    1.521   .     S
C429   H430    1.111   .     S
C429   H432    1.110   .     S
C429   H431    1.107   .     S
O433   C434    1.420   .     S
C434   H435    1.117   .     S
C434   C437    1.518   .     S
C434   H436    1.112   .     S
C437   H438    1.110   .     S
C437   H439    1.111   .     S
C437   H440    1.110   .     S
O441   C442    1.414   .     S
C442   H443    1.115   .     S
C442   H444    1.111   .     S
C442   C445    1.521   .     S
C445   H447    1.111   .     S
C445   H448    1.107   .     S
C445   H446    1.111   .     S
C449   C473    1.456   .     S
C449   O487    1.293   .     A
C449   O490    1.291   .     A
C450   O489    1.293   .     A
C450   C474    1.457   .     S
C450   O488    1.291   .     A
C451   O497    1.380   .     S
C451   C455    1.413   .     A
C451   N485    1.373   .     A
C452   C456    1.417   .     A
C452   O505    1.386   .     S
C452   N486    1.365   .     A
C453   N485    1.373   .     A
C453   O513    1.380   .     S
C453   C457    1.413   .     A
C454   O521    1.386   .     S
C454   N486    1.365   .     A
C454   C458    1.416   .     A
C455   H481    1.081   .     S
C455   C461    1.405   .     A
C456   H482    1.080   .     S
C456   C462    1.407   .     A
C457   C461    1.405   .     A
C457   H483    1.081   .     S
C458   C462    1.407   .     A
C458   H484    1.080   .     S
C459   C463    1.359   .     S
C459   O491    1.275   .     A
C459   O494    1.275   .     A
C460   C464    1.359   .     S
C460   O493    1.275   .     A
C460   O492    1.275   .     A
C461   C686    1.515   1_545 S
C462   C685    1.515   .     S
C464   C911    1.161   .     S
C465   H477    1.083   .     S
C465   C475    1.390   .     A
C465   C469    1.385   .     A
C466   H478    1.081   .     S
C466   C476    1.390   .     A
C466   C470    1.402   .     A
C467   H479    1.083   .     S
C467   C471    1.386   .     A
C467   C476    1.390   .     A
C468   C472    1.401   .     A
C468   H480    1.081   .     S
C468   C475    1.392   .     A
C469   O529    1.389   .     S
C469   C473    1.412   .     A
C470   O537    1.398   .     S
C470   C474    1.421   .     A
C471   C474    1.413   .     A
C471   O545    1.391   .     S
C472   C473    1.419   .     A
C472   O553    1.397   .     S
C475   C588    1.445   1_455 S
C476   C587    1.445   .     S
N485   Zn496   2.010   .     S
N486   Zn495   2.010   .     S
O487   Zn495   2.010   .     S
O488   Zn496   2.010   .     S
O489   Zn495   2.011   .     S
O490   Zn496   2.011   .     S
O491   Zn495   1.941   .     S
O492   Zn496   1.941   .     S
O493   Zn495   1.941   .     S
O494   Zn496   1.941   .     S
O497   C498    1.413   .     S
C498   H500    1.113   .     S
C498   C501    1.522   .     S
C498   H499    1.114   .     S
C501   H503    1.111   .     S
C501   H504    1.110   .     S
H502   C949    1.111   .     S
O505   C506    1.417   .     S
C506   H508    1.116   .     S
C506   C509    1.522   .     S
C506   H507    1.110   .     S
C509   H512    1.111   .     S
C509   H510    1.110   .     S
C509   H959    1.111   .     S
O513   C514    1.413   .     S
C514   H516    1.113   .     S
C514   C517    1.522   .     S
C514   H515    1.114   .     S
C517   H519    1.111   .     S
C517   H520    1.110   .     S
C517   H966    1.111   .     S
O521   C522    1.417   .     S
C522   H524    1.116   .     S
C522   C525    1.522   .     S
C522   H523    1.110   .     S
C525   H526    1.110   .     S
C525   H528    1.111   .     S
H527   C973    1.111   .     S
O529   C530    1.420   .     S
C530   H531    1.117   .     S
C530   H532    1.112   .     S
C530   C533    1.518   .     S
C533   H536    1.110   .     S
C533   H535    1.111   .     S
C533   H534    1.110   .     S
O537   C538    1.414   .     S
C538   H540    1.112   .     S
C538   H539    1.115   .     S
C538   C541    1.521   .     S
C541   H542    1.111   .     S
C541   H544    1.110   .     S
C541   H543    1.107   .     S
O545   C546    1.420   .     S
C546   H547    1.117   .     S
C546   C549    1.518   .     S
C546   H548    1.112   .     S
C549   H550    1.110   .     S
C549   H551    1.111   .     S
C549   H552    1.110   .     S
O553   C554    1.414   .     S
C554   H555    1.115   .     S
C554   H556    1.111   .     S
C554   C557    1.521   .     S
C557   H559    1.111   .     S
C557   H560    1.107   .     S
C557   H558    1.111   .     S
C561   C585    1.456   .     S
C561   O599    1.293   .     A
C561   O602    1.291   .     A
C562   O601    1.293   .     A
C562   C586    1.457   .     S
C562   O600    1.291   .     A
C563   O609    1.380   .     S
C563   C567    1.413   .     A
C563   N597    1.373   .     A
C564   C568    1.417   .     A
C564   O617    1.386   .     S
C564   N598    1.365   .     A
C565   N597    1.373   .     A
C565   O625    1.380   .     S
C565   C569    1.413   .     A
C566   O633    1.386   .     S
C566   N598    1.365   .     A
C566   C570    1.416   .     A
C567   H593    1.081   .     S
C567   C573    1.405   .     A
C568   H594    1.080   .     S
C568   C574    1.407   .     A
C569   C573    1.405   .     A
C569   H595    1.081   .     S
C570   C574    1.407   .     A
C570   H596    1.080   .     S
C571   C575    1.359   .     S
C571   O603    1.275   .     A
C571   O606    1.275   .     A
C572   C576    1.359   .     S
C572   O605    1.275   .     A
C572   O604    1.275   .     A
C573   C798    1.515   1_545 S
C574   C797    1.515   .     S
C576   C1023   1.161   .     S
C577   H589    1.083   .     S
C577   C587    1.390   .     A
C577   C581    1.385   .     A
C578   H590    1.081   .     S
C578   C588    1.390   .     A
C578   C582    1.402   .     A
C579   H591    1.083   .     S
C579   C583    1.386   .     A
C579   C588    1.390   .     A
C580   C584    1.401   .     A
C580   H592    1.081   .     S
C580   C587    1.392   .     A
C581   O641    1.389   .     S
C581   C585    1.412   .     A
C582   O649    1.398   .     S
C582   C586    1.421   .     A
C583   C586    1.413   .     A
C583   O657    1.391   .     S
C584   C585    1.419   .     A
C584   O665    1.397   .     S
C588   C475    1.445   1_655 S
N597   Zn608   2.010   .     S
N598   Zn607   2.010   .     S
O599   Zn607   2.010   .     S
O600   Zn608   2.010   .     S
O601   Zn607   2.011   .     S
O602   Zn608   2.011   .     S
O603   Zn607   1.941   .     S
O604   Zn608   1.941   .     S
O605   Zn607   1.941   .     S
O606   Zn608   1.941   .     S
O609   C610    1.413   .     S
C610   H612    1.113   .     S
C610   C613    1.522   .     S
C610   H611    1.114   .     S
C613   H615    1.111   .     S
C613   H616    1.110   .     S
H614   C1061   1.111   .     S
O617   C618    1.417   .     S
C618   H620    1.116   .     S
C618   C621    1.522   .     S
C618   H619    1.110   .     S
C621   H624    1.111   .     S
C621   H622    1.110   .     S
C621   H1071   1.111   .     S
O625   C626    1.413   .     S
C626   H628    1.113   .     S
C626   C629    1.522   .     S
C626   H627    1.114   .     S
C629   H631    1.111   .     S
C629   H632    1.110   .     S
C629   H1078   1.111   .     S
O633   C634    1.417   .     S
C634   H636    1.116   .     S
C634   C637    1.522   .     S
C634   H635    1.110   .     S
C637   H638    1.110   .     S
C637   H640    1.111   .     S
H639   C1085   1.111   .     S
O641   C642    1.420   .     S
C642   H643    1.117   .     S
C642   H644    1.112   .     S
C642   C645    1.518   .     S
C645   H648    1.110   .     S
C645   H647    1.111   .     S
C645   H646    1.110   .     S
O649   C650    1.414   .     S
C650   H652    1.112   .     S
C650   H651    1.115   .     S
C650   C653    1.521   .     S
C653   H654    1.111   .     S
C653   H656    1.110   .     S
C653   H655    1.107   .     S
O657   C658    1.420   .     S
C658   H659    1.117   .     S
C658   C661    1.518   .     S
C658   H660    1.112   .     S
C661   H662    1.110   .     S
C661   H663    1.111   .     S
C661   H664    1.110   .     S
O665   C666    1.414   .     S
C666   H667    1.115   .     S
C666   H668    1.111   .     S
C666   C669    1.521   .     S
C669   H671    1.111   .     S
C669   H672    1.107   .     S
C669   H670    1.111   .     S
C673   C697    1.456   .     S
C673   O711    1.293   .     A
C673   O714    1.291   .     A
C674   O713    1.293   .     A
C674   C698    1.457   .     S
C674   O712    1.291   .     A
C675   O721    1.380   .     S
C675   C679    1.413   .     A
C675   N709    1.373   .     A
C676   C680    1.417   .     A
C676   O729    1.386   .     S
C676   N710    1.365   .     A
C677   N709    1.373   .     A
C677   O737    1.380   .     S
C677   C681    1.413   .     A
C678   O745    1.386   .     S
C678   N710    1.365   .     A
C678   C682    1.416   .     A
C679   H705    1.081   .     S
C679   C685    1.405   .     A
C680   H706    1.080   .     S
C680   C686    1.407   .     A
C681   C685    1.405   .     A
C681   H707    1.081   .     S
C682   C686    1.407   .     A
C682   H708    1.080   .     S
C683   C687    1.359   .     S
C683   O715    1.275   .     A
C683   O718    1.275   .     A
C684   C688    1.359   .     S
C684   O717    1.275   .     A
C684   O716    1.275   .     A
C686   C461    1.515   1_565 S
C688   C1135   1.161   .     S
C689   H701    1.083   .     S
C689   C699    1.390   .     A
C689   C693    1.385   .     A
C690   H702    1.081   .     S
C690   C700    1.390   .     A
C690   C694    1.402   .     A
C691   H703    1.083   .     S
C691   C695    1.386   .     A
C691   C700    1.390   .     A
C692   C696    1.401   .     A
C692   H704    1.081   .     S
C692   C699    1.392   .     A
C693   O753    1.389   .     S
C693   C697    1.412   .     A
C694   O761    1.398   .     S
C694   C698    1.421   .     A
C695   C698    1.413   .     A
C695   O769    1.391   .     S
C696   C697    1.419   .     A
C696   O777    1.397   .     S
C699   C812    1.445   1_455 S
C700   C811    1.445   .     S
N709   Zn720   2.010   .     S
N710   Zn719   2.010   .     S
O711   Zn719   2.010   .     S
O712   Zn720   2.010   .     S
O713   Zn719   2.011   .     S
O714   Zn720   2.011   .     S
O715   Zn719   1.941   .     S
O716   Zn720   1.941   .     S
O717   Zn719   1.941   .     S
O718   Zn720   1.941   .     S
O721   C722    1.413   .     S
C722   H724    1.113   .     S
C722   C725    1.522   .     S
C722   H723    1.114   .     S
C725   H727    1.111   .     S
C725   H728    1.110   .     S
H726   C1173   1.111   .     S
O729   C730    1.417   .     S
C730   H732    1.116   .     S
C730   C733    1.522   .     S
C730   H731    1.110   .     S
C733   H736    1.111   .     S
C733   H734    1.110   .     S
C733   H1183   1.111   .     S
O737   C738    1.413   .     S
C738   H740    1.113   .     S
C738   C741    1.522   .     S
C738   H739    1.114   .     S
C741   H743    1.111   .     S
C741   H744    1.110   .     S
C741   H1190   1.111   .     S
O745   C746    1.417   .     S
C746   H748    1.116   .     S
C746   C749    1.522   .     S
C746   H747    1.110   .     S
C749   H750    1.110   .     S
C749   H752    1.111   .     S
H751   C1197   1.111   .     S
O753   C754    1.420   .     S
C754   H755    1.117   .     S
C754   H756    1.112   .     S
C754   C757    1.518   .     S
C757   H760    1.110   .     S
C757   H759    1.111   .     S
C757   H758    1.110   .     S
O761   C762    1.414   .     S
C762   H764    1.112   .     S
C762   H763    1.115   .     S
C762   C765    1.521   .     S
C765   H766    1.111   .     S
C765   H768    1.110   .     S
C765   H767    1.107   .     S
O769   C770    1.420   .     S
C770   H771    1.117   .     S
C770   C773    1.518   .     S
C770   H772    1.112   .     S
C773   H774    1.110   .     S
C773   H775    1.111   .     S
C773   H776    1.110   .     S
O777   C778    1.414   .     S
C778   H779    1.115   .     S
C778   H780    1.111   .     S
C778   C781    1.521   .     S
C781   H783    1.111   .     S
C781   H784    1.107   .     S
C781   H782    1.111   .     S
C785   C809    1.456   .     S
C785   O823    1.293   .     A
C785   O826    1.291   .     A
C786   O825    1.293   .     A
C786   C810    1.457   .     S
C786   O824    1.291   .     A
C787   O833    1.380   .     S
C787   C791    1.413   .     A
C787   N821    1.373   .     A
C788   C792    1.417   .     A
C788   O841    1.386   .     S
C788   N822    1.365   .     A
C789   N821    1.373   .     A
C789   O849    1.380   .     S
C789   C793    1.413   .     A
C790   O857    1.386   .     S
C790   N822    1.365   .     A
C790   C794    1.416   .     A
C791   H817    1.081   .     S
C791   C797    1.405   .     A
C792   H818    1.080   .     S
C792   C798    1.407   .     A
C793   C797    1.405   .     A
C793   H819    1.081   .     S
C794   C798    1.407   .     A
C794   H820    1.080   .     S
C795   C799    1.359   .     S
C795   O827    1.275   .     A
C795   O830    1.275   .     A
C796   C800    1.359   .     S
C796   O829    1.275   .     A
C796   O828    1.275   .     A
C798   C573    1.515   1_565 S
C800   C1247   1.161   .     S
C801   H813    1.083   .     S
C801   C811    1.390   .     A
C801   C805    1.385   .     A
C802   H814    1.081   .     S
C802   C812    1.390   .     A
C802   C806    1.402   .     A
C803   H815    1.083   .     S
C803   C807    1.386   .     A
C803   C812    1.390   .     A
C804   C808    1.401   .     A
C804   H816    1.081   .     S
C804   C811    1.392   .     A
C805   O865    1.389   .     S
C805   C809    1.412   .     A
C806   O873    1.398   .     S
C806   C810    1.421   .     A
C807   C810    1.413   .     A
C807   O881    1.391   .     S
C808   C809    1.419   .     A
C808   O889    1.397   .     S
C812   C699    1.445   1_655 S
N821   Zn832   2.010   .     S
N822   Zn831   2.010   .     S
O823   Zn831   2.010   .     S
O824   Zn832   2.010   .     S
O825   Zn831   2.011   .     S
O826   Zn832   2.011   .     S
O827   Zn831   1.941   .     S
O828   Zn832   1.941   .     S
O829   Zn831   1.941   .     S
O830   Zn832   1.941   .     S
O833   C834    1.413   .     S
C834   H836    1.113   .     S
C834   C837    1.522   .     S
C834   H835    1.114   .     S
C837   H839    1.111   .     S
C837   H840    1.110   .     S
H838   C1285   1.111   .     S
O841   C842    1.417   .     S
C842   H844    1.116   .     S
C842   C845    1.522   .     S
C842   H843    1.110   .     S
C845   H848    1.111   .     S
C845   H846    1.110   .     S
C845   H1295   1.111   .     S
O849   C850    1.413   .     S
C850   H852    1.113   .     S
C850   C853    1.522   .     S
C850   H851    1.114   .     S
C853   H855    1.111   .     S
C853   H856    1.110   .     S
C853   H1302   1.111   .     S
O857   C858    1.417   .     S
C858   H860    1.116   .     S
C858   C861    1.522   .     S
C858   H859    1.110   .     S
C861   H862    1.110   .     S
C861   H864    1.111   .     S
H863   C1309   1.111   .     S
O865   C866    1.420   .     S
C866   H867    1.117   .     S
C866   H868    1.112   .     S
C866   C869    1.518   .     S
C869   H872    1.110   .     S
C869   H871    1.111   .     S
C869   H870    1.110   .     S
O873   C874    1.414   .     S
C874   H876    1.112   .     S
C874   H875    1.115   .     S
C874   C877    1.521   .     S
C877   H878    1.111   .     S
C877   H880    1.110   .     S
C877   H879    1.107   .     S
O881   C882    1.420   .     S
C882   H883    1.117   .     S
C882   C885    1.518   .     S
C882   H884    1.112   .     S
C885   H886    1.110   .     S
C885   H887    1.111   .     S
C885   H888    1.110   .     S
O889   C890    1.414   .     S
C890   H891    1.115   .     S
C890   H892    1.111   .     S
C890   C893    1.521   .     S
C893   H895    1.111   .     S
C893   H896    1.107   .     S
C893   H894    1.111   .     S
C897   C921    1.456   .     S
C897   O935    1.293   .     A
C897   O938    1.291   .     A
C898   O937    1.293   .     A
C898   C922    1.457   .     S
C898   O936    1.291   .     A
C899   O945    1.380   .     S
C899   C903    1.413   .     A
C899   N933    1.373   .     A
C900   C904    1.417   .     A
C900   O953    1.386   .     S
C900   N934    1.365   .     A
C901   N933    1.373   .     A
C901   O961    1.380   .     S
C901   C905    1.413   .     A
C902   O969    1.386   .     S
C902   N934    1.365   .     A
C902   C906    1.416   .     A
C903   H929    1.081   .     S
C903   C909    1.405   .     A
C904   H930    1.080   .     S
C904   C910    1.407   .     A
C905   C909    1.405   .     A
C905   H931    1.081   .     S
C906   C910    1.407   .     A
C906   H932    1.080   .     S
C907   C911    1.359   .     S
C907   O939    1.275   .     A
C907   O942    1.275   .     A
C908   C912    1.359   .     S
C908   O941    1.275   .     A
C908   O940    1.275   .     A
C909   C1134   1.515   1_545 S
C910   C1133   1.515   .     S
C912   C15     1.161   1_556 S
C913   H925    1.083   .     S
C913   C923    1.390   .     A
C913   C917    1.385   .     A
C914   H926    1.081   .     S
C914   C924    1.390   .     A
C914   C918    1.402   .     A
C915   H927    1.083   .     S
C915   C919    1.386   .     A
C915   C924    1.390   .     A
C916   C920    1.401   .     A
C916   H928    1.081   .     S
C916   C923    1.392   .     A
C917   O977    1.389   .     S
C917   C921    1.412   .     A
C918   O985    1.398   .     S
C918   C922    1.421   .     A
C919   C922    1.413   .     A
C919   O993    1.391   .     S
C920   C921    1.419   .     A
C920   O1001   1.397   .     S
C923   C1036   1.445   1_455 S
C924   C1035   1.445   .     S
N933   Zn944   2.010   .     S
N934   Zn943   2.010   .     S
O935   Zn943   2.010   .     S
O936   Zn944   2.010   .     S
O937   Zn943   2.011   .     S
O938   Zn944   2.011   .     S
O939   Zn943   1.941   .     S
O940   Zn944   1.941   .     S
O941   Zn943   1.941   .     S
O942   Zn944   1.941   .     S
O945   C946    1.413   .     S
C946   H948    1.113   .     S
C946   C949    1.522   .     S
C946   H947    1.114   .     S
C949   H951    1.111   .     S
C949   H952    1.110   .     S
H950   C53     1.111   1_556 S
O953   C954    1.417   .     S
C954   H956    1.116   .     S
C954   C957    1.522   .     S
C954   H955    1.110   .     S
C957   H960    1.111   .     S
C957   H958    1.110   .     S
C957   H63     1.111   1_556 S
O961   C962    1.413   .     S
C962   H964    1.113   .     S
C962   C965    1.522   .     S
C962   H963    1.114   .     S
C965   H967    1.111   .     S
C965   H968    1.110   .     S
C965   H70     1.111   1_556 S
O969   C970    1.417   .     S
C970   H972    1.116   .     S
C970   C973    1.522   .     S
C970   H971    1.110   .     S
C973   H974    1.110   .     S
C973   H976    1.111   .     S
H975   C77     1.111   1_556 S
O977   C978    1.420   .     S
C978   H979    1.117   .     S
C978   H980    1.112   .     S
C978   C981    1.518   .     S
C981   H984    1.110   .     S
C981   H983    1.111   .     S
C981   H982    1.110   .     S
O985   C986    1.414   .     S
C986   H988    1.112   .     S
C986   H987    1.115   .     S
C986   C989    1.521   .     S
C989   H990    1.111   .     S
C989   H992    1.110   .     S
C989   H991    1.107   .     S
O993   C994    1.420   .     S
C994   H995    1.117   .     S
C994   C997    1.518   .     S
C994   H996    1.112   .     S
C997   H998    1.110   .     S
C997   H999    1.111   .     S
C997   H1000   1.110   .     S
O1001  C1002   1.414   .     S
C1002  H1003   1.115   .     S
C1002  H1004   1.111   .     S
C1002  C1005   1.521   .     S
C1005  H1007   1.111   .     S
C1005  H1008   1.107   .     S
C1005  H1006   1.111   .     S
C1009  C1033   1.456   .     S
C1009  O1047   1.293   .     A
C1009  O1050   1.291   .     A
C1010  O1049   1.293   .     A
C1010  C1034   1.457   .     S
C1010  O1048   1.291   .     A
C1011  O1057   1.380   .     S
C1011  C1015   1.413   .     A
C1011  N1045   1.373   .     A
C1012  C1016   1.417   .     A
C1012  O1065   1.386   .     S
C1012  N1046   1.365   .     A
C1013  N1045   1.373   .     A
C1013  O1073   1.380   .     S
C1013  C1017   1.413   .     A
C1014  O1081   1.386   .     S
C1014  N1046   1.365   .     A
C1014  C1018   1.416   .     A
C1015  H1041   1.081   .     S
C1015  C1021   1.405   .     A
C1016  H1042   1.080   .     S
C1016  C1022   1.407   .     A
C1017  C1021   1.405   .     A
C1017  H1043   1.081   .     S
C1018  C1022   1.407   .     A
C1018  H1044   1.080   .     S
C1019  C1023   1.359   .     S
C1019  O1051   1.275   .     A
C1019  O1054   1.275   .     A
C1020  C1024   1.359   .     S
C1020  O1053   1.275   .     A
C1020  O1052   1.275   .     A
C1021  C1246   1.515   1_545 S
C1022  C1245   1.515   .     S
C1024  C127    1.161   1_556 S
C1025  H1037   1.083   .     S
C1025  C1035   1.390   .     A
C1025  C1029   1.385   .     A
C1026  H1038   1.081   .     S
C1026  C1036   1.390   .     A
C1026  C1030   1.402   .     A
C1027  H1039   1.083   .     S
C1027  C1031   1.386   .     A
C1027  C1036   1.390   .     A
C1028  C1032   1.401   .     A
C1028  H1040   1.081   .     S
C1028  C1035   1.392   .     A
C1029  O1089   1.389   .     S
C1029  C1033   1.412   .     A
C1030  O1097   1.398   .     S
C1030  C1034   1.421   .     A
C1031  C1034   1.413   .     A
C1031  O1105   1.391   .     S
C1032  C1033   1.419   .     A
C1032  O1113   1.397   .     S
C1036  C923    1.445   1_655 S
N1045  Zn1056  2.010   .     S
N1046  Zn1055  2.010   .     S
O1047  Zn1055  2.010   .     S
O1048  Zn1056  2.010   .     S
O1049  Zn1055  2.011   .     S
O1050  Zn1056  2.011   .     S
O1051  Zn1055  1.941   .     S
O1052  Zn1056  1.941   .     S
O1053  Zn1055  1.941   .     S
O1054  Zn1056  1.941   .     S
O1057  C1058   1.413   .     S
C1058  H1060   1.113   .     S
C1058  C1061   1.522   .     S
C1058  H1059   1.114   .     S
C1061  H1063   1.111   .     S
C1061  H1064   1.110   .     S
H1062  C165    1.111   1_556 S
O1065  C1066   1.417   .     S
C1066  H1068   1.116   .     S
C1066  C1069   1.522   .     S
C1066  H1067   1.110   .     S
C1069  H1072   1.111   .     S
C1069  H1070   1.110   .     S
C1069  H175    1.111   1_556 S
O1073  C1074   1.413   .     S
C1074  H1076   1.113   .     S
C1074  C1077   1.522   .     S
C1074  H1075   1.114   .     S
C1077  H1079   1.111   .     S
C1077  H1080   1.110   .     S
C1077  H182    1.111   1_556 S
O1081  C1082   1.417   .     S
C1082  H1084   1.116   .     S
C1082  C1085   1.522   .     S
C1082  H1083   1.110   .     S
C1085  H1086   1.110   .     S
C1085  H1088   1.111   .     S
H1087  C189    1.111   1_556 S
O1089  C1090   1.420   .     S
C1090  H1091   1.117   .     S
C1090  H1092   1.112   .     S
C1090  C1093   1.518   .     S
C1093  H1096   1.110   .     S
C1093  H1095   1.111   .     S
C1093  H1094   1.110   .     S
O1097  C1098   1.414   .     S
C1098  H1100   1.112   .     S
C1098  H1099   1.115   .     S
C1098  C1101   1.521   .     S
C1101  H1102   1.111   .     S
C1101  H1104   1.110   .     S
C1101  H1103   1.107   .     S
O1105  C1106   1.420   .     S
C1106  H1107   1.117   .     S
C1106  C1109   1.518   .     S
C1106  H1108   1.112   .     S
C1109  H1110   1.110   .     S
C1109  H1111   1.111   .     S
C1109  H1112   1.110   .     S
O1113  C1114   1.414   .     S
C1114  H1115   1.115   .     S
C1114  H1116   1.111   .     S
C1114  C1117   1.521   .     S
C1117  H1119   1.111   .     S
C1117  H1120   1.107   .     S
C1117  H1118   1.111   .     S
C1121  C1145   1.456   .     S
C1121  O1159   1.293   .     A
C1121  O1162   1.291   .     A
C1122  O1161   1.293   .     A
C1122  C1146   1.457   .     S
C1122  O1160   1.291   .     A
C1123  O1169   1.380   .     S
C1123  C1127   1.413   .     A
C1123  N1157   1.373   .     A
C1124  C1128   1.417   .     A
C1124  O1177   1.386   .     S
C1124  N1158   1.365   .     A
C1125  N1157   1.373   .     A
C1125  O1185   1.380   .     S
C1125  C1129   1.413   .     A
C1126  O1193   1.386   .     S
C1126  N1158   1.365   .     A
C1126  C1130   1.416   .     A
C1127  H1153   1.081   .     S
C1127  C1133   1.405   .     A
C1128  H1154   1.080   .     S
C1128  C1134   1.407   .     A
C1129  C1133   1.405   .     A
C1129  H1155   1.081   .     S
C1130  C1134   1.407   .     A
C1130  H1156   1.080   .     S
C1131  C1135   1.359   .     S
C1131  O1163   1.275   .     A
C1131  O1166   1.275   .     A
C1132  C1136   1.359   .     S
C1132  O1165   1.275   .     A
C1132  O1164   1.275   .     A
C1134  C909    1.515   1_565 S
C1136  C239    1.161   1_556 S
C1137  H1149   1.083   .     S
C1137  C1147   1.390   .     A
C1137  C1141   1.385   .     A
C1138  H1150   1.081   .     S
C1138  C1148   1.390   .     A
C1138  C1142   1.402   .     A
C1139  H1151   1.083   .     S
C1139  C1143   1.386   .     A
C1139  C1148   1.390   .     A
C1140  C1144   1.401   .     A
C1140  H1152   1.081   .     S
C1140  C1147   1.392   .     A
C1141  O1201   1.389   .     S
C1141  C1145   1.412   .     A
C1142  O1209   1.398   .     S
C1142  C1146   1.421   .     A
C1143  C1146   1.413   .     A
C1143  O1217   1.391   .     S
C1144  C1145   1.419   .     A
C1144  O1225   1.397   .     S
C1147  C1260   1.445   1_455 S
C1148  C1259   1.445   .     S
N1157  Zn1168  2.010   .     S
N1158  Zn1167  2.010   .     S
O1159  Zn1167  2.010   .     S
O1160  Zn1168  2.010   .     S
O1161  Zn1167  2.011   .     S
O1162  Zn1168  2.011   .     S
O1163  Zn1167  1.941   .     S
O1164  Zn1168  1.941   .     S
O1165  Zn1167  1.941   .     S
O1166  Zn1168  1.941   .     S
O1169  C1170   1.413   .     S
C1170  H1172   1.113   .     S
C1170  C1173   1.522   .     S
C1170  H1171   1.114   .     S
C1173  H1175   1.111   .     S
C1173  H1176   1.110   .     S
H1174  C277    1.111   1_556 S
O1177  C1178   1.417   .     S
C1178  H1180   1.116   .     S
C1178  C1181   1.522   .     S
C1178  H1179   1.110   .     S
C1181  H1184   1.111   .     S
C1181  H1182   1.110   .     S
C1181  H287    1.111   1_556 S
O1185  C1186   1.413   .     S
C1186  H1188   1.113   .     S
C1186  C1189   1.522   .     S
C1186  H1187   1.114   .     S
C1189  H1191   1.111   .     S
C1189  H1192   1.110   .     S
C1189  H294    1.111   1_556 S
O1193  C1194   1.417   .     S
C1194  H1196   1.116   .     S
C1194  C1197   1.522   .     S
C1194  H1195   1.110   .     S
C1197  H1198   1.110   .     S
C1197  H1200   1.111   .     S
H1199  C301    1.111   1_556 S
O1201  C1202   1.420   .     S
C1202  H1203   1.117   .     S
C1202  H1204   1.112   .     S
C1202  C1205   1.518   .     S
C1205  H1208   1.110   .     S
C1205  H1207   1.111   .     S
C1205  H1206   1.110   .     S
O1209  C1210   1.414   .     S
C1210  H1212   1.112   .     S
C1210  H1211   1.115   .     S
C1210  C1213   1.521   .     S
C1213  H1214   1.111   .     S
C1213  H1216   1.110   .     S
C1213  H1215   1.107   .     S
O1217  C1218   1.420   .     S
C1218  H1219   1.117   .     S
C1218  C1221   1.518   .     S
C1218  H1220   1.112   .     S
C1221  H1222   1.110   .     S
C1221  H1223   1.111   .     S
C1221  H1224   1.110   .     S
O1225  C1226   1.414   .     S
C1226  H1227   1.115   .     S
C1226  H1228   1.111   .     S
C1226  C1229   1.521   .     S
C1229  H1231   1.111   .     S
C1229  H1232   1.107   .     S
C1229  H1230   1.111   .     S
C1233  C1257   1.456   .     S
C1233  O1271   1.293   .     A
C1233  O1274   1.291   .     A
C1234  O1273   1.293   .     A
C1234  C1258   1.457   .     S
C1234  O1272   1.291   .     A
C1235  O1281   1.380   .     S
C1235  C1239   1.413   .     A
C1235  N1269   1.373   .     A
C1236  C1240   1.417   .     A
C1236  O1289   1.386   .     S
C1236  N1270   1.365   .     A
C1237  N1269   1.373   .     A
C1237  O1297   1.380   .     S
C1237  C1241   1.413   .     A
C1238  O1305   1.386   .     S
C1238  N1270   1.365   .     A
C1238  C1242   1.416   .     A
C1239  H1265   1.081   .     S
C1239  C1245   1.405   .     A
C1240  H1266   1.080   .     S
C1240  C1246   1.407   .     A
C1241  C1245   1.405   .     A
C1241  H1267   1.081   .     S
C1242  C1246   1.407   .     A
C1242  H1268   1.080   .     S
C1243  C1247   1.359   .     S
C1243  O1275   1.275   .     A
C1243  O1278   1.275   .     A
C1244  C1248   1.359   .     S
C1244  O1277   1.275   .     A
C1244  O1276   1.275   .     A
C1246  C1021   1.515   1_565 S
C1248  C351    1.161   1_556 S
C1249  H1261   1.083   .     S
C1249  C1259   1.390   .     A
C1249  C1253   1.385   .     A
C1250  H1262   1.081   .     S
C1250  C1260   1.390   .     A
C1250  C1254   1.402   .     A
C1251  H1263   1.083   .     S
C1251  C1255   1.386   .     A
C1251  C1260   1.390   .     A
C1252  C1256   1.401   .     A
C1252  H1264   1.081   .     S
C1252  C1259   1.392   .     A
C1253  O1313   1.389   .     S
C1253  C1257   1.412   .     A
C1254  O1321   1.398   .     S
C1254  C1258   1.421   .     A
C1255  C1258   1.413   .     A
C1255  O1329   1.391   .     S
C1256  C1257   1.419   .     A
C1256  O1337   1.397   .     S
C1260  C1147   1.445   1_655 S
N1269  Zn1280  2.010   .     S
N1270  Zn1279  2.010   .     S
O1271  Zn1279  2.010   .     S
O1272  Zn1280  2.010   .     S
O1273  Zn1279  2.011   .     S
O1274  Zn1280  2.011   .     S
O1275  Zn1279  1.941   .     S
O1276  Zn1280  1.941   .     S
O1277  Zn1279  1.941   .     S
O1278  Zn1280  1.941   .     S
O1281  C1282   1.413   .     S
C1282  H1284   1.113   .     S
C1282  C1285   1.522   .     S
C1282  H1283   1.114   .     S
C1285  H1287   1.111   .     S
C1285  H1288   1.110   .     S
H1286  C389    1.111   1_556 S
O1289  C1290   1.417   .     S
C1290  H1292   1.116   .     S
C1290  C1293   1.522   .     S
C1290  H1291   1.110   .     S
C1293  H1296   1.111   .     S
C1293  H1294   1.110   .     S
C1293  H399    1.111   1_556 S
O1297  C1298   1.413   .     S
C1298  H1300   1.113   .     S
C1298  C1301   1.522   .     S
C1298  H1299   1.114   .     S
C1301  H1303   1.111   .     S
C1301  H1304   1.110   .     S
C1301  H406    1.111   1_556 S
O1305  C1306   1.417   .     S
C1306  H1308   1.116   .     S
C1306  C1309   1.522   .     S
C1306  H1307   1.110   .     S
C1309  H1310   1.110   .     S
C1309  H1312   1.111   .     S
H1311  C413    1.111   1_556 S
O1313  C1314   1.420   .     S
C1314  H1315   1.117   .     S
C1314  H1316   1.112   .     S
C1314  C1317   1.518   .     S
C1317  H1320   1.110   .     S
C1317  H1319   1.111   .     S
C1317  H1318   1.110   .     S
O1321  C1322   1.414   .     S
C1322  H1324   1.112   .     S
C1322  H1323   1.115   .     S
C1322  C1325   1.521   .     S
C1325  H1326   1.111   .     S
C1325  H1328   1.110   .     S
C1325  H1327   1.107   .     S
O1329  C1330   1.420   .     S
C1330  H1331   1.117   .     S
C1330  C1333   1.518   .     S
C1330  H1332   1.112   .     S
C1333  H1334   1.110   .     S
C1333  H1335   1.111   .     S
C1333  H1336   1.110   .     S
O1337  C1338   1.414   .     S
C1338  H1339   1.115   .     S
C1338  H1340   1.111   .     S
C1338  C1341   1.521   .     S
C1341  H1343   1.111   .     S
C1341  H1344   1.107   .     S
C1341  H1342   1.111   .     S
