data_str_m2_o1_o17_pcu_sym.90
_audit_creation_date              2020-01-03
_audit_creation_method            'Materials Studio'
_symmetry_space_group_name_H-M    'P1'
_symmetry_Int_Tables_number       1
_symmetry_cell_setting            triclinic
loop_
_symmetry_equiv_pos_as_xyz
  x,y,z
_cell_length_a                    32.4588
_cell_length_b                    29.0450
_cell_length_c                    29.9693
_cell_angle_alpha                 89.7457
_cell_angle_beta                  95.2703
_cell_angle_gamma                 89.8692
loop_
_atom_site_label
_atom_site_type_symbol
_atom_site_fract_x
_atom_site_fract_y
_atom_site_fract_z
_atom_site_U_iso_or_equiv
_atom_site_adp_type
_atom_site_occupancy
O1     O     0.10655   0.20625   0.25000   0.00000  Uiso   1.00
O2     O     0.22679   0.12709   0.25001   0.00000  Uiso   1.00
O3     O     0.22679   0.20625   0.25001   0.00000  Uiso   1.00
O4     O     0.10655   0.12709   0.25000   0.00000  Uiso   1.00
C5     C     0.08750   0.16670   0.24982   0.00000  Uiso   1.00
C6     C     0.24583   0.16664   0.25020   0.00000  Uiso   1.00
O7     O     0.16666   0.20627   0.18513   0.00000  Uiso   1.00
O8     O     0.16668   0.12707   0.31487   0.00000  Uiso   1.00
O9     O     0.16668   0.20627   0.31487   0.00000  Uiso   1.00
O10    O     0.16666   0.12707   0.18513   0.00000  Uiso   1.00
C11    C     0.16734   0.16675   0.16466   0.00000  Uiso   1.00
C12    C     0.16668   0.16653   0.33531   0.00000  Uiso   1.00
Cu13   Cu    0.16667   0.21355   0.25000   0.00000  Uiso   1.00
Cu14   Cu    0.16667   0.11978   0.25000   0.00000  Uiso   1.00
C15    C     0.20330   0.17307   0.40940   0.00000  Uiso   1.00
C16    C     0.13541   0.14644   0.09090   0.00000  Uiso   1.00
C17    C     0.16624   0.16559   0.38360   0.00000  Uiso   1.00
C18    C     0.16863   0.16627   0.11630   0.00000  Uiso   1.00
C19    C     0.13004   0.15417   0.40332   0.00000  Uiso   1.00
C20    C     0.20330   0.18232   0.09605   0.00000  Uiso   1.00
C21    C     0.13271   0.14499   0.45006   0.00000  Uiso   1.00
C22    C     0.20630   0.17231   0.05012   0.00000  Uiso   1.00
C23    C     0.16946   0.15769   0.47666   0.00000  Uiso   1.00
C24    C     0.17011   0.15789   0.02362   0.00000  Uiso   1.00
C25    C     0.20541   0.17080   0.45622   0.00000  Uiso   1.00
C26    C     0.13444   0.14427   0.04417   0.00000  Uiso   1.00
C27    C     0.10038   0.12315   0.47110   0.00000  Uiso   1.00
C28    C     0.24411   0.17526   0.02989   0.00000  Uiso   1.00
C29    C     0.09947   0.12660   0.01802   0.00000  Uiso   1.00
C30    C     0.24318   0.17871   0.48275   0.00000  Uiso   1.00
C31    C     0.02151   0.12487   0.25112   0.00000  Uiso   1.00
C32    C     0.31185   0.20847   0.24906   0.00000  Uiso   1.00
C33    C     0.31223   0.12483   0.25123   0.00000  Uiso   1.00
C34    C     0.02113   0.20851   0.24897   0.00000  Uiso   1.00
C35    C     0.29053   0.16663   0.25019   0.00000  Uiso   1.00
C36    C     0.04281   0.16670   0.24995   0.00000  Uiso   1.00
C37    C     0.13965   0.02491   0.22062   0.00000  Uiso   1.00
C38    C     0.19370   0.30842   0.27935   0.00000  Uiso   1.00
C39    C     0.19367   0.02452   0.27937   0.00000  Uiso   1.00
C40    C     0.13967   0.30881   0.22062   0.00000  Uiso   1.00
N41    N     0.16667   0.28402   0.25000   0.00000  Uiso   1.00
N42    N     0.16667   0.04931   0.25000   0.00000  Uiso   1.00
H43    H     0.23026   0.18094   0.39206   0.00000  Uiso   1.00
H44    H     0.10988   0.13400   0.10839   0.00000  Uiso   1.00
C45    C     0.08897   0.15880   0.37500   0.00000  Uiso   1.00
H46    H     0.08907   0.19003   0.35348   0.00000  Uiso   1.00
H47    H     0.08350   0.12838   0.35297   0.00000  Uiso   1.00
H48    H     0.06278   0.16395   0.39568   0.00000  Uiso   1.00
C49    C     0.23385   0.21356   0.12257   0.00000  Uiso   1.00
H50    H     0.21708   0.24150   0.13842   0.00000  Uiso   1.00
H51    H     0.25238   0.19363   0.14905   0.00000  Uiso   1.00
H52    H     0.25455   0.23183   0.10113   0.00000  Uiso   1.00
C53    C     0.07165   0.08919   0.44564   0.00000  Uiso   1.00
H54    H     0.08380   0.07772   0.41414   0.00000  Uiso   1.00
H55    H     0.06933   0.05718   0.46568   0.00000  Uiso   1.00
H56    H     0.04025   0.10419   0.43838   0.00000  Uiso   1.00
C57    C     0.28508   0.16545   0.05695   0.00000  Uiso   1.00
H58    H     0.28092   0.15004   0.09014   0.00000  Uiso   1.00
H59    H     0.30265   0.13932   0.03947   0.00000  Uiso   1.00
H60    H     0.30389   0.19724   0.06139   0.00000  Uiso   1.00
C61    C     0.06145   0.11144   0.04024   0.00000  Uiso   1.00
H62    H     0.03487   0.10219   0.01618   0.00000  Uiso   1.00
H63    H     0.06917   0.08116   0.06221   0.00000  Uiso   1.00
H64    H     0.05042   0.14014   0.06045   0.00000  Uiso   1.00
C65    C     0.28233   0.18991   0.46066   0.00000  Uiso   1.00
H66    H     0.30925   0.19810   0.48468   0.00000  Uiso   1.00
H67    H     0.29098   0.16030   0.44011   0.00000  Uiso   1.00
H68    H     0.27709   0.22091   0.43906   0.00000  Uiso   1.00
H69    H     0.03765   0.09215   0.25199   0.00000  Uiso   1.00
H70    H     0.29570   0.24119   0.24818   0.00000  Uiso   1.00
H71    H     0.29639   0.09211   0.25212   0.00000  Uiso   1.00
H72    H     0.03697   0.24123   0.24809   0.00000  Uiso   1.00
C73    C     0.10878   0.04903   0.18704   0.00000  Uiso   1.00
H74    H     0.10868   0.08628   0.18731   0.00000  Uiso   1.00
H75    H     0.11481   0.03957   0.15240   0.00000  Uiso   1.00
H76    H     0.07678   0.03917   0.19315   0.00000  Uiso   1.00
C77    C     0.22463   0.28431   0.31287   0.00000  Uiso   1.00
H78    H     0.22465   0.24704   0.31271   0.00000  Uiso   1.00
H79    H     0.25661   0.29409   0.30661   0.00000  Uiso   1.00
H80    H     0.21873   0.29386   0.34752   0.00000  Uiso   1.00
C81    C     0.22443   0.04825   0.31298   0.00000  Uiso   1.00
H82    H     0.22441   0.08552   0.31261   0.00000  Uiso   1.00
H83    H     0.21831   0.03854   0.34759   0.00000  Uiso   1.00
H84    H     0.25647   0.03834   0.30699   0.00000  Uiso   1.00
C85    C     0.10891   0.28508   0.18702   0.00000  Uiso   1.00
H86    H     0.10894   0.24782   0.18738   0.00000  Uiso   1.00
H87    H     0.07687   0.29498   0.19304   0.00000  Uiso   1.00
H88    H     0.11501   0.29482   0.15241   0.00000  Uiso   1.00
O89    O     0.43988   0.20625   0.25000   0.00000  Uiso   1.00
O90    O     0.56012   0.12709   0.25001   0.00000  Uiso   1.00
O91    O     0.56012   0.20625   0.25001   0.00000  Uiso   1.00
O92    O     0.43988   0.12709   0.25000   0.00000  Uiso   1.00
C93    C     0.42084   0.16670   0.24982   0.00000  Uiso   1.00
C94    C     0.57917   0.16664   0.25020   0.00000  Uiso   1.00
O95    O     0.49999   0.20627   0.18513   0.00000  Uiso   1.00
O96    O     0.50001   0.12707   0.31487   0.00000  Uiso   1.00
O97    O     0.50001   0.20627   0.31487   0.00000  Uiso   1.00
O98    O     0.49999   0.12707   0.18513   0.00000  Uiso   1.00
C99    C     0.50067   0.16675   0.16466   0.00000  Uiso   1.00
C100   C     0.50002   0.16653   0.33531   0.00000  Uiso   1.00
Cu101  Cu    0.50000   0.21355   0.25000   0.00000  Uiso   1.00
Cu102  Cu    0.50000   0.11978   0.25000   0.00000  Uiso   1.00
C103   C     0.53663   0.17307   0.40940   0.00000  Uiso   1.00
C104   C     0.46874   0.14644   0.09090   0.00000  Uiso   1.00
C105   C     0.49958   0.16559   0.38360   0.00000  Uiso   1.00
C106   C     0.50196   0.16627   0.11630   0.00000  Uiso   1.00
C107   C     0.46337   0.15417   0.40332   0.00000  Uiso   1.00
C108   C     0.53663   0.18232   0.09605   0.00000  Uiso   1.00
C109   C     0.46604   0.14499   0.45006   0.00000  Uiso   1.00
C110   C     0.53963   0.17231   0.05012   0.00000  Uiso   1.00
C111   C     0.50279   0.15769   0.47666   0.00000  Uiso   1.00
C112   C     0.50344   0.15789   0.02362   0.00000  Uiso   1.00
C113   C     0.53874   0.17080   0.45622   0.00000  Uiso   1.00
C114   C     0.46777   0.14427   0.04417   0.00000  Uiso   1.00
C115   C     0.43372   0.12315   0.47110   0.00000  Uiso   1.00
C116   C     0.57745   0.17526   0.02989   0.00000  Uiso   1.00
C117   C     0.43280   0.12660   0.01802   0.00000  Uiso   1.00
C118   C     0.57651   0.17871   0.48275   0.00000  Uiso   1.00
C119   C     0.35484   0.12487   0.25112   0.00000  Uiso   1.00
C120   C     0.64518   0.20847   0.24906   0.00000  Uiso   1.00
C121   C     0.64556   0.12483   0.25123   0.00000  Uiso   1.00
C122   C     0.35446   0.20851   0.24897   0.00000  Uiso   1.00
C123   C     0.62387   0.16663   0.25019   0.00000  Uiso   1.00
C124   C     0.37615   0.16670   0.24995   0.00000  Uiso   1.00
C125   C     0.47299   0.02491   0.22062   0.00000  Uiso   1.00
C126   C     0.52703   0.30842   0.27935   0.00000  Uiso   1.00
C127   C     0.52701   0.02452   0.27937   0.00000  Uiso   1.00
C128   C     0.47300   0.30881   0.22062   0.00000  Uiso   1.00
N129   N     0.50000   0.28402   0.25000   0.00000  Uiso   1.00
N130   N     0.50000   0.04931   0.25000   0.00000  Uiso   1.00
H131   H     0.56359   0.18094   0.39206   0.00000  Uiso   1.00
H132   H     0.44321   0.13400   0.10839   0.00000  Uiso   1.00
C133   C     0.42230   0.15880   0.37500   0.00000  Uiso   1.00
H134   H     0.42241   0.19003   0.35348   0.00000  Uiso   1.00
H135   H     0.41683   0.12838   0.35297   0.00000  Uiso   1.00
H136   H     0.39611   0.16395   0.39568   0.00000  Uiso   1.00
C137   C     0.56718   0.21356   0.12257   0.00000  Uiso   1.00
H138   H     0.55041   0.24150   0.13842   0.00000  Uiso   1.00
H139   H     0.58571   0.19363   0.14905   0.00000  Uiso   1.00
H140   H     0.58788   0.23183   0.10113   0.00000  Uiso   1.00
C141   C     0.40498   0.08919   0.44564   0.00000  Uiso   1.00
H142   H     0.41713   0.07772   0.41414   0.00000  Uiso   1.00
H143   H     0.40266   0.05718   0.46568   0.00000  Uiso   1.00
H144   H     0.37358   0.10419   0.43838   0.00000  Uiso   1.00
C145   C     0.61841   0.16545   0.05695   0.00000  Uiso   1.00
H146   H     0.61425   0.15004   0.09014   0.00000  Uiso   1.00
H147   H     0.63598   0.13932   0.03947   0.00000  Uiso   1.00
H148   H     0.63722   0.19724   0.06139   0.00000  Uiso   1.00
C149   C     0.39479   0.11144   0.04024   0.00000  Uiso   1.00
H150   H     0.36820   0.10219   0.01618   0.00000  Uiso   1.00
H151   H     0.40250   0.08116   0.06221   0.00000  Uiso   1.00
H152   H     0.38375   0.14014   0.06045   0.00000  Uiso   1.00
C153   C     0.61566   0.18991   0.46066   0.00000  Uiso   1.00
H154   H     0.64258   0.19810   0.48468   0.00000  Uiso   1.00
H155   H     0.62431   0.16030   0.44011   0.00000  Uiso   1.00
H156   H     0.61042   0.22091   0.43906   0.00000  Uiso   1.00
H157   H     0.37098   0.09215   0.25199   0.00000  Uiso   1.00
H158   H     0.62904   0.24119   0.24818   0.00000  Uiso   1.00
H159   H     0.62972   0.09211   0.25212   0.00000  Uiso   1.00
H160   H     0.37030   0.24123   0.24809   0.00000  Uiso   1.00
C161   C     0.44212   0.04903   0.18704   0.00000  Uiso   1.00
H162   H     0.44202   0.08628   0.18731   0.00000  Uiso   1.00
H163   H     0.44814   0.03957   0.15240   0.00000  Uiso   1.00
H164   H     0.41011   0.03917   0.19315   0.00000  Uiso   1.00
C165   C     0.55796   0.28431   0.31287   0.00000  Uiso   1.00
H166   H     0.55799   0.24704   0.31271   0.00000  Uiso   1.00
H167   H     0.58994   0.29409   0.30661   0.00000  Uiso   1.00
H168   H     0.55206   0.29386   0.34752   0.00000  Uiso   1.00
C169   C     0.55776   0.04825   0.31298   0.00000  Uiso   1.00
H170   H     0.55774   0.08552   0.31261   0.00000  Uiso   1.00
H171   H     0.55164   0.03854   0.34759   0.00000  Uiso   1.00
H172   H     0.58980   0.03834   0.30699   0.00000  Uiso   1.00
C173   C     0.44225   0.28508   0.18702   0.00000  Uiso   1.00
H174   H     0.44228   0.24782   0.18738   0.00000  Uiso   1.00
H175   H     0.41021   0.29498   0.19304   0.00000  Uiso   1.00
H176   H     0.44835   0.29482   0.15241   0.00000  Uiso   1.00
O177   O     0.77321   0.20625   0.25000   0.00000  Uiso   1.00
O178   O     0.89345   0.12709   0.25001   0.00000  Uiso   1.00
O179   O     0.89345   0.20625   0.25001   0.00000  Uiso   1.00
O180   O     0.77321   0.12709   0.25000   0.00000  Uiso   1.00
C181   C     0.75417   0.16670   0.24982   0.00000  Uiso   1.00
C182   C     0.91250   0.16664   0.25020   0.00000  Uiso   1.00
O183   O     0.83332   0.20627   0.18513   0.00000  Uiso   1.00
O184   O     0.83334   0.12707   0.31487   0.00000  Uiso   1.00
O185   O     0.83334   0.20627   0.31487   0.00000  Uiso   1.00
O186   O     0.83332   0.12707   0.18513   0.00000  Uiso   1.00
C187   C     0.83400   0.16675   0.16466   0.00000  Uiso   1.00
C188   C     0.83335   0.16653   0.33531   0.00000  Uiso   1.00
Cu189  Cu    0.83333   0.21355   0.25000   0.00000  Uiso   1.00
Cu190  Cu    0.83333   0.11978   0.25000   0.00000  Uiso   1.00
C191   C     0.86997   0.17307   0.40940   0.00000  Uiso   1.00
C192   C     0.80208   0.14644   0.09090   0.00000  Uiso   1.00
C193   C     0.83291   0.16559   0.38360   0.00000  Uiso   1.00
C194   C     0.83529   0.16627   0.11630   0.00000  Uiso   1.00
C195   C     0.79670   0.15417   0.40332   0.00000  Uiso   1.00
C196   C     0.86997   0.18232   0.09605   0.00000  Uiso   1.00
C197   C     0.79937   0.14499   0.45006   0.00000  Uiso   1.00
C198   C     0.87297   0.17231   0.05012   0.00000  Uiso   1.00
C199   C     0.83613   0.15769   0.47666   0.00000  Uiso   1.00
C200   C     0.83678   0.15789   0.02362   0.00000  Uiso   1.00
C201   C     0.87207   0.17080   0.45622   0.00000  Uiso   1.00
C202   C     0.80111   0.14427   0.04417   0.00000  Uiso   1.00
C203   C     0.76705   0.12315   0.47110   0.00000  Uiso   1.00
C204   C     0.91078   0.17526   0.02989   0.00000  Uiso   1.00
C205   C     0.76614   0.12660   0.01802   0.00000  Uiso   1.00
C206   C     0.90985   0.17871   0.48275   0.00000  Uiso   1.00
C207   C     0.68817   0.12487   0.25112   0.00000  Uiso   1.00
C208   C     0.97851   0.20847   0.24906   0.00000  Uiso   1.00
C209   C     0.97889   0.12483   0.25123   0.00000  Uiso   1.00
C210   C     0.68780   0.20851   0.24897   0.00000  Uiso   1.00
C211   C     0.95720   0.16663   0.25019   0.00000  Uiso   1.00
C212   C     0.70948   0.16670   0.24995   0.00000  Uiso   1.00
C213   C     0.80632   0.02491   0.22062   0.00000  Uiso   1.00
C214   C     0.86037   0.30842   0.27935   0.00000  Uiso   1.00
C215   C     0.86034   0.02452   0.27937   0.00000  Uiso   1.00
C216   C     0.80634   0.30881   0.22062   0.00000  Uiso   1.00
N217   N     0.83333   0.28402   0.25000   0.00000  Uiso   1.00
N218   N     0.83333   0.04931   0.25000   0.00000  Uiso   1.00
H219   H     0.89693   0.18094   0.39206   0.00000  Uiso   1.00
H220   H     0.77655   0.13400   0.10839   0.00000  Uiso   1.00
C221   C     0.75563   0.15880   0.37500   0.00000  Uiso   1.00
H222   H     0.75574   0.19003   0.35348   0.00000  Uiso   1.00
H223   H     0.75016   0.12838   0.35297   0.00000  Uiso   1.00
H224   H     0.72945   0.16395   0.39568   0.00000  Uiso   1.00
C225   C     0.90052   0.21356   0.12257   0.00000  Uiso   1.00
H226   H     0.88374   0.24150   0.13842   0.00000  Uiso   1.00
H227   H     0.91904   0.19363   0.14905   0.00000  Uiso   1.00
H228   H     0.92121   0.23183   0.10113   0.00000  Uiso   1.00
C229   C     0.73832   0.08919   0.44564   0.00000  Uiso   1.00
H230   H     0.75047   0.07772   0.41414   0.00000  Uiso   1.00
H231   H     0.73599   0.05718   0.46568   0.00000  Uiso   1.00
H232   H     0.70692   0.10419   0.43838   0.00000  Uiso   1.00
C233   C     0.95174   0.16545   0.05695   0.00000  Uiso   1.00
H234   H     0.94758   0.15004   0.09014   0.00000  Uiso   1.00
H235   H     0.96931   0.13932   0.03947   0.00000  Uiso   1.00
H236   H     0.97055   0.19724   0.06139   0.00000  Uiso   1.00
C237   C     0.72812   0.11144   0.04024   0.00000  Uiso   1.00
H238   H     0.70154   0.10219   0.01618   0.00000  Uiso   1.00
H239   H     0.73584   0.08116   0.06221   0.00000  Uiso   1.00
H240   H     0.71708   0.14014   0.06045   0.00000  Uiso   1.00
C241   C     0.94899   0.18991   0.46066   0.00000  Uiso   1.00
H242   H     0.97592   0.19810   0.48468   0.00000  Uiso   1.00
H243   H     0.95765   0.16030   0.44011   0.00000  Uiso   1.00
H244   H     0.94375   0.22091   0.43906   0.00000  Uiso   1.00
H245   H     0.70431   0.09215   0.25199   0.00000  Uiso   1.00
H246   H     0.96237   0.24119   0.24818   0.00000  Uiso   1.00
H247   H     0.96305   0.09211   0.25212   0.00000  Uiso   1.00
H248   H     0.70364   0.24123   0.24809   0.00000  Uiso   1.00
C249   C     0.77545   0.04903   0.18704   0.00000  Uiso   1.00
H250   H     0.77535   0.08628   0.18731   0.00000  Uiso   1.00
H251   H     0.78148   0.03957   0.15240   0.00000  Uiso   1.00
H252   H     0.74345   0.03917   0.19315   0.00000  Uiso   1.00
C253   C     0.89129   0.28431   0.31287   0.00000  Uiso   1.00
H254   H     0.89132   0.24704   0.31271   0.00000  Uiso   1.00
H255   H     0.92328   0.29409   0.30661   0.00000  Uiso   1.00
H256   H     0.88539   0.29386   0.34752   0.00000  Uiso   1.00
C257   C     0.89109   0.04825   0.31298   0.00000  Uiso   1.00
H258   H     0.89108   0.08552   0.31261   0.00000  Uiso   1.00
H259   H     0.88497   0.03854   0.34759   0.00000  Uiso   1.00
H260   H     0.92314   0.03834   0.30699   0.00000  Uiso   1.00
C261   C     0.77558   0.28508   0.18702   0.00000  Uiso   1.00
H262   H     0.77561   0.24782   0.18738   0.00000  Uiso   1.00
H263   H     0.74354   0.29498   0.19304   0.00000  Uiso   1.00
H264   H     0.78168   0.29482   0.15241   0.00000  Uiso   1.00
O265   O     0.10655   0.53958   0.25000   0.00000  Uiso   1.00
O266   O     0.22679   0.46042   0.25001   0.00000  Uiso   1.00
O267   O     0.22679   0.53958   0.25001   0.00000  Uiso   1.00
O268   O     0.10655   0.46042   0.25000   0.00000  Uiso   1.00
C269   C     0.08750   0.50003   0.24982   0.00000  Uiso   1.00
C270   C     0.24583   0.49997   0.25020   0.00000  Uiso   1.00
O271   O     0.16666   0.53960   0.18513   0.00000  Uiso   1.00
O272   O     0.16668   0.46040   0.31487   0.00000  Uiso   1.00
O273   O     0.16668   0.53960   0.31487   0.00000  Uiso   1.00
O274   O     0.16666   0.46040   0.18513   0.00000  Uiso   1.00
C275   C     0.16734   0.50008   0.16466   0.00000  Uiso   1.00
C276   C     0.16668   0.49986   0.33531   0.00000  Uiso   1.00
Cu277  Cu    0.16667   0.54689   0.25000   0.00000  Uiso   1.00
Cu278  Cu    0.16667   0.45311   0.25000   0.00000  Uiso   1.00
C279   C     0.20330   0.50640   0.40940   0.00000  Uiso   1.00
C280   C     0.13541   0.47977   0.09090   0.00000  Uiso   1.00
C281   C     0.16624   0.49892   0.38360   0.00000  Uiso   1.00
C282   C     0.16863   0.49961   0.11630   0.00000  Uiso   1.00
C283   C     0.13004   0.48750   0.40332   0.00000  Uiso   1.00
C284   C     0.20330   0.51565   0.09605   0.00000  Uiso   1.00
C285   C     0.13271   0.47832   0.45006   0.00000  Uiso   1.00
C286   C     0.20630   0.50565   0.05012   0.00000  Uiso   1.00
C287   C     0.16946   0.49102   0.47666   0.00000  Uiso   1.00
C288   C     0.17011   0.49122   0.02362   0.00000  Uiso   1.00
C289   C     0.20541   0.50413   0.45622   0.00000  Uiso   1.00
C290   C     0.13444   0.47760   0.04417   0.00000  Uiso   1.00
C291   C     0.10038   0.45648   0.47110   0.00000  Uiso   1.00
C292   C     0.24411   0.50860   0.02989   0.00000  Uiso   1.00
C293   C     0.09947   0.45993   0.01802   0.00000  Uiso   1.00
C294   C     0.24318   0.51204   0.48275   0.00000  Uiso   1.00
C295   C     0.02151   0.45820   0.25112   0.00000  Uiso   1.00
C296   C     0.31185   0.54181   0.24906   0.00000  Uiso   1.00
C297   C     0.31223   0.45816   0.25123   0.00000  Uiso   1.00
C298   C     0.02113   0.54184   0.24897   0.00000  Uiso   1.00
C299   C     0.29053   0.49997   0.25019   0.00000  Uiso   1.00
C300   C     0.04281   0.50004   0.24995   0.00000  Uiso   1.00
C301   C     0.13965   0.35824   0.22062   0.00000  Uiso   1.00
C302   C     0.19370   0.64176   0.27935   0.00000  Uiso   1.00
C303   C     0.19367   0.35786   0.27937   0.00000  Uiso   1.00
C304   C     0.13967   0.64214   0.22062   0.00000  Uiso   1.00
N305   N     0.16667   0.61736   0.25000   0.00000  Uiso   1.00
N306   N     0.16667   0.38264   0.25000   0.00000  Uiso   1.00
H307   H     0.23026   0.51428   0.39206   0.00000  Uiso   1.00
H308   H     0.10988   0.46733   0.10839   0.00000  Uiso   1.00
C309   C     0.08897   0.49213   0.37500   0.00000  Uiso   1.00
H310   H     0.08907   0.52337   0.35348   0.00000  Uiso   1.00
H311   H     0.08350   0.46171   0.35297   0.00000  Uiso   1.00
H312   H     0.06278   0.49728   0.39568   0.00000  Uiso   1.00
C313   C     0.23385   0.54689   0.12257   0.00000  Uiso   1.00
H314   H     0.21708   0.57484   0.13842   0.00000  Uiso   1.00
H315   H     0.25238   0.52697   0.14905   0.00000  Uiso   1.00
H316   H     0.25455   0.56517   0.10113   0.00000  Uiso   1.00
C317   C     0.07165   0.42252   0.44564   0.00000  Uiso   1.00
H318   H     0.08380   0.41105   0.41414   0.00000  Uiso   1.00
H319   H     0.06933   0.39052   0.46568   0.00000  Uiso   1.00
H320   H     0.04025   0.43752   0.43838   0.00000  Uiso   1.00
C321   C     0.28508   0.49878   0.05695   0.00000  Uiso   1.00
H322   H     0.28092   0.48337   0.09014   0.00000  Uiso   1.00
H323   H     0.30265   0.47265   0.03947   0.00000  Uiso   1.00
H324   H     0.30389   0.53058   0.06139   0.00000  Uiso   1.00
C325   C     0.06145   0.44478   0.04024   0.00000  Uiso   1.00
H326   H     0.03487   0.43552   0.01618   0.00000  Uiso   1.00
H327   H     0.06917   0.41450   0.06221   0.00000  Uiso   1.00
H328   H     0.05042   0.47348   0.06045   0.00000  Uiso   1.00
C329   C     0.28233   0.52324   0.46066   0.00000  Uiso   1.00
H330   H     0.30925   0.53143   0.48468   0.00000  Uiso   1.00
H331   H     0.29098   0.49363   0.44011   0.00000  Uiso   1.00
H332   H     0.27709   0.55424   0.43906   0.00000  Uiso   1.00
H333   H     0.03765   0.42548   0.25199   0.00000  Uiso   1.00
H334   H     0.29570   0.57452   0.24818   0.00000  Uiso   1.00
H335   H     0.29639   0.42544   0.25212   0.00000  Uiso   1.00
H336   H     0.03697   0.57457   0.24809   0.00000  Uiso   1.00
C337   C     0.10878   0.38236   0.18704   0.00000  Uiso   1.00
H338   H     0.10868   0.41962   0.18731   0.00000  Uiso   1.00
H339   H     0.11481   0.37290   0.15240   0.00000  Uiso   1.00
H340   H     0.07678   0.37250   0.19315   0.00000  Uiso   1.00
C341   C     0.22463   0.61764   0.31287   0.00000  Uiso   1.00
H342   H     0.22465   0.58038   0.31271   0.00000  Uiso   1.00
H343   H     0.25661   0.62743   0.30661   0.00000  Uiso   1.00
H344   H     0.21873   0.62719   0.34752   0.00000  Uiso   1.00
C345   C     0.22443   0.38159   0.31298   0.00000  Uiso   1.00
H346   H     0.22441   0.41885   0.31261   0.00000  Uiso   1.00
H347   H     0.21831   0.37187   0.34759   0.00000  Uiso   1.00
H348   H     0.25647   0.37167   0.30699   0.00000  Uiso   1.00
C349   C     0.10891   0.61842   0.18702   0.00000  Uiso   1.00
H350   H     0.10894   0.58116   0.18738   0.00000  Uiso   1.00
H351   H     0.07687   0.62831   0.19304   0.00000  Uiso   1.00
H352   H     0.11501   0.62816   0.15241   0.00000  Uiso   1.00
O353   O     0.43988   0.53958   0.25000   0.00000  Uiso   1.00
O354   O     0.56012   0.46042   0.25001   0.00000  Uiso   1.00
O355   O     0.56012   0.53958   0.25001   0.00000  Uiso   1.00
O356   O     0.43988   0.46042   0.25000   0.00000  Uiso   1.00
C357   C     0.42084   0.50003   0.24982   0.00000  Uiso   1.00
C358   C     0.57917   0.49997   0.25020   0.00000  Uiso   1.00
O359   O     0.49999   0.53960   0.18513   0.00000  Uiso   1.00
O360   O     0.50001   0.46040   0.31487   0.00000  Uiso   1.00
O361   O     0.50001   0.53960   0.31487   0.00000  Uiso   1.00
O362   O     0.49999   0.46040   0.18513   0.00000  Uiso   1.00
C363   C     0.50067   0.50008   0.16466   0.00000  Uiso   1.00
C364   C     0.50002   0.49986   0.33531   0.00000  Uiso   1.00
Cu365  Cu    0.50000   0.54689   0.25000   0.00000  Uiso   1.00
Cu366  Cu    0.50000   0.45311   0.25000   0.00000  Uiso   1.00
C367   C     0.53663   0.50640   0.40940   0.00000  Uiso   1.00
C368   C     0.46874   0.47977   0.09090   0.00000  Uiso   1.00
C369   C     0.49958   0.49892   0.38360   0.00000  Uiso   1.00
C370   C     0.50196   0.49961   0.11630   0.00000  Uiso   1.00
C371   C     0.46337   0.48750   0.40332   0.00000  Uiso   1.00
C372   C     0.53663   0.51565   0.09605   0.00000  Uiso   1.00
C373   C     0.46604   0.47832   0.45006   0.00000  Uiso   1.00
C374   C     0.53963   0.50565   0.05012   0.00000  Uiso   1.00
C375   C     0.50279   0.49102   0.47666   0.00000  Uiso   1.00
C376   C     0.50344   0.49122   0.02362   0.00000  Uiso   1.00
C377   C     0.53874   0.50413   0.45622   0.00000  Uiso   1.00
C378   C     0.46777   0.47760   0.04417   0.00000  Uiso   1.00
C379   C     0.43372   0.45648   0.47110   0.00000  Uiso   1.00
C380   C     0.57745   0.50860   0.02989   0.00000  Uiso   1.00
C381   C     0.43280   0.45993   0.01802   0.00000  Uiso   1.00
C382   C     0.57651   0.51204   0.48275   0.00000  Uiso   1.00
C383   C     0.35484   0.45820   0.25112   0.00000  Uiso   1.00
C384   C     0.64518   0.54181   0.24906   0.00000  Uiso   1.00
C385   C     0.64556   0.45816   0.25123   0.00000  Uiso   1.00
C386   C     0.35446   0.54184   0.24897   0.00000  Uiso   1.00
C387   C     0.62387   0.49997   0.25019   0.00000  Uiso   1.00
C388   C     0.37615   0.50004   0.24995   0.00000  Uiso   1.00
C389   C     0.47299   0.35824   0.22062   0.00000  Uiso   1.00
C390   C     0.52703   0.64176   0.27935   0.00000  Uiso   1.00
C391   C     0.52701   0.35786   0.27937   0.00000  Uiso   1.00
C392   C     0.47300   0.64214   0.22062   0.00000  Uiso   1.00
N393   N     0.50000   0.61736   0.25000   0.00000  Uiso   1.00
N394   N     0.50000   0.38264   0.25000   0.00000  Uiso   1.00
H395   H     0.56359   0.51428   0.39206   0.00000  Uiso   1.00
H396   H     0.44321   0.46733   0.10839   0.00000  Uiso   1.00
C397   C     0.42230   0.49213   0.37500   0.00000  Uiso   1.00
H398   H     0.42241   0.52337   0.35348   0.00000  Uiso   1.00
H399   H     0.41683   0.46171   0.35297   0.00000  Uiso   1.00
H400   H     0.39611   0.49728   0.39568   0.00000  Uiso   1.00
C401   C     0.56718   0.54689   0.12257   0.00000  Uiso   1.00
H402   H     0.55041   0.57484   0.13842   0.00000  Uiso   1.00
H403   H     0.58571   0.52697   0.14905   0.00000  Uiso   1.00
H404   H     0.58788   0.56517   0.10113   0.00000  Uiso   1.00
C405   C     0.40498   0.42252   0.44564   0.00000  Uiso   1.00
H406   H     0.41713   0.41105   0.41414   0.00000  Uiso   1.00
H407   H     0.40266   0.39052   0.46568   0.00000  Uiso   1.00
H408   H     0.37358   0.43752   0.43838   0.00000  Uiso   1.00
C409   C     0.61841   0.49878   0.05695   0.00000  Uiso   1.00
H410   H     0.61425   0.48337   0.09014   0.00000  Uiso   1.00
H411   H     0.63598   0.47265   0.03947   0.00000  Uiso   1.00
H412   H     0.63722   0.53058   0.06139   0.00000  Uiso   1.00
C413   C     0.39479   0.44478   0.04024   0.00000  Uiso   1.00
H414   H     0.36820   0.43552   0.01618   0.00000  Uiso   1.00
H415   H     0.40250   0.41450   0.06221   0.00000  Uiso   1.00
H416   H     0.38375   0.47348   0.06045   0.00000  Uiso   1.00
C417   C     0.61566   0.52324   0.46066   0.00000  Uiso   1.00
H418   H     0.64258   0.53143   0.48468   0.00000  Uiso   1.00
H419   H     0.62431   0.49363   0.44011   0.00000  Uiso   1.00
H420   H     0.61042   0.55424   0.43906   0.00000  Uiso   1.00
H421   H     0.37098   0.42548   0.25199   0.00000  Uiso   1.00
H422   H     0.62904   0.57452   0.24818   0.00000  Uiso   1.00
H423   H     0.62972   0.42544   0.25212   0.00000  Uiso   1.00
H424   H     0.37030   0.57457   0.24809   0.00000  Uiso   1.00
C425   C     0.44212   0.38236   0.18704   0.00000  Uiso   1.00
H426   H     0.44202   0.41962   0.18731   0.00000  Uiso   1.00
H427   H     0.44814   0.37290   0.15240   0.00000  Uiso   1.00
H428   H     0.41011   0.37250   0.19315   0.00000  Uiso   1.00
C429   C     0.55796   0.61764   0.31287   0.00000  Uiso   1.00
H430   H     0.55799   0.58038   0.31271   0.00000  Uiso   1.00
H431   H     0.58994   0.62743   0.30661   0.00000  Uiso   1.00
H432   H     0.55206   0.62719   0.34752   0.00000  Uiso   1.00
C433   C     0.55776   0.38159   0.31298   0.00000  Uiso   1.00
H434   H     0.55774   0.41885   0.31261   0.00000  Uiso   1.00
H435   H     0.55164   0.37187   0.34759   0.00000  Uiso   1.00
H436   H     0.58980   0.37167   0.30699   0.00000  Uiso   1.00
C437   C     0.44225   0.61842   0.18702   0.00000  Uiso   1.00
H438   H     0.44228   0.58116   0.18738   0.00000  Uiso   1.00
H439   H     0.41021   0.62831   0.19304   0.00000  Uiso   1.00
H440   H     0.44835   0.62816   0.15241   0.00000  Uiso   1.00
O441   O     0.77321   0.53958   0.25000   0.00000  Uiso   1.00
O442   O     0.89345   0.46042   0.25001   0.00000  Uiso   1.00
O443   O     0.89345   0.53958   0.25001   0.00000  Uiso   1.00
O444   O     0.77321   0.46042   0.25000   0.00000  Uiso   1.00
C445   C     0.75417   0.50003   0.24982   0.00000  Uiso   1.00
C446   C     0.91250   0.49997   0.25020   0.00000  Uiso   1.00
O447   O     0.83332   0.53960   0.18513   0.00000  Uiso   1.00
O448   O     0.83334   0.46040   0.31487   0.00000  Uiso   1.00
O449   O     0.83334   0.53960   0.31487   0.00000  Uiso   1.00
O450   O     0.83332   0.46040   0.18513   0.00000  Uiso   1.00
C451   C     0.83400   0.50008   0.16466   0.00000  Uiso   1.00
C452   C     0.83335   0.49986   0.33531   0.00000  Uiso   1.00
Cu453  Cu    0.83333   0.54689   0.25000   0.00000  Uiso   1.00
Cu454  Cu    0.83333   0.45311   0.25000   0.00000  Uiso   1.00
C455   C     0.86997   0.50640   0.40940   0.00000  Uiso   1.00
C456   C     0.80208   0.47977   0.09090   0.00000  Uiso   1.00
C457   C     0.83291   0.49892   0.38360   0.00000  Uiso   1.00
C458   C     0.83529   0.49961   0.11630   0.00000  Uiso   1.00
C459   C     0.79670   0.48750   0.40332   0.00000  Uiso   1.00
C460   C     0.86997   0.51565   0.09605   0.00000  Uiso   1.00
C461   C     0.79937   0.47832   0.45006   0.00000  Uiso   1.00
C462   C     0.87297   0.50565   0.05012   0.00000  Uiso   1.00
C463   C     0.83613   0.49102   0.47666   0.00000  Uiso   1.00
C464   C     0.83678   0.49122   0.02362   0.00000  Uiso   1.00
C465   C     0.87207   0.50413   0.45622   0.00000  Uiso   1.00
C466   C     0.80111   0.47760   0.04417   0.00000  Uiso   1.00
C467   C     0.76705   0.45648   0.47110   0.00000  Uiso   1.00
C468   C     0.91078   0.50860   0.02989   0.00000  Uiso   1.00
C469   C     0.76614   0.45993   0.01802   0.00000  Uiso   1.00
C470   C     0.90985   0.51204   0.48275   0.00000  Uiso   1.00
C471   C     0.68817   0.45820   0.25112   0.00000  Uiso   1.00
C472   C     0.97851   0.54181   0.24906   0.00000  Uiso   1.00
C473   C     0.97889   0.45816   0.25123   0.00000  Uiso   1.00
C474   C     0.68780   0.54184   0.24897   0.00000  Uiso   1.00
C475   C     0.95720   0.49997   0.25019   0.00000  Uiso   1.00
C476   C     0.70948   0.50004   0.24995   0.00000  Uiso   1.00
C477   C     0.80632   0.35824   0.22062   0.00000  Uiso   1.00
C478   C     0.86037   0.64176   0.27935   0.00000  Uiso   1.00
C479   C     0.86034   0.35786   0.27937   0.00000  Uiso   1.00
C480   C     0.80634   0.64214   0.22062   0.00000  Uiso   1.00
N481   N     0.83333   0.61736   0.25000   0.00000  Uiso   1.00
N482   N     0.83333   0.38264   0.25000   0.00000  Uiso   1.00
H483   H     0.89693   0.51428   0.39206   0.00000  Uiso   1.00
H484   H     0.77655   0.46733   0.10839   0.00000  Uiso   1.00
C485   C     0.75563   0.49213   0.37500   0.00000  Uiso   1.00
H486   H     0.75574   0.52337   0.35348   0.00000  Uiso   1.00
H487   H     0.75016   0.46171   0.35297   0.00000  Uiso   1.00
H488   H     0.72945   0.49728   0.39568   0.00000  Uiso   1.00
C489   C     0.90052   0.54689   0.12257   0.00000  Uiso   1.00
H490   H     0.88374   0.57484   0.13842   0.00000  Uiso   1.00
H491   H     0.91904   0.52697   0.14905   0.00000  Uiso   1.00
H492   H     0.92121   0.56517   0.10113   0.00000  Uiso   1.00
C493   C     0.73832   0.42252   0.44564   0.00000  Uiso   1.00
H494   H     0.75047   0.41105   0.41414   0.00000  Uiso   1.00
H495   H     0.73599   0.39052   0.46568   0.00000  Uiso   1.00
H496   H     0.70692   0.43752   0.43838   0.00000  Uiso   1.00
C497   C     0.95174   0.49878   0.05695   0.00000  Uiso   1.00
H498   H     0.94758   0.48337   0.09014   0.00000  Uiso   1.00
H499   H     0.96931   0.47265   0.03947   0.00000  Uiso   1.00
H500   H     0.97055   0.53058   0.06139   0.00000  Uiso   1.00
C501   C     0.72812   0.44478   0.04024   0.00000  Uiso   1.00
H502   H     0.70154   0.43552   0.01618   0.00000  Uiso   1.00
H503   H     0.73584   0.41450   0.06221   0.00000  Uiso   1.00
H504   H     0.71708   0.47348   0.06045   0.00000  Uiso   1.00
C505   C     0.94899   0.52324   0.46066   0.00000  Uiso   1.00
H506   H     0.97592   0.53143   0.48468   0.00000  Uiso   1.00
H507   H     0.95765   0.49363   0.44011   0.00000  Uiso   1.00
H508   H     0.94375   0.55424   0.43906   0.00000  Uiso   1.00
H509   H     0.70431   0.42548   0.25199   0.00000  Uiso   1.00
H510   H     0.96237   0.57452   0.24818   0.00000  Uiso   1.00
H511   H     0.96305   0.42544   0.25212   0.00000  Uiso   1.00
H512   H     0.70364   0.57457   0.24809   0.00000  Uiso   1.00
C513   C     0.77545   0.38236   0.18704   0.00000  Uiso   1.00
H514   H     0.77535   0.41962   0.18731   0.00000  Uiso   1.00
H515   H     0.78148   0.37290   0.15240   0.00000  Uiso   1.00
H516   H     0.74345   0.37250   0.19315   0.00000  Uiso   1.00
C517   C     0.89129   0.61764   0.31287   0.00000  Uiso   1.00
H518   H     0.89132   0.58038   0.31271   0.00000  Uiso   1.00
H519   H     0.92328   0.62743   0.30661   0.00000  Uiso   1.00
H520   H     0.88539   0.62719   0.34752   0.00000  Uiso   1.00
C521   C     0.89109   0.38159   0.31298   0.00000  Uiso   1.00
H522   H     0.89108   0.41885   0.31261   0.00000  Uiso   1.00
H523   H     0.88497   0.37187   0.34759   0.00000  Uiso   1.00
H524   H     0.92314   0.37167   0.30699   0.00000  Uiso   1.00
C525   C     0.77558   0.61842   0.18702   0.00000  Uiso   1.00
H526   H     0.77561   0.58116   0.18738   0.00000  Uiso   1.00
H527   H     0.74354   0.62831   0.19304   0.00000  Uiso   1.00
H528   H     0.78168   0.62816   0.15241   0.00000  Uiso   1.00
O529   O     0.10655   0.87291   0.25000   0.00000  Uiso   1.00
O530   O     0.22679   0.79375   0.25001   0.00000  Uiso   1.00
O531   O     0.22679   0.87291   0.25001   0.00000  Uiso   1.00
O532   O     0.10655   0.79375   0.25000   0.00000  Uiso   1.00
C533   C     0.08750   0.83336   0.24982   0.00000  Uiso   1.00
C534   C     0.24583   0.83330   0.25020   0.00000  Uiso   1.00
O535   O     0.16666   0.87293   0.18513   0.00000  Uiso   1.00
O536   O     0.16668   0.79373   0.31487   0.00000  Uiso   1.00
O537   O     0.16668   0.87293   0.31487   0.00000  Uiso   1.00
O538   O     0.16666   0.79373   0.18513   0.00000  Uiso   1.00
C539   C     0.16734   0.83342   0.16466   0.00000  Uiso   1.00
C540   C     0.16668   0.83319   0.33531   0.00000  Uiso   1.00
Cu541  Cu    0.16667   0.88022   0.25000   0.00000  Uiso   1.00
Cu542  Cu    0.16667   0.78645   0.25000   0.00000  Uiso   1.00
C543   C     0.20330   0.83974   0.40940   0.00000  Uiso   1.00
C544   C     0.13541   0.81311   0.09090   0.00000  Uiso   1.00
C545   C     0.16624   0.83226   0.38360   0.00000  Uiso   1.00
C546   C     0.16863   0.83294   0.11630   0.00000  Uiso   1.00
C547   C     0.13004   0.82084   0.40332   0.00000  Uiso   1.00
C548   C     0.20330   0.84898   0.09605   0.00000  Uiso   1.00
C549   C     0.13271   0.81166   0.45006   0.00000  Uiso   1.00
C550   C     0.20630   0.83898   0.05012   0.00000  Uiso   1.00
C551   C     0.16946   0.82436   0.47666   0.00000  Uiso   1.00
C552   C     0.17011   0.82455   0.02362   0.00000  Uiso   1.00
C553   C     0.20541   0.83746   0.45622   0.00000  Uiso   1.00
C554   C     0.13444   0.81094   0.04417   0.00000  Uiso   1.00
C555   C     0.10038   0.78982   0.47110   0.00000  Uiso   1.00
C556   C     0.24411   0.84193   0.02989   0.00000  Uiso   1.00
C557   C     0.09947   0.79327   0.01802   0.00000  Uiso   1.00
C558   C     0.24318   0.84537   0.48275   0.00000  Uiso   1.00
C559   C     0.02151   0.79153   0.25112   0.00000  Uiso   1.00
C560   C     0.31185   0.87514   0.24906   0.00000  Uiso   1.00
C561   C     0.31223   0.79150   0.25123   0.00000  Uiso   1.00
C562   C     0.02113   0.87517   0.24897   0.00000  Uiso   1.00
C563   C     0.29053   0.83330   0.25019   0.00000  Uiso   1.00
C564   C     0.04281   0.83337   0.24995   0.00000  Uiso   1.00
C565   C     0.13965   0.69158   0.22062   0.00000  Uiso   1.00
C566   C     0.19370   0.97509   0.27935   0.00000  Uiso   1.00
C567   C     0.19367   0.69119   0.27937   0.00000  Uiso   1.00
C568   C     0.13967   0.97548   0.22062   0.00000  Uiso   1.00
N569   N     0.16667   0.95069   0.25000   0.00000  Uiso   1.00
N570   N     0.16667   0.71598   0.25000   0.00000  Uiso   1.00
H571   H     0.23026   0.84761   0.39206   0.00000  Uiso   1.00
H572   H     0.10988   0.80067   0.10839   0.00000  Uiso   1.00
C573   C     0.08897   0.82547   0.37500   0.00000  Uiso   1.00
H574   H     0.08907   0.85670   0.35348   0.00000  Uiso   1.00
H575   H     0.08350   0.79504   0.35297   0.00000  Uiso   1.00
H576   H     0.06278   0.83062   0.39568   0.00000  Uiso   1.00
C577   C     0.23385   0.88022   0.12257   0.00000  Uiso   1.00
H578   H     0.21708   0.90817   0.13842   0.00000  Uiso   1.00
H579   H     0.25238   0.86030   0.14905   0.00000  Uiso   1.00
H580   H     0.25455   0.89850   0.10113   0.00000  Uiso   1.00
C581   C     0.07165   0.75585   0.44564   0.00000  Uiso   1.00
H582   H     0.08380   0.74439   0.41414   0.00000  Uiso   1.00
H583   H     0.06933   0.72385   0.46568   0.00000  Uiso   1.00
H584   H     0.04025   0.77086   0.43838   0.00000  Uiso   1.00
C585   C     0.28508   0.83212   0.05695   0.00000  Uiso   1.00
H586   H     0.28092   0.81671   0.09014   0.00000  Uiso   1.00
H587   H     0.30265   0.80598   0.03947   0.00000  Uiso   1.00
H588   H     0.30389   0.86391   0.06139   0.00000  Uiso   1.00
C589   C     0.06145   0.77811   0.04024   0.00000  Uiso   1.00
H590   H     0.03487   0.76886   0.01618   0.00000  Uiso   1.00
H591   H     0.06917   0.74783   0.06221   0.00000  Uiso   1.00
H592   H     0.05042   0.80681   0.06045   0.00000  Uiso   1.00
C593   C     0.28233   0.85658   0.46066   0.00000  Uiso   1.00
H594   H     0.30925   0.86477   0.48468   0.00000  Uiso   1.00
H595   H     0.29098   0.82696   0.44011   0.00000  Uiso   1.00
H596   H     0.27709   0.88757   0.43906   0.00000  Uiso   1.00
H597   H     0.03765   0.75882   0.25199   0.00000  Uiso   1.00
H598   H     0.29570   0.90786   0.24818   0.00000  Uiso   1.00
H599   H     0.29639   0.75877   0.25212   0.00000  Uiso   1.00
H600   H     0.03697   0.90790   0.24809   0.00000  Uiso   1.00
C601   C     0.10878   0.71569   0.18704   0.00000  Uiso   1.00
H602   H     0.10868   0.75295   0.18731   0.00000  Uiso   1.00
H603   H     0.11481   0.70624   0.15240   0.00000  Uiso   1.00
H604   H     0.07678   0.70584   0.19315   0.00000  Uiso   1.00
C605   C     0.22463   0.95097   0.31287   0.00000  Uiso   1.00
H606   H     0.22465   0.91371   0.31271   0.00000  Uiso   1.00
H607   H     0.25661   0.96076   0.30661   0.00000  Uiso   1.00
H608   H     0.21873   0.96052   0.34752   0.00000  Uiso   1.00
C609   C     0.22443   0.71492   0.31298   0.00000  Uiso   1.00
H610   H     0.22441   0.75218   0.31261   0.00000  Uiso   1.00
H611   H     0.21831   0.70520   0.34759   0.00000  Uiso   1.00
H612   H     0.25647   0.70500   0.30699   0.00000  Uiso   1.00
C613   C     0.10891   0.95175   0.18702   0.00000  Uiso   1.00
H614   H     0.10894   0.91449   0.18738   0.00000  Uiso   1.00
H615   H     0.07687   0.96165   0.19304   0.00000  Uiso   1.00
H616   H     0.11501   0.96149   0.15241   0.00000  Uiso   1.00
O617   O     0.43988   0.87291   0.25000   0.00000  Uiso   1.00
O618   O     0.56012   0.79375   0.25001   0.00000  Uiso   1.00
O619   O     0.56012   0.87291   0.25001   0.00000  Uiso   1.00
O620   O     0.43988   0.79375   0.25000   0.00000  Uiso   1.00
C621   C     0.42084   0.83336   0.24982   0.00000  Uiso   1.00
C622   C     0.57917   0.83330   0.25020   0.00000  Uiso   1.00
O623   O     0.49999   0.87293   0.18513   0.00000  Uiso   1.00
O624   O     0.50001   0.79373   0.31487   0.00000  Uiso   1.00
O625   O     0.50001   0.87293   0.31487   0.00000  Uiso   1.00
O626   O     0.49999   0.79373   0.18513   0.00000  Uiso   1.00
C627   C     0.50067   0.83342   0.16466   0.00000  Uiso   1.00
C628   C     0.50002   0.83319   0.33531   0.00000  Uiso   1.00
Cu629  Cu    0.50000   0.88022   0.25000   0.00000  Uiso   1.00
Cu630  Cu    0.50000   0.78645   0.25000   0.00000  Uiso   1.00
C631   C     0.53663   0.83974   0.40940   0.00000  Uiso   1.00
C632   C     0.46874   0.81311   0.09090   0.00000  Uiso   1.00
C633   C     0.49958   0.83226   0.38360   0.00000  Uiso   1.00
C634   C     0.50196   0.83294   0.11630   0.00000  Uiso   1.00
C635   C     0.46337   0.82084   0.40332   0.00000  Uiso   1.00
C636   C     0.53663   0.84898   0.09605   0.00000  Uiso   1.00
C637   C     0.46604   0.81166   0.45006   0.00000  Uiso   1.00
C638   C     0.53963   0.83898   0.05012   0.00000  Uiso   1.00
C639   C     0.50279   0.82436   0.47666   0.00000  Uiso   1.00
C640   C     0.50344   0.82455   0.02362   0.00000  Uiso   1.00
C641   C     0.53874   0.83746   0.45622   0.00000  Uiso   1.00
C642   C     0.46777   0.81094   0.04417   0.00000  Uiso   1.00
C643   C     0.43372   0.78982   0.47110   0.00000  Uiso   1.00
C644   C     0.57745   0.84193   0.02989   0.00000  Uiso   1.00
C645   C     0.43280   0.79327   0.01802   0.00000  Uiso   1.00
C646   C     0.57651   0.84537   0.48275   0.00000  Uiso   1.00
C647   C     0.35484   0.79153   0.25112   0.00000  Uiso   1.00
C648   C     0.64518   0.87514   0.24906   0.00000  Uiso   1.00
C649   C     0.64556   0.79150   0.25123   0.00000  Uiso   1.00
C650   C     0.35446   0.87517   0.24897   0.00000  Uiso   1.00
C651   C     0.62387   0.83330   0.25019   0.00000  Uiso   1.00
C652   C     0.37615   0.83337   0.24995   0.00000  Uiso   1.00
C653   C     0.47299   0.69158   0.22062   0.00000  Uiso   1.00
C654   C     0.52703   0.97509   0.27935   0.00000  Uiso   1.00
C655   C     0.52701   0.69119   0.27937   0.00000  Uiso   1.00
C656   C     0.47300   0.97548   0.22062   0.00000  Uiso   1.00
N657   N     0.50000   0.95069   0.25000   0.00000  Uiso   1.00
N658   N     0.50000   0.71598   0.25000   0.00000  Uiso   1.00
H659   H     0.56359   0.84761   0.39206   0.00000  Uiso   1.00
H660   H     0.44321   0.80067   0.10839   0.00000  Uiso   1.00
C661   C     0.42230   0.82547   0.37500   0.00000  Uiso   1.00
H662   H     0.42241   0.85670   0.35348   0.00000  Uiso   1.00
H663   H     0.41683   0.79504   0.35297   0.00000  Uiso   1.00
H664   H     0.39611   0.83062   0.39568   0.00000  Uiso   1.00
C665   C     0.56718   0.88022   0.12257   0.00000  Uiso   1.00
H666   H     0.55041   0.90817   0.13842   0.00000  Uiso   1.00
H667   H     0.58571   0.86030   0.14905   0.00000  Uiso   1.00
H668   H     0.58788   0.89850   0.10113   0.00000  Uiso   1.00
C669   C     0.40498   0.75585   0.44564   0.00000  Uiso   1.00
H670   H     0.41713   0.74439   0.41414   0.00000  Uiso   1.00
H671   H     0.40266   0.72385   0.46568   0.00000  Uiso   1.00
H672   H     0.37358   0.77086   0.43838   0.00000  Uiso   1.00
C673   C     0.61841   0.83212   0.05695   0.00000  Uiso   1.00
H674   H     0.61425   0.81671   0.09014   0.00000  Uiso   1.00
H675   H     0.63598   0.80598   0.03947   0.00000  Uiso   1.00
H676   H     0.63722   0.86391   0.06139   0.00000  Uiso   1.00
C677   C     0.39479   0.77811   0.04024   0.00000  Uiso   1.00
H678   H     0.36820   0.76886   0.01618   0.00000  Uiso   1.00
H679   H     0.40250   0.74783   0.06221   0.00000  Uiso   1.00
H680   H     0.38375   0.80681   0.06045   0.00000  Uiso   1.00
C681   C     0.61566   0.85658   0.46066   0.00000  Uiso   1.00
H682   H     0.64258   0.86477   0.48468   0.00000  Uiso   1.00
H683   H     0.62431   0.82696   0.44011   0.00000  Uiso   1.00
H684   H     0.61042   0.88757   0.43906   0.00000  Uiso   1.00
H685   H     0.37098   0.75882   0.25199   0.00000  Uiso   1.00
H686   H     0.62904   0.90786   0.24818   0.00000  Uiso   1.00
H687   H     0.62972   0.75877   0.25212   0.00000  Uiso   1.00
H688   H     0.37030   0.90790   0.24809   0.00000  Uiso   1.00
C689   C     0.44212   0.71569   0.18704   0.00000  Uiso   1.00
H690   H     0.44202   0.75295   0.18731   0.00000  Uiso   1.00
H691   H     0.44814   0.70624   0.15240   0.00000  Uiso   1.00
H692   H     0.41011   0.70584   0.19315   0.00000  Uiso   1.00
C693   C     0.55796   0.95097   0.31287   0.00000  Uiso   1.00
H694   H     0.55799   0.91371   0.31271   0.00000  Uiso   1.00
H695   H     0.58994   0.96076   0.30661   0.00000  Uiso   1.00
H696   H     0.55206   0.96052   0.34752   0.00000  Uiso   1.00
C697   C     0.55776   0.71492   0.31298   0.00000  Uiso   1.00
H698   H     0.55774   0.75218   0.31261   0.00000  Uiso   1.00
H699   H     0.55164   0.70520   0.34759   0.00000  Uiso   1.00
H700   H     0.58980   0.70500   0.30699   0.00000  Uiso   1.00
C701   C     0.44225   0.95175   0.18702   0.00000  Uiso   1.00
H702   H     0.44228   0.91449   0.18738   0.00000  Uiso   1.00
H703   H     0.41021   0.96165   0.19304   0.00000  Uiso   1.00
H704   H     0.44835   0.96149   0.15241   0.00000  Uiso   1.00
O705   O     0.77321   0.87291   0.25000   0.00000  Uiso   1.00
O706   O     0.89345   0.79375   0.25001   0.00000  Uiso   1.00
O707   O     0.89345   0.87291   0.25001   0.00000  Uiso   1.00
O708   O     0.77321   0.79375   0.25000   0.00000  Uiso   1.00
C709   C     0.75417   0.83336   0.24982   0.00000  Uiso   1.00
C710   C     0.91250   0.83330   0.25020   0.00000  Uiso   1.00
O711   O     0.83332   0.87293   0.18513   0.00000  Uiso   1.00
O712   O     0.83334   0.79373   0.31487   0.00000  Uiso   1.00
O713   O     0.83334   0.87293   0.31487   0.00000  Uiso   1.00
O714   O     0.83332   0.79373   0.18513   0.00000  Uiso   1.00
C715   C     0.83400   0.83342   0.16466   0.00000  Uiso   1.00
C716   C     0.83335   0.83319   0.33531   0.00000  Uiso   1.00
Cu717  Cu    0.83333   0.88022   0.25000   0.00000  Uiso   1.00
Cu718  Cu    0.83333   0.78645   0.25000   0.00000  Uiso   1.00
C719   C     0.86997   0.83974   0.40940   0.00000  Uiso   1.00
C720   C     0.80208   0.81311   0.09090   0.00000  Uiso   1.00
C721   C     0.83291   0.83226   0.38360   0.00000  Uiso   1.00
C722   C     0.83529   0.83294   0.11630   0.00000  Uiso   1.00
C723   C     0.79670   0.82084   0.40332   0.00000  Uiso   1.00
C724   C     0.86997   0.84898   0.09605   0.00000  Uiso   1.00
C725   C     0.79937   0.81166   0.45006   0.00000  Uiso   1.00
C726   C     0.87297   0.83898   0.05012   0.00000  Uiso   1.00
C727   C     0.83613   0.82436   0.47666   0.00000  Uiso   1.00
C728   C     0.83678   0.82455   0.02362   0.00000  Uiso   1.00
C729   C     0.87207   0.83746   0.45622   0.00000  Uiso   1.00
C730   C     0.80111   0.81094   0.04417   0.00000  Uiso   1.00
C731   C     0.76705   0.78982   0.47110   0.00000  Uiso   1.00
C732   C     0.91078   0.84193   0.02989   0.00000  Uiso   1.00
C733   C     0.76614   0.79327   0.01802   0.00000  Uiso   1.00
C734   C     0.90985   0.84537   0.48275   0.00000  Uiso   1.00
C735   C     0.68817   0.79153   0.25112   0.00000  Uiso   1.00
C736   C     0.97851   0.87514   0.24906   0.00000  Uiso   1.00
C737   C     0.97889   0.79150   0.25123   0.00000  Uiso   1.00
C738   C     0.68780   0.87517   0.24897   0.00000  Uiso   1.00
C739   C     0.95720   0.83330   0.25019   0.00000  Uiso   1.00
C740   C     0.70948   0.83337   0.24995   0.00000  Uiso   1.00
C741   C     0.80632   0.69158   0.22062   0.00000  Uiso   1.00
C742   C     0.86037   0.97509   0.27935   0.00000  Uiso   1.00
C743   C     0.86034   0.69119   0.27937   0.00000  Uiso   1.00
C744   C     0.80634   0.97548   0.22062   0.00000  Uiso   1.00
N745   N     0.83333   0.95069   0.25000   0.00000  Uiso   1.00
N746   N     0.83333   0.71598   0.25000   0.00000  Uiso   1.00
H747   H     0.89693   0.84761   0.39206   0.00000  Uiso   1.00
H748   H     0.77655   0.80067   0.10839   0.00000  Uiso   1.00
C749   C     0.75563   0.82547   0.37500   0.00000  Uiso   1.00
H750   H     0.75574   0.85670   0.35348   0.00000  Uiso   1.00
H751   H     0.75016   0.79504   0.35297   0.00000  Uiso   1.00
H752   H     0.72945   0.83062   0.39568   0.00000  Uiso   1.00
C753   C     0.90052   0.88022   0.12257   0.00000  Uiso   1.00
H754   H     0.88374   0.90817   0.13842   0.00000  Uiso   1.00
H755   H     0.91904   0.86030   0.14905   0.00000  Uiso   1.00
H756   H     0.92121   0.89850   0.10113   0.00000  Uiso   1.00
C757   C     0.73832   0.75585   0.44564   0.00000  Uiso   1.00
H758   H     0.75047   0.74439   0.41414   0.00000  Uiso   1.00
H759   H     0.73599   0.72385   0.46568   0.00000  Uiso   1.00
H760   H     0.70692   0.77086   0.43838   0.00000  Uiso   1.00
C761   C     0.95174   0.83212   0.05695   0.00000  Uiso   1.00
H762   H     0.94758   0.81671   0.09014   0.00000  Uiso   1.00
H763   H     0.96931   0.80598   0.03947   0.00000  Uiso   1.00
H764   H     0.97055   0.86391   0.06139   0.00000  Uiso   1.00
C765   C     0.72812   0.77811   0.04024   0.00000  Uiso   1.00
H766   H     0.70154   0.76886   0.01618   0.00000  Uiso   1.00
H767   H     0.73584   0.74783   0.06221   0.00000  Uiso   1.00
H768   H     0.71708   0.80681   0.06045   0.00000  Uiso   1.00
C769   C     0.94899   0.85658   0.46066   0.00000  Uiso   1.00
H770   H     0.97592   0.86477   0.48468   0.00000  Uiso   1.00
H771   H     0.95765   0.82696   0.44011   0.00000  Uiso   1.00
H772   H     0.94375   0.88757   0.43906   0.00000  Uiso   1.00
H773   H     0.70431   0.75882   0.25199   0.00000  Uiso   1.00
H774   H     0.96237   0.90786   0.24818   0.00000  Uiso   1.00
H775   H     0.96305   0.75877   0.25212   0.00000  Uiso   1.00
H776   H     0.70364   0.90790   0.24809   0.00000  Uiso   1.00
C777   C     0.77545   0.71569   0.18704   0.00000  Uiso   1.00
H778   H     0.77535   0.75295   0.18731   0.00000  Uiso   1.00
H779   H     0.78148   0.70624   0.15240   0.00000  Uiso   1.00
H780   H     0.74345   0.70584   0.19315   0.00000  Uiso   1.00
C781   C     0.89129   0.95097   0.31287   0.00000  Uiso   1.00
H782   H     0.89132   0.91371   0.31271   0.00000  Uiso   1.00
H783   H     0.92328   0.96076   0.30661   0.00000  Uiso   1.00
H784   H     0.88539   0.96052   0.34752   0.00000  Uiso   1.00
C785   C     0.89109   0.71492   0.31298   0.00000  Uiso   1.00
H786   H     0.89108   0.75218   0.31261   0.00000  Uiso   1.00
H787   H     0.88497   0.70520   0.34759   0.00000  Uiso   1.00
H788   H     0.92314   0.70500   0.30699   0.00000  Uiso   1.00
C789   C     0.77558   0.95175   0.18702   0.00000  Uiso   1.00
H790   H     0.77561   0.91449   0.18738   0.00000  Uiso   1.00
H791   H     0.74354   0.96165   0.19304   0.00000  Uiso   1.00
H792   H     0.78168   0.96149   0.15241   0.00000  Uiso   1.00
O793   O     0.10655   0.20625   0.75000   0.00000  Uiso   1.00
O794   O     0.22679   0.12709   0.75001   0.00000  Uiso   1.00
O795   O     0.22679   0.20625   0.75001   0.00000  Uiso   1.00
O796   O     0.10655   0.12709   0.75000   0.00000  Uiso   1.00
C797   C     0.08750   0.16670   0.74982   0.00000  Uiso   1.00
C798   C     0.24583   0.16664   0.75020   0.00000  Uiso   1.00
O799   O     0.16666   0.20627   0.68513   0.00000  Uiso   1.00
O800   O     0.16668   0.12707   0.81487   0.00000  Uiso   1.00
O801   O     0.16668   0.20627   0.81487   0.00000  Uiso   1.00
O802   O     0.16666   0.12707   0.68513   0.00000  Uiso   1.00
C803   C     0.16734   0.16675   0.66466   0.00000  Uiso   1.00
C804   C     0.16668   0.16653   0.83531   0.00000  Uiso   1.00
Cu805  Cu    0.16667   0.21355   0.75000   0.00000  Uiso   1.00
Cu806  Cu    0.16667   0.11978   0.75000   0.00000  Uiso   1.00
C807   C     0.20330   0.17307   0.90940   0.00000  Uiso   1.00
C808   C     0.13541   0.14644   0.59090   0.00000  Uiso   1.00
C809   C     0.16624   0.16559   0.88360   0.00000  Uiso   1.00
C810   C     0.16863   0.16627   0.61630   0.00000  Uiso   1.00
C811   C     0.13004   0.15417   0.90332   0.00000  Uiso   1.00
C812   C     0.20330   0.18232   0.59605   0.00000  Uiso   1.00
C813   C     0.13271   0.14499   0.95006   0.00000  Uiso   1.00
C814   C     0.20630   0.17231   0.55012   0.00000  Uiso   1.00
C815   C     0.16946   0.15769   0.97666   0.00000  Uiso   1.00
C816   C     0.17011   0.15789   0.52362   0.00000  Uiso   1.00
C817   C     0.20541   0.17080   0.95622   0.00000  Uiso   1.00
C818   C     0.13444   0.14427   0.54417   0.00000  Uiso   1.00
C819   C     0.10038   0.12315   0.97110   0.00000  Uiso   1.00
C820   C     0.24411   0.17526   0.52989   0.00000  Uiso   1.00
C821   C     0.09947   0.12660   0.51802   0.00000  Uiso   1.00
C822   C     0.24318   0.17871   0.98275   0.00000  Uiso   1.00
C823   C     0.02151   0.12487   0.75112   0.00000  Uiso   1.00
C824   C     0.31185   0.20847   0.74906   0.00000  Uiso   1.00
C825   C     0.31223   0.12483   0.75123   0.00000  Uiso   1.00
C826   C     0.02113   0.20851   0.74897   0.00000  Uiso   1.00
C827   C     0.29053   0.16663   0.75019   0.00000  Uiso   1.00
C828   C     0.04281   0.16670   0.74995   0.00000  Uiso   1.00
C829   C     0.13965   0.02491   0.72062   0.00000  Uiso   1.00
C830   C     0.19370   0.30842   0.77935   0.00000  Uiso   1.00
C831   C     0.19367   0.02452   0.77937   0.00000  Uiso   1.00
C832   C     0.13967   0.30881   0.72062   0.00000  Uiso   1.00
N833   N     0.16667   0.28402   0.75000   0.00000  Uiso   1.00
N834   N     0.16667   0.04931   0.75000   0.00000  Uiso   1.00
H835   H     0.23026   0.18094   0.89206   0.00000  Uiso   1.00
H836   H     0.10988   0.13400   0.60839   0.00000  Uiso   1.00
C837   C     0.08897   0.15880   0.87500   0.00000  Uiso   1.00
H838   H     0.08907   0.19003   0.85348   0.00000  Uiso   1.00
H839   H     0.08350   0.12838   0.85297   0.00000  Uiso   1.00
H840   H     0.06278   0.16395   0.89568   0.00000  Uiso   1.00
C841   C     0.23385   0.21356   0.62257   0.00000  Uiso   1.00
H842   H     0.21708   0.24150   0.63842   0.00000  Uiso   1.00
H843   H     0.25238   0.19363   0.64905   0.00000  Uiso   1.00
H844   H     0.25455   0.23183   0.60113   0.00000  Uiso   1.00
C845   C     0.07165   0.08919   0.94564   0.00000  Uiso   1.00
H846   H     0.08380   0.07772   0.91414   0.00000  Uiso   1.00
H847   H     0.06933   0.05718   0.96568   0.00000  Uiso   1.00
H848   H     0.04025   0.10419   0.93838   0.00000  Uiso   1.00
C849   C     0.28508   0.16545   0.55695   0.00000  Uiso   1.00
H850   H     0.28092   0.15004   0.59014   0.00000  Uiso   1.00
H851   H     0.30265   0.13932   0.53947   0.00000  Uiso   1.00
H852   H     0.30389   0.19724   0.56139   0.00000  Uiso   1.00
C853   C     0.06145   0.11144   0.54024   0.00000  Uiso   1.00
H854   H     0.03487   0.10219   0.51618   0.00000  Uiso   1.00
H855   H     0.06917   0.08116   0.56221   0.00000  Uiso   1.00
H856   H     0.05042   0.14014   0.56045   0.00000  Uiso   1.00
C857   C     0.28233   0.18991   0.96066   0.00000  Uiso   1.00
H858   H     0.30925   0.19810   0.98468   0.00000  Uiso   1.00
H859   H     0.29098   0.16030   0.94011   0.00000  Uiso   1.00
H860   H     0.27709   0.22091   0.93906   0.00000  Uiso   1.00
H861   H     0.03765   0.09215   0.75199   0.00000  Uiso   1.00
H862   H     0.29570   0.24119   0.74818   0.00000  Uiso   1.00
H863   H     0.29639   0.09211   0.75212   0.00000  Uiso   1.00
H864   H     0.03697   0.24123   0.74809   0.00000  Uiso   1.00
C865   C     0.10878   0.04903   0.68704   0.00000  Uiso   1.00
H866   H     0.10868   0.08628   0.68731   0.00000  Uiso   1.00
H867   H     0.11481   0.03957   0.65240   0.00000  Uiso   1.00
H868   H     0.07678   0.03917   0.69315   0.00000  Uiso   1.00
C869   C     0.22463   0.28431   0.81287   0.00000  Uiso   1.00
H870   H     0.22465   0.24704   0.81271   0.00000  Uiso   1.00
H871   H     0.25661   0.29409   0.80661   0.00000  Uiso   1.00
H872   H     0.21873   0.29386   0.84752   0.00000  Uiso   1.00
C873   C     0.22443   0.04825   0.81298   0.00000  Uiso   1.00
H874   H     0.22441   0.08552   0.81261   0.00000  Uiso   1.00
H875   H     0.21831   0.03854   0.84759   0.00000  Uiso   1.00
H876   H     0.25647   0.03834   0.80699   0.00000  Uiso   1.00
C877   C     0.10891   0.28508   0.68702   0.00000  Uiso   1.00
H878   H     0.10894   0.24782   0.68738   0.00000  Uiso   1.00
H879   H     0.07687   0.29498   0.69304   0.00000  Uiso   1.00
H880   H     0.11501   0.29482   0.65241   0.00000  Uiso   1.00
O881   O     0.43988   0.20625   0.75000   0.00000  Uiso   1.00
O882   O     0.56012   0.12709   0.75001   0.00000  Uiso   1.00
O883   O     0.56012   0.20625   0.75001   0.00000  Uiso   1.00
O884   O     0.43988   0.12709   0.75000   0.00000  Uiso   1.00
C885   C     0.42084   0.16670   0.74982   0.00000  Uiso   1.00
C886   C     0.57917   0.16664   0.75020   0.00000  Uiso   1.00
O887   O     0.49999   0.20627   0.68513   0.00000  Uiso   1.00
O888   O     0.50001   0.12707   0.81487   0.00000  Uiso   1.00
O889   O     0.50001   0.20627   0.81487   0.00000  Uiso   1.00
O890   O     0.49999   0.12707   0.68513   0.00000  Uiso   1.00
C891   C     0.50067   0.16675   0.66466   0.00000  Uiso   1.00
C892   C     0.50002   0.16653   0.83531   0.00000  Uiso   1.00
Cu893  Cu    0.50000   0.21355   0.75000   0.00000  Uiso   1.00
Cu894  Cu    0.50000   0.11978   0.75000   0.00000  Uiso   1.00
C895   C     0.53663   0.17307   0.90940   0.00000  Uiso   1.00
C896   C     0.46874   0.14644   0.59090   0.00000  Uiso   1.00
C897   C     0.49958   0.16559   0.88360   0.00000  Uiso   1.00
C898   C     0.50196   0.16627   0.61630   0.00000  Uiso   1.00
C899   C     0.46337   0.15417   0.90332   0.00000  Uiso   1.00
C900   C     0.53663   0.18232   0.59605   0.00000  Uiso   1.00
C901   C     0.46604   0.14499   0.95006   0.00000  Uiso   1.00
C902   C     0.53963   0.17231   0.55012   0.00000  Uiso   1.00
C903   C     0.50279   0.15769   0.97666   0.00000  Uiso   1.00
C904   C     0.50344   0.15789   0.52362   0.00000  Uiso   1.00
C905   C     0.53874   0.17080   0.95622   0.00000  Uiso   1.00
C906   C     0.46777   0.14427   0.54417   0.00000  Uiso   1.00
C907   C     0.43372   0.12315   0.97110   0.00000  Uiso   1.00
C908   C     0.57745   0.17526   0.52989   0.00000  Uiso   1.00
C909   C     0.43280   0.12660   0.51802   0.00000  Uiso   1.00
C910   C     0.57651   0.17871   0.98275   0.00000  Uiso   1.00
C911   C     0.35484   0.12487   0.75112   0.00000  Uiso   1.00
C912   C     0.64518   0.20847   0.74906   0.00000  Uiso   1.00
C913   C     0.64556   0.12483   0.75123   0.00000  Uiso   1.00
C914   C     0.35446   0.20851   0.74897   0.00000  Uiso   1.00
C915   C     0.62387   0.16663   0.75019   0.00000  Uiso   1.00
C916   C     0.37615   0.16670   0.74995   0.00000  Uiso   1.00
C917   C     0.47299   0.02491   0.72062   0.00000  Uiso   1.00
C918   C     0.52703   0.30842   0.77935   0.00000  Uiso   1.00
C919   C     0.52701   0.02452   0.77937   0.00000  Uiso   1.00
C920   C     0.47300   0.30881   0.72062   0.00000  Uiso   1.00
N921   N     0.50000   0.28402   0.75000   0.00000  Uiso   1.00
N922   N     0.50000   0.04931   0.75000   0.00000  Uiso   1.00
H923   H     0.56359   0.18094   0.89206   0.00000  Uiso   1.00
H924   H     0.44321   0.13400   0.60839   0.00000  Uiso   1.00
C925   C     0.42230   0.15880   0.87500   0.00000  Uiso   1.00
H926   H     0.42241   0.19003   0.85348   0.00000  Uiso   1.00
H927   H     0.41683   0.12838   0.85297   0.00000  Uiso   1.00
H928   H     0.39611   0.16395   0.89568   0.00000  Uiso   1.00
C929   C     0.56718   0.21356   0.62257   0.00000  Uiso   1.00
H930   H     0.55041   0.24150   0.63842   0.00000  Uiso   1.00
H931   H     0.58571   0.19363   0.64905   0.00000  Uiso   1.00
H932   H     0.58788   0.23183   0.60113   0.00000  Uiso   1.00
C933   C     0.40498   0.08919   0.94564   0.00000  Uiso   1.00
H934   H     0.41713   0.07772   0.91414   0.00000  Uiso   1.00
H935   H     0.40266   0.05718   0.96568   0.00000  Uiso   1.00
H936   H     0.37358   0.10419   0.93838   0.00000  Uiso   1.00
C937   C     0.61841   0.16545   0.55695   0.00000  Uiso   1.00
H938   H     0.61425   0.15004   0.59014   0.00000  Uiso   1.00
H939   H     0.63598   0.13932   0.53947   0.00000  Uiso   1.00
H940   H     0.63722   0.19724   0.56139   0.00000  Uiso   1.00
C941   C     0.39479   0.11144   0.54024   0.00000  Uiso   1.00
H942   H     0.36820   0.10219   0.51618   0.00000  Uiso   1.00
H943   H     0.40250   0.08116   0.56221   0.00000  Uiso   1.00
H944   H     0.38375   0.14014   0.56045   0.00000  Uiso   1.00
C945   C     0.61566   0.18991   0.96066   0.00000  Uiso   1.00
H946   H     0.64258   0.19810   0.98468   0.00000  Uiso   1.00
H947   H     0.62431   0.16030   0.94011   0.00000  Uiso   1.00
H948   H     0.61042   0.22091   0.93906   0.00000  Uiso   1.00
H949   H     0.37098   0.09215   0.75199   0.00000  Uiso   1.00
H950   H     0.62904   0.24119   0.74818   0.00000  Uiso   1.00
H951   H     0.62972   0.09211   0.75212   0.00000  Uiso   1.00
H952   H     0.37030   0.24123   0.74809   0.00000  Uiso   1.00
C953   C     0.44212   0.04903   0.68704   0.00000  Uiso   1.00
H954   H     0.44202   0.08628   0.68731   0.00000  Uiso   1.00
H955   H     0.44814   0.03957   0.65240   0.00000  Uiso   1.00
H956   H     0.41011   0.03917   0.69315   0.00000  Uiso   1.00
C957   C     0.55796   0.28431   0.81287   0.00000  Uiso   1.00
H958   H     0.55799   0.24704   0.81271   0.00000  Uiso   1.00
H959   H     0.58994   0.29409   0.80661   0.00000  Uiso   1.00
H960   H     0.55206   0.29386   0.84752   0.00000  Uiso   1.00
C961   C     0.55776   0.04825   0.81298   0.00000  Uiso   1.00
H962   H     0.55774   0.08552   0.81261   0.00000  Uiso   1.00
H963   H     0.55164   0.03854   0.84759   0.00000  Uiso   1.00
H964   H     0.58980   0.03834   0.80699   0.00000  Uiso   1.00
C965   C     0.44225   0.28508   0.68702   0.00000  Uiso   1.00
H966   H     0.44228   0.24782   0.68738   0.00000  Uiso   1.00
H967   H     0.41021   0.29498   0.69304   0.00000  Uiso   1.00
H968   H     0.44835   0.29482   0.65241   0.00000  Uiso   1.00
O969   O     0.77321   0.20625   0.75000   0.00000  Uiso   1.00
O970   O     0.89345   0.12709   0.75001   0.00000  Uiso   1.00
O971   O     0.89345   0.20625   0.75001   0.00000  Uiso   1.00
O972   O     0.77321   0.12709   0.75000   0.00000  Uiso   1.00
C973   C     0.75417   0.16670   0.74982   0.00000  Uiso   1.00
C974   C     0.91250   0.16664   0.75020   0.00000  Uiso   1.00
O975   O     0.83332   0.20627   0.68513   0.00000  Uiso   1.00
O976   O     0.83334   0.12707   0.81487   0.00000  Uiso   1.00
O977   O     0.83334   0.20627   0.81487   0.00000  Uiso   1.00
O978   O     0.83332   0.12707   0.68513   0.00000  Uiso   1.00
C979   C     0.83400   0.16675   0.66466   0.00000  Uiso   1.00
C980   C     0.83335   0.16653   0.83531   0.00000  Uiso   1.00
Cu981  Cu    0.83333   0.21355   0.75000   0.00000  Uiso   1.00
Cu982  Cu    0.83333   0.11978   0.75000   0.00000  Uiso   1.00
C983   C     0.86997   0.17307   0.90940   0.00000  Uiso   1.00
C984   C     0.80208   0.14644   0.59090   0.00000  Uiso   1.00
C985   C     0.83291   0.16559   0.88360   0.00000  Uiso   1.00
C986   C     0.83529   0.16627   0.61630   0.00000  Uiso   1.00
C987   C     0.79670   0.15417   0.90332   0.00000  Uiso   1.00
C988   C     0.86997   0.18232   0.59605   0.00000  Uiso   1.00
C989   C     0.79937   0.14499   0.95006   0.00000  Uiso   1.00
C990   C     0.87297   0.17231   0.55012   0.00000  Uiso   1.00
C991   C     0.83613   0.15769   0.97666   0.00000  Uiso   1.00
C992   C     0.83678   0.15789   0.52362   0.00000  Uiso   1.00
C993   C     0.87207   0.17080   0.95622   0.00000  Uiso   1.00
C994   C     0.80111   0.14427   0.54417   0.00000  Uiso   1.00
C995   C     0.76705   0.12315   0.97110   0.00000  Uiso   1.00
C996   C     0.91078   0.17526   0.52989   0.00000  Uiso   1.00
C997   C     0.76614   0.12660   0.51802   0.00000  Uiso   1.00
C998   C     0.90985   0.17871   0.98275   0.00000  Uiso   1.00
C999   C     0.68817   0.12487   0.75112   0.00000  Uiso   1.00
C1000  C     0.97851   0.20847   0.74906   0.00000  Uiso   1.00
C1001  C     0.97889   0.12483   0.75123   0.00000  Uiso   1.00
C1002  C     0.68780   0.20851   0.74897   0.00000  Uiso   1.00
C1003  C     0.95720   0.16663   0.75019   0.00000  Uiso   1.00
C1004  C     0.70948   0.16670   0.74995   0.00000  Uiso   1.00
C1005  C     0.80632   0.02491   0.72062   0.00000  Uiso   1.00
C1006  C     0.86037   0.30842   0.77935   0.00000  Uiso   1.00
C1007  C     0.86034   0.02452   0.77937   0.00000  Uiso   1.00
C1008  C     0.80634   0.30881   0.72062   0.00000  Uiso   1.00
N1009  N     0.83333   0.28402   0.75000   0.00000  Uiso   1.00
N1010  N     0.83333   0.04931   0.75000   0.00000  Uiso   1.00
H1011  H     0.89693   0.18094   0.89206   0.00000  Uiso   1.00
H1012  H     0.77655   0.13400   0.60839   0.00000  Uiso   1.00
C1013  C     0.75563   0.15880   0.87500   0.00000  Uiso   1.00
H1014  H     0.75574   0.19003   0.85348   0.00000  Uiso   1.00
H1015  H     0.75016   0.12838   0.85297   0.00000  Uiso   1.00
H1016  H     0.72945   0.16395   0.89568   0.00000  Uiso   1.00
C1017  C     0.90052   0.21356   0.62257   0.00000  Uiso   1.00
H1018  H     0.88374   0.24150   0.63842   0.00000  Uiso   1.00
H1019  H     0.91904   0.19363   0.64905   0.00000  Uiso   1.00
H1020  H     0.92121   0.23183   0.60113   0.00000  Uiso   1.00
C1021  C     0.73832   0.08919   0.94564   0.00000  Uiso   1.00
H1022  H     0.75047   0.07772   0.91414   0.00000  Uiso   1.00
H1023  H     0.73599   0.05718   0.96568   0.00000  Uiso   1.00
H1024  H     0.70692   0.10419   0.93838   0.00000  Uiso   1.00
C1025  C     0.95174   0.16545   0.55695   0.00000  Uiso   1.00
H1026  H     0.94758   0.15004   0.59014   0.00000  Uiso   1.00
H1027  H     0.96931   0.13932   0.53947   0.00000  Uiso   1.00
H1028  H     0.97055   0.19724   0.56139   0.00000  Uiso   1.00
C1029  C     0.72812   0.11144   0.54024   0.00000  Uiso   1.00
H1030  H     0.70154   0.10219   0.51618   0.00000  Uiso   1.00
H1031  H     0.73584   0.08116   0.56221   0.00000  Uiso   1.00
H1032  H     0.71708   0.14014   0.56045   0.00000  Uiso   1.00
C1033  C     0.94899   0.18991   0.96066   0.00000  Uiso   1.00
H1034  H     0.97592   0.19810   0.98468   0.00000  Uiso   1.00
H1035  H     0.95765   0.16030   0.94011   0.00000  Uiso   1.00
H1036  H     0.94375   0.22091   0.93906   0.00000  Uiso   1.00
H1037  H     0.70431   0.09215   0.75199   0.00000  Uiso   1.00
H1038  H     0.96237   0.24119   0.74818   0.00000  Uiso   1.00
H1039  H     0.96305   0.09211   0.75212   0.00000  Uiso   1.00
H1040  H     0.70364   0.24123   0.74809   0.00000  Uiso   1.00
C1041  C     0.77545   0.04903   0.68704   0.00000  Uiso   1.00
H1042  H     0.77535   0.08628   0.68731   0.00000  Uiso   1.00
H1043  H     0.78148   0.03957   0.65240   0.00000  Uiso   1.00
H1044  H     0.74345   0.03917   0.69315   0.00000  Uiso   1.00
C1045  C     0.89129   0.28431   0.81287   0.00000  Uiso   1.00
H1046  H     0.89132   0.24704   0.81271   0.00000  Uiso   1.00
H1047  H     0.92328   0.29409   0.80661   0.00000  Uiso   1.00
H1048  H     0.88539   0.29386   0.84752   0.00000  Uiso   1.00
C1049  C     0.89109   0.04825   0.81298   0.00000  Uiso   1.00
H1050  H     0.89108   0.08552   0.81261   0.00000  Uiso   1.00
H1051  H     0.88497   0.03854   0.84759   0.00000  Uiso   1.00
H1052  H     0.92314   0.03834   0.80699   0.00000  Uiso   1.00
C1053  C     0.77558   0.28508   0.68702   0.00000  Uiso   1.00
H1054  H     0.77561   0.24782   0.68738   0.00000  Uiso   1.00
H1055  H     0.74354   0.29498   0.69304   0.00000  Uiso   1.00
H1056  H     0.78168   0.29482   0.65241   0.00000  Uiso   1.00
O1057  O     0.10655   0.53958   0.75000   0.00000  Uiso   1.00
O1058  O     0.22679   0.46042   0.75001   0.00000  Uiso   1.00
O1059  O     0.22679   0.53958   0.75001   0.00000  Uiso   1.00
O1060  O     0.10655   0.46042   0.75000   0.00000  Uiso   1.00
C1061  C     0.08750   0.50003   0.74982   0.00000  Uiso   1.00
C1062  C     0.24583   0.49997   0.75020   0.00000  Uiso   1.00
O1063  O     0.16666   0.53960   0.68513   0.00000  Uiso   1.00
O1064  O     0.16668   0.46040   0.81487   0.00000  Uiso   1.00
O1065  O     0.16668   0.53960   0.81487   0.00000  Uiso   1.00
O1066  O     0.16666   0.46040   0.68513   0.00000  Uiso   1.00
C1067  C     0.16734   0.50008   0.66466   0.00000  Uiso   1.00
C1068  C     0.16668   0.49986   0.83531   0.00000  Uiso   1.00
Cu1069 Cu    0.16667   0.54689   0.75000   0.00000  Uiso   1.00
Cu1070 Cu    0.16667   0.45311   0.75000   0.00000  Uiso   1.00
C1071  C     0.20330   0.50640   0.90940   0.00000  Uiso   1.00
C1072  C     0.13541   0.47977   0.59090   0.00000  Uiso   1.00
C1073  C     0.16624   0.49892   0.88360   0.00000  Uiso   1.00
C1074  C     0.16863   0.49961   0.61630   0.00000  Uiso   1.00
C1075  C     0.13004   0.48750   0.90332   0.00000  Uiso   1.00
C1076  C     0.20330   0.51565   0.59605   0.00000  Uiso   1.00
C1077  C     0.13271   0.47832   0.95006   0.00000  Uiso   1.00
C1078  C     0.20630   0.50565   0.55012   0.00000  Uiso   1.00
C1079  C     0.16946   0.49102   0.97666   0.00000  Uiso   1.00
C1080  C     0.17011   0.49122   0.52362   0.00000  Uiso   1.00
C1081  C     0.20541   0.50413   0.95622   0.00000  Uiso   1.00
C1082  C     0.13444   0.47760   0.54417   0.00000  Uiso   1.00
C1083  C     0.10038   0.45648   0.97110   0.00000  Uiso   1.00
C1084  C     0.24411   0.50860   0.52989   0.00000  Uiso   1.00
C1085  C     0.09947   0.45993   0.51802   0.00000  Uiso   1.00
C1086  C     0.24318   0.51204   0.98275   0.00000  Uiso   1.00
C1087  C     0.02151   0.45820   0.75112   0.00000  Uiso   1.00
C1088  C     0.31185   0.54181   0.74906   0.00000  Uiso   1.00
C1089  C     0.31223   0.45816   0.75123   0.00000  Uiso   1.00
C1090  C     0.02113   0.54184   0.74897   0.00000  Uiso   1.00
C1091  C     0.29053   0.49997   0.75019   0.00000  Uiso   1.00
C1092  C     0.04281   0.50004   0.74995   0.00000  Uiso   1.00
C1093  C     0.13965   0.35824   0.72062   0.00000  Uiso   1.00
C1094  C     0.19370   0.64176   0.77935   0.00000  Uiso   1.00
C1095  C     0.19367   0.35786   0.77937   0.00000  Uiso   1.00
C1096  C     0.13967   0.64214   0.72062   0.00000  Uiso   1.00
N1097  N     0.16667   0.61736   0.75000   0.00000  Uiso   1.00
N1098  N     0.16667   0.38264   0.75000   0.00000  Uiso   1.00
H1099  H     0.23026   0.51428   0.89206   0.00000  Uiso   1.00
H1100  H     0.10988   0.46733   0.60839   0.00000  Uiso   1.00
C1101  C     0.08897   0.49213   0.87500   0.00000  Uiso   1.00
H1102  H     0.08907   0.52337   0.85348   0.00000  Uiso   1.00
H1103  H     0.08350   0.46171   0.85297   0.00000  Uiso   1.00
H1104  H     0.06278   0.49728   0.89568   0.00000  Uiso   1.00
C1105  C     0.23385   0.54689   0.62257   0.00000  Uiso   1.00
H1106  H     0.21708   0.57484   0.63842   0.00000  Uiso   1.00
H1107  H     0.25238   0.52697   0.64905   0.00000  Uiso   1.00
H1108  H     0.25455   0.56517   0.60113   0.00000  Uiso   1.00
C1109  C     0.07165   0.42252   0.94564   0.00000  Uiso   1.00
H1110  H     0.08380   0.41105   0.91414   0.00000  Uiso   1.00
H1111  H     0.06933   0.39052   0.96568   0.00000  Uiso   1.00
H1112  H     0.04025   0.43752   0.93838   0.00000  Uiso   1.00
C1113  C     0.28508   0.49878   0.55695   0.00000  Uiso   1.00
H1114  H     0.28092   0.48337   0.59014   0.00000  Uiso   1.00
H1115  H     0.30265   0.47265   0.53947   0.00000  Uiso   1.00
H1116  H     0.30389   0.53058   0.56139   0.00000  Uiso   1.00
C1117  C     0.06145   0.44478   0.54024   0.00000  Uiso   1.00
H1118  H     0.03487   0.43552   0.51618   0.00000  Uiso   1.00
H1119  H     0.06917   0.41450   0.56221   0.00000  Uiso   1.00
H1120  H     0.05042   0.47348   0.56045   0.00000  Uiso   1.00
C1121  C     0.28233   0.52324   0.96066   0.00000  Uiso   1.00
H1122  H     0.30925   0.53143   0.98468   0.00000  Uiso   1.00
H1123  H     0.29098   0.49363   0.94011   0.00000  Uiso   1.00
H1124  H     0.27709   0.55424   0.93906   0.00000  Uiso   1.00
H1125  H     0.03765   0.42548   0.75199   0.00000  Uiso   1.00
H1126  H     0.29570   0.57452   0.74818   0.00000  Uiso   1.00
H1127  H     0.29639   0.42544   0.75212   0.00000  Uiso   1.00
H1128  H     0.03697   0.57457   0.74809   0.00000  Uiso   1.00
C1129  C     0.10878   0.38236   0.68704   0.00000  Uiso   1.00
H1130  H     0.10868   0.41962   0.68731   0.00000  Uiso   1.00
H1131  H     0.11481   0.37290   0.65240   0.00000  Uiso   1.00
H1132  H     0.07678   0.37250   0.69315   0.00000  Uiso   1.00
C1133  C     0.22463   0.61764   0.81287   0.00000  Uiso   1.00
H1134  H     0.22465   0.58038   0.81271   0.00000  Uiso   1.00
H1135  H     0.25661   0.62743   0.80661   0.00000  Uiso   1.00
H1136  H     0.21873   0.62719   0.84752   0.00000  Uiso   1.00
C1137  C     0.22443   0.38159   0.81298   0.00000  Uiso   1.00
H1138  H     0.22441   0.41885   0.81261   0.00000  Uiso   1.00
H1139  H     0.21831   0.37187   0.84759   0.00000  Uiso   1.00
H1140  H     0.25647   0.37167   0.80699   0.00000  Uiso   1.00
C1141  C     0.10891   0.61842   0.68702   0.00000  Uiso   1.00
H1142  H     0.10894   0.58116   0.68738   0.00000  Uiso   1.00
H1143  H     0.07687   0.62831   0.69304   0.00000  Uiso   1.00
H1144  H     0.11501   0.62816   0.65241   0.00000  Uiso   1.00
O1145  O     0.43988   0.53958   0.75000   0.00000  Uiso   1.00
O1146  O     0.56012   0.46042   0.75001   0.00000  Uiso   1.00
O1147  O     0.56012   0.53958   0.75001   0.00000  Uiso   1.00
O1148  O     0.43988   0.46042   0.75000   0.00000  Uiso   1.00
C1149  C     0.42084   0.50003   0.74982   0.00000  Uiso   1.00
C1150  C     0.57917   0.49997   0.75020   0.00000  Uiso   1.00
O1151  O     0.49999   0.53960   0.68513   0.00000  Uiso   1.00
O1152  O     0.50001   0.46040   0.81487   0.00000  Uiso   1.00
O1153  O     0.50001   0.53960   0.81487   0.00000  Uiso   1.00
O1154  O     0.49999   0.46040   0.68513   0.00000  Uiso   1.00
C1155  C     0.50067   0.50008   0.66466   0.00000  Uiso   1.00
C1156  C     0.50002   0.49986   0.83531   0.00000  Uiso   1.00
Cu1157 Cu    0.50000   0.54689   0.75000   0.00000  Uiso   1.00
Cu1158 Cu    0.50000   0.45311   0.75000   0.00000  Uiso   1.00
C1159  C     0.53663   0.50640   0.90940   0.00000  Uiso   1.00
C1160  C     0.46874   0.47977   0.59090   0.00000  Uiso   1.00
C1161  C     0.49958   0.49892   0.88360   0.00000  Uiso   1.00
C1162  C     0.50196   0.49961   0.61630   0.00000  Uiso   1.00
C1163  C     0.46337   0.48750   0.90332   0.00000  Uiso   1.00
C1164  C     0.53663   0.51565   0.59605   0.00000  Uiso   1.00
C1165  C     0.46604   0.47832   0.95006   0.00000  Uiso   1.00
C1166  C     0.53963   0.50565   0.55012   0.00000  Uiso   1.00
C1167  C     0.50279   0.49102   0.97666   0.00000  Uiso   1.00
C1168  C     0.50344   0.49122   0.52362   0.00000  Uiso   1.00
C1169  C     0.53874   0.50413   0.95622   0.00000  Uiso   1.00
C1170  C     0.46777   0.47760   0.54417   0.00000  Uiso   1.00
C1171  C     0.43372   0.45648   0.97110   0.00000  Uiso   1.00
C1172  C     0.57745   0.50860   0.52989   0.00000  Uiso   1.00
C1173  C     0.43280   0.45993   0.51802   0.00000  Uiso   1.00
C1174  C     0.57651   0.51204   0.98275   0.00000  Uiso   1.00
C1175  C     0.35484   0.45820   0.75112   0.00000  Uiso   1.00
C1176  C     0.64518   0.54181   0.74906   0.00000  Uiso   1.00
C1177  C     0.64556   0.45816   0.75123   0.00000  Uiso   1.00
C1178  C     0.35446   0.54184   0.74897   0.00000  Uiso   1.00
C1179  C     0.62387   0.49997   0.75019   0.00000  Uiso   1.00
C1180  C     0.37615   0.50004   0.74995   0.00000  Uiso   1.00
C1181  C     0.47299   0.35824   0.72062   0.00000  Uiso   1.00
C1182  C     0.52703   0.64176   0.77935   0.00000  Uiso   1.00
C1183  C     0.52701   0.35786   0.77937   0.00000  Uiso   1.00
C1184  C     0.47300   0.64214   0.72062   0.00000  Uiso   1.00
N1185  N     0.50000   0.61736   0.75000   0.00000  Uiso   1.00
N1186  N     0.50000   0.38264   0.75000   0.00000  Uiso   1.00
H1187  H     0.56359   0.51428   0.89206   0.00000  Uiso   1.00
H1188  H     0.44321   0.46733   0.60839   0.00000  Uiso   1.00
C1189  C     0.42230   0.49213   0.87500   0.00000  Uiso   1.00
H1190  H     0.42241   0.52337   0.85348   0.00000  Uiso   1.00
H1191  H     0.41683   0.46171   0.85297   0.00000  Uiso   1.00
H1192  H     0.39611   0.49728   0.89568   0.00000  Uiso   1.00
C1193  C     0.56718   0.54689   0.62257   0.00000  Uiso   1.00
H1194  H     0.55041   0.57484   0.63842   0.00000  Uiso   1.00
H1195  H     0.58571   0.52697   0.64905   0.00000  Uiso   1.00
H1196  H     0.58788   0.56517   0.60113   0.00000  Uiso   1.00
C1197  C     0.40498   0.42252   0.94564   0.00000  Uiso   1.00
H1198  H     0.41713   0.41105   0.91414   0.00000  Uiso   1.00
H1199  H     0.40266   0.39052   0.96568   0.00000  Uiso   1.00
H1200  H     0.37358   0.43752   0.93838   0.00000  Uiso   1.00
C1201  C     0.61841   0.49878   0.55695   0.00000  Uiso   1.00
H1202  H     0.61425   0.48337   0.59014   0.00000  Uiso   1.00
H1203  H     0.63598   0.47265   0.53947   0.00000  Uiso   1.00
H1204  H     0.63722   0.53058   0.56139   0.00000  Uiso   1.00
C1205  C     0.39479   0.44478   0.54024   0.00000  Uiso   1.00
H1206  H     0.36820   0.43552   0.51618   0.00000  Uiso   1.00
H1207  H     0.40250   0.41450   0.56221   0.00000  Uiso   1.00
H1208  H     0.38375   0.47348   0.56045   0.00000  Uiso   1.00
C1209  C     0.61566   0.52324   0.96066   0.00000  Uiso   1.00
H1210  H     0.64258   0.53143   0.98468   0.00000  Uiso   1.00
H1211  H     0.62431   0.49363   0.94011   0.00000  Uiso   1.00
H1212  H     0.61042   0.55424   0.93906   0.00000  Uiso   1.00
H1213  H     0.37098   0.42548   0.75199   0.00000  Uiso   1.00
H1214  H     0.62904   0.57452   0.74818   0.00000  Uiso   1.00
H1215  H     0.62972   0.42544   0.75212   0.00000  Uiso   1.00
H1216  H     0.37030   0.57457   0.74809   0.00000  Uiso   1.00
C1217  C     0.44212   0.38236   0.68704   0.00000  Uiso   1.00
H1218  H     0.44202   0.41962   0.68731   0.00000  Uiso   1.00
H1219  H     0.44814   0.37290   0.65240   0.00000  Uiso   1.00
H1220  H     0.41011   0.37250   0.69315   0.00000  Uiso   1.00
C1221  C     0.55796   0.61764   0.81287   0.00000  Uiso   1.00
H1222  H     0.55799   0.58038   0.81271   0.00000  Uiso   1.00
H1223  H     0.58994   0.62743   0.80661   0.00000  Uiso   1.00
H1224  H     0.55206   0.62719   0.84752   0.00000  Uiso   1.00
C1225  C     0.55776   0.38159   0.81298   0.00000  Uiso   1.00
H1226  H     0.55774   0.41885   0.81261   0.00000  Uiso   1.00
H1227  H     0.55164   0.37187   0.84759   0.00000  Uiso   1.00
H1228  H     0.58980   0.37167   0.80699   0.00000  Uiso   1.00
C1229  C     0.44225   0.61842   0.68702   0.00000  Uiso   1.00
H1230  H     0.44228   0.58116   0.68738   0.00000  Uiso   1.00
H1231  H     0.41021   0.62831   0.69304   0.00000  Uiso   1.00
H1232  H     0.44835   0.62816   0.65241   0.00000  Uiso   1.00
O1233  O     0.77321   0.53958   0.75000   0.00000  Uiso   1.00
O1234  O     0.89345   0.46042   0.75001   0.00000  Uiso   1.00
O1235  O     0.89345   0.53958   0.75001   0.00000  Uiso   1.00
O1236  O     0.77321   0.46042   0.75000   0.00000  Uiso   1.00
C1237  C     0.75417   0.50003   0.74982   0.00000  Uiso   1.00
C1238  C     0.91250   0.49997   0.75020   0.00000  Uiso   1.00
O1239  O     0.83332   0.53960   0.68513   0.00000  Uiso   1.00
O1240  O     0.83334   0.46040   0.81487   0.00000  Uiso   1.00
O1241  O     0.83334   0.53960   0.81487   0.00000  Uiso   1.00
O1242  O     0.83332   0.46040   0.68513   0.00000  Uiso   1.00
C1243  C     0.83400   0.50008   0.66466   0.00000  Uiso   1.00
C1244  C     0.83335   0.49986   0.83531   0.00000  Uiso   1.00
Cu1245 Cu    0.83333   0.54689   0.75000   0.00000  Uiso   1.00
Cu1246 Cu    0.83333   0.45311   0.75000   0.00000  Uiso   1.00
C1247  C     0.86997   0.50640   0.90940   0.00000  Uiso   1.00
C1248  C     0.80208   0.47977   0.59090   0.00000  Uiso   1.00
C1249  C     0.83291   0.49892   0.88360   0.00000  Uiso   1.00
C1250  C     0.83529   0.49961   0.61630   0.00000  Uiso   1.00
C1251  C     0.79670   0.48750   0.90332   0.00000  Uiso   1.00
C1252  C     0.86997   0.51565   0.59605   0.00000  Uiso   1.00
C1253  C     0.79937   0.47832   0.95006   0.00000  Uiso   1.00
C1254  C     0.87297   0.50565   0.55012   0.00000  Uiso   1.00
C1255  C     0.83613   0.49102   0.97666   0.00000  Uiso   1.00
C1256  C     0.83678   0.49122   0.52362   0.00000  Uiso   1.00
C1257  C     0.87207   0.50413   0.95622   0.00000  Uiso   1.00
C1258  C     0.80111   0.47760   0.54417   0.00000  Uiso   1.00
C1259  C     0.76705   0.45648   0.97110   0.00000  Uiso   1.00
C1260  C     0.91078   0.50860   0.52989   0.00000  Uiso   1.00
C1261  C     0.76614   0.45993   0.51802   0.00000  Uiso   1.00
C1262  C     0.90985   0.51204   0.98275   0.00000  Uiso   1.00
C1263  C     0.68817   0.45820   0.75112   0.00000  Uiso   1.00
C1264  C     0.97851   0.54181   0.74906   0.00000  Uiso   1.00
C1265  C     0.97889   0.45816   0.75123   0.00000  Uiso   1.00
C1266  C     0.68780   0.54184   0.74897   0.00000  Uiso   1.00
C1267  C     0.95720   0.49997   0.75019   0.00000  Uiso   1.00
C1268  C     0.70948   0.50004   0.74995   0.00000  Uiso   1.00
C1269  C     0.80632   0.35824   0.72062   0.00000  Uiso   1.00
C1270  C     0.86037   0.64176   0.77935   0.00000  Uiso   1.00
C1271  C     0.86034   0.35786   0.77937   0.00000  Uiso   1.00
C1272  C     0.80634   0.64214   0.72062   0.00000  Uiso   1.00
N1273  N     0.83333   0.61736   0.75000   0.00000  Uiso   1.00
N1274  N     0.83333   0.38264   0.75000   0.00000  Uiso   1.00
H1275  H     0.89693   0.51428   0.89206   0.00000  Uiso   1.00
H1276  H     0.77655   0.46733   0.60839   0.00000  Uiso   1.00
C1277  C     0.75563   0.49213   0.87500   0.00000  Uiso   1.00
H1278  H     0.75574   0.52337   0.85348   0.00000  Uiso   1.00
H1279  H     0.75016   0.46171   0.85297   0.00000  Uiso   1.00
H1280  H     0.72945   0.49728   0.89568   0.00000  Uiso   1.00
C1281  C     0.90052   0.54689   0.62257   0.00000  Uiso   1.00
H1282  H     0.88374   0.57484   0.63842   0.00000  Uiso   1.00
H1283  H     0.91904   0.52697   0.64905   0.00000  Uiso   1.00
H1284  H     0.92121   0.56517   0.60113   0.00000  Uiso   1.00
C1285  C     0.73832   0.42252   0.94564   0.00000  Uiso   1.00
H1286  H     0.75047   0.41105   0.91414   0.00000  Uiso   1.00
H1287  H     0.73599   0.39052   0.96568   0.00000  Uiso   1.00
H1288  H     0.70692   0.43752   0.93838   0.00000  Uiso   1.00
C1289  C     0.95174   0.49878   0.55695   0.00000  Uiso   1.00
H1290  H     0.94758   0.48337   0.59014   0.00000  Uiso   1.00
H1291  H     0.96931   0.47265   0.53947   0.00000  Uiso   1.00
H1292  H     0.97055   0.53058   0.56139   0.00000  Uiso   1.00
C1293  C     0.72812   0.44478   0.54024   0.00000  Uiso   1.00
H1294  H     0.70154   0.43552   0.51618   0.00000  Uiso   1.00
H1295  H     0.73584   0.41450   0.56221   0.00000  Uiso   1.00
H1296  H     0.71708   0.47348   0.56045   0.00000  Uiso   1.00
C1297  C     0.94899   0.52324   0.96066   0.00000  Uiso   1.00
H1298  H     0.97592   0.53143   0.98468   0.00000  Uiso   1.00
H1299  H     0.95765   0.49363   0.94011   0.00000  Uiso   1.00
H1300  H     0.94375   0.55424   0.93906   0.00000  Uiso   1.00
H1301  H     0.70431   0.42548   0.75199   0.00000  Uiso   1.00
H1302  H     0.96237   0.57452   0.74818   0.00000  Uiso   1.00
H1303  H     0.96305   0.42544   0.75212   0.00000  Uiso   1.00
H1304  H     0.70364   0.57457   0.74809   0.00000  Uiso   1.00
C1305  C     0.77545   0.38236   0.68704   0.00000  Uiso   1.00
H1306  H     0.77535   0.41962   0.68731   0.00000  Uiso   1.00
H1307  H     0.78148   0.37290   0.65240   0.00000  Uiso   1.00
H1308  H     0.74345   0.37250   0.69315   0.00000  Uiso   1.00
C1309  C     0.89129   0.61764   0.81287   0.00000  Uiso   1.00
H1310  H     0.89132   0.58038   0.81271   0.00000  Uiso   1.00
H1311  H     0.92328   0.62743   0.80661   0.00000  Uiso   1.00
H1312  H     0.88539   0.62719   0.84752   0.00000  Uiso   1.00
C1313  C     0.89109   0.38159   0.81298   0.00000  Uiso   1.00
H1314  H     0.89108   0.41885   0.81261   0.00000  Uiso   1.00
H1315  H     0.88497   0.37187   0.84759   0.00000  Uiso   1.00
H1316  H     0.92314   0.37167   0.80699   0.00000  Uiso   1.00
C1317  C     0.77558   0.61842   0.68702   0.00000  Uiso   1.00
H1318  H     0.77561   0.58116   0.68738   0.00000  Uiso   1.00
H1319  H     0.74354   0.62831   0.69304   0.00000  Uiso   1.00
H1320  H     0.78168   0.62816   0.65241   0.00000  Uiso   1.00
O1321  O     0.10655   0.87291   0.75000   0.00000  Uiso   1.00
O1322  O     0.22679   0.79375   0.75001   0.00000  Uiso   1.00
O1323  O     0.22679   0.87291   0.75001   0.00000  Uiso   1.00
O1324  O     0.10655   0.79375   0.75000   0.00000  Uiso   1.00
C1325  C     0.08750   0.83336   0.74982   0.00000  Uiso   1.00
C1326  C     0.24583   0.83330   0.75020   0.00000  Uiso   1.00
O1327  O     0.16666   0.87293   0.68513   0.00000  Uiso   1.00
O1328  O     0.16668   0.79373   0.81487   0.00000  Uiso   1.00
O1329  O     0.16668   0.87293   0.81487   0.00000  Uiso   1.00
O1330  O     0.16666   0.79373   0.68513   0.00000  Uiso   1.00
C1331  C     0.16734   0.83342   0.66466   0.00000  Uiso   1.00
C1332  C     0.16668   0.83319   0.83531   0.00000  Uiso   1.00
Cu1333 Cu    0.16667   0.88022   0.75000   0.00000  Uiso   1.00
Cu1334 Cu    0.16667   0.78645   0.75000   0.00000  Uiso   1.00
C1335  C     0.20330   0.83974   0.90940   0.00000  Uiso   1.00
C1336  C     0.13541   0.81311   0.59090   0.00000  Uiso   1.00
C1337  C     0.16624   0.83226   0.88360   0.00000  Uiso   1.00
C1338  C     0.16863   0.83294   0.61630   0.00000  Uiso   1.00
C1339  C     0.13004   0.82084   0.90332   0.00000  Uiso   1.00
C1340  C     0.20330   0.84898   0.59605   0.00000  Uiso   1.00
C1341  C     0.13271   0.81166   0.95006   0.00000  Uiso   1.00
C1342  C     0.20630   0.83898   0.55012   0.00000  Uiso   1.00
C1343  C     0.16946   0.82436   0.97666   0.00000  Uiso   1.00
C1344  C     0.17011   0.82455   0.52362   0.00000  Uiso   1.00
C1345  C     0.20541   0.83746   0.95622   0.00000  Uiso   1.00
C1346  C     0.13444   0.81094   0.54417   0.00000  Uiso   1.00
C1347  C     0.10038   0.78982   0.97110   0.00000  Uiso   1.00
C1348  C     0.24411   0.84193   0.52989   0.00000  Uiso   1.00
C1349  C     0.09947   0.79327   0.51802   0.00000  Uiso   1.00
C1350  C     0.24318   0.84537   0.98275   0.00000  Uiso   1.00
C1351  C     0.02151   0.79153   0.75112   0.00000  Uiso   1.00
C1352  C     0.31185   0.87514   0.74906   0.00000  Uiso   1.00
C1353  C     0.31223   0.79150   0.75123   0.00000  Uiso   1.00
C1354  C     0.02113   0.87517   0.74897   0.00000  Uiso   1.00
C1355  C     0.29053   0.83330   0.75019   0.00000  Uiso   1.00
C1356  C     0.04281   0.83337   0.74995   0.00000  Uiso   1.00
C1357  C     0.13965   0.69158   0.72062   0.00000  Uiso   1.00
C1358  C     0.19370   0.97509   0.77935   0.00000  Uiso   1.00
C1359  C     0.19367   0.69119   0.77937   0.00000  Uiso   1.00
C1360  C     0.13967   0.97548   0.72062   0.00000  Uiso   1.00
N1361  N     0.16667   0.95069   0.75000   0.00000  Uiso   1.00
N1362  N     0.16667   0.71598   0.75000   0.00000  Uiso   1.00
H1363  H     0.23026   0.84761   0.89206   0.00000  Uiso   1.00
H1364  H     0.10988   0.80067   0.60839   0.00000  Uiso   1.00
C1365  C     0.08897   0.82547   0.87500   0.00000  Uiso   1.00
H1366  H     0.08907   0.85670   0.85348   0.00000  Uiso   1.00
H1367  H     0.08350   0.79504   0.85297   0.00000  Uiso   1.00
H1368  H     0.06278   0.83062   0.89568   0.00000  Uiso   1.00
C1369  C     0.23385   0.88022   0.62257   0.00000  Uiso   1.00
H1370  H     0.21708   0.90817   0.63842   0.00000  Uiso   1.00
H1371  H     0.25238   0.86030   0.64905   0.00000  Uiso   1.00
H1372  H     0.25455   0.89850   0.60113   0.00000  Uiso   1.00
C1373  C     0.07165   0.75585   0.94564   0.00000  Uiso   1.00
H1374  H     0.08380   0.74439   0.91414   0.00000  Uiso   1.00
H1375  H     0.06933   0.72385   0.96568   0.00000  Uiso   1.00
H1376  H     0.04025   0.77086   0.93838   0.00000  Uiso   1.00
C1377  C     0.28508   0.83212   0.55695   0.00000  Uiso   1.00
H1378  H     0.28092   0.81671   0.59014   0.00000  Uiso   1.00
H1379  H     0.30265   0.80598   0.53947   0.00000  Uiso   1.00
H1380  H     0.30389   0.86391   0.56139   0.00000  Uiso   1.00
C1381  C     0.06145   0.77811   0.54024   0.00000  Uiso   1.00
H1382  H     0.03487   0.76886   0.51618   0.00000  Uiso   1.00
H1383  H     0.06917   0.74783   0.56221   0.00000  Uiso   1.00
H1384  H     0.05042   0.80681   0.56045   0.00000  Uiso   1.00
C1385  C     0.28233   0.85658   0.96066   0.00000  Uiso   1.00
H1386  H     0.30925   0.86477   0.98468   0.00000  Uiso   1.00
H1387  H     0.29098   0.82696   0.94011   0.00000  Uiso   1.00
H1388  H     0.27709   0.88757   0.93906   0.00000  Uiso   1.00
H1389  H     0.03765   0.75882   0.75199   0.00000  Uiso   1.00
H1390  H     0.29570   0.90786   0.74818   0.00000  Uiso   1.00
H1391  H     0.29639   0.75877   0.75212   0.00000  Uiso   1.00
H1392  H     0.03697   0.90790   0.74809   0.00000  Uiso   1.00
C1393  C     0.10878   0.71569   0.68704   0.00000  Uiso   1.00
H1394  H     0.10868   0.75295   0.68731   0.00000  Uiso   1.00
H1395  H     0.11481   0.70624   0.65240   0.00000  Uiso   1.00
H1396  H     0.07678   0.70584   0.69315   0.00000  Uiso   1.00
C1397  C     0.22463   0.95097   0.81287   0.00000  Uiso   1.00
H1398  H     0.22465   0.91371   0.81271   0.00000  Uiso   1.00
H1399  H     0.25661   0.96076   0.80661   0.00000  Uiso   1.00
H1400  H     0.21873   0.96052   0.84752   0.00000  Uiso   1.00
C1401  C     0.22443   0.71492   0.81298   0.00000  Uiso   1.00
H1402  H     0.22441   0.75218   0.81261   0.00000  Uiso   1.00
H1403  H     0.21831   0.70520   0.84759   0.00000  Uiso   1.00
H1404  H     0.25647   0.70500   0.80699   0.00000  Uiso   1.00
C1405  C     0.10891   0.95175   0.68702   0.00000  Uiso   1.00
H1406  H     0.10894   0.91449   0.68738   0.00000  Uiso   1.00
H1407  H     0.07687   0.96165   0.69304   0.00000  Uiso   1.00
H1408  H     0.11501   0.96149   0.65241   0.00000  Uiso   1.00
O1409  O     0.43988   0.87291   0.75000   0.00000  Uiso   1.00
O1410  O     0.56012   0.79375   0.75001   0.00000  Uiso   1.00
O1411  O     0.56012   0.87291   0.75001   0.00000  Uiso   1.00
O1412  O     0.43988   0.79375   0.75000   0.00000  Uiso   1.00
C1413  C     0.42084   0.83336   0.74982   0.00000  Uiso   1.00
C1414  C     0.57917   0.83330   0.75020   0.00000  Uiso   1.00
O1415  O     0.49999   0.87293   0.68513   0.00000  Uiso   1.00
O1416  O     0.50001   0.79373   0.81487   0.00000  Uiso   1.00
O1417  O     0.50001   0.87293   0.81487   0.00000  Uiso   1.00
O1418  O     0.49999   0.79373   0.68513   0.00000  Uiso   1.00
C1419  C     0.50067   0.83342   0.66466   0.00000  Uiso   1.00
C1420  C     0.50002   0.83319   0.83531   0.00000  Uiso   1.00
Cu1421 Cu    0.50000   0.88022   0.75000   0.00000  Uiso   1.00
Cu1422 Cu    0.50000   0.78645   0.75000   0.00000  Uiso   1.00
C1423  C     0.53663   0.83974   0.90940   0.00000  Uiso   1.00
C1424  C     0.46874   0.81311   0.59090   0.00000  Uiso   1.00
C1425  C     0.49958   0.83226   0.88360   0.00000  Uiso   1.00
C1426  C     0.50196   0.83294   0.61630   0.00000  Uiso   1.00
C1427  C     0.46337   0.82084   0.90332   0.00000  Uiso   1.00
C1428  C     0.53663   0.84898   0.59605   0.00000  Uiso   1.00
C1429  C     0.46604   0.81166   0.95006   0.00000  Uiso   1.00
C1430  C     0.53963   0.83898   0.55012   0.00000  Uiso   1.00
C1431  C     0.50279   0.82436   0.97666   0.00000  Uiso   1.00
C1432  C     0.50344   0.82455   0.52362   0.00000  Uiso   1.00
C1433  C     0.53874   0.83746   0.95622   0.00000  Uiso   1.00
C1434  C     0.46777   0.81094   0.54417   0.00000  Uiso   1.00
C1435  C     0.43372   0.78982   0.97110   0.00000  Uiso   1.00
C1436  C     0.57745   0.84193   0.52989   0.00000  Uiso   1.00
C1437  C     0.43280   0.79327   0.51802   0.00000  Uiso   1.00
C1438  C     0.57651   0.84537   0.98275   0.00000  Uiso   1.00
C1439  C     0.35484   0.79153   0.75112   0.00000  Uiso   1.00
C1440  C     0.64518   0.87514   0.74906   0.00000  Uiso   1.00
C1441  C     0.64556   0.79150   0.75123   0.00000  Uiso   1.00
C1442  C     0.35446   0.87517   0.74897   0.00000  Uiso   1.00
C1443  C     0.62387   0.83330   0.75019   0.00000  Uiso   1.00
C1444  C     0.37615   0.83337   0.74995   0.00000  Uiso   1.00
C1445  C     0.47299   0.69158   0.72062   0.00000  Uiso   1.00
C1446  C     0.52703   0.97509   0.77935   0.00000  Uiso   1.00
C1447  C     0.52701   0.69119   0.77937   0.00000  Uiso   1.00
C1448  C     0.47300   0.97548   0.72062   0.00000  Uiso   1.00
N1449  N     0.50000   0.95069   0.75000   0.00000  Uiso   1.00
N1450  N     0.50000   0.71598   0.75000   0.00000  Uiso   1.00
H1451  H     0.56359   0.84761   0.89206   0.00000  Uiso   1.00
H1452  H     0.44321   0.80067   0.60839   0.00000  Uiso   1.00
C1453  C     0.42230   0.82547   0.87500   0.00000  Uiso   1.00
H1454  H     0.42241   0.85670   0.85348   0.00000  Uiso   1.00
H1455  H     0.41683   0.79504   0.85297   0.00000  Uiso   1.00
H1456  H     0.39611   0.83062   0.89568   0.00000  Uiso   1.00
C1457  C     0.56718   0.88022   0.62257   0.00000  Uiso   1.00
H1458  H     0.55041   0.90817   0.63842   0.00000  Uiso   1.00
H1459  H     0.58571   0.86030   0.64905   0.00000  Uiso   1.00
H1460  H     0.58788   0.89850   0.60113   0.00000  Uiso   1.00
C1461  C     0.40498   0.75585   0.94564   0.00000  Uiso   1.00
H1462  H     0.41713   0.74439   0.91414   0.00000  Uiso   1.00
H1463  H     0.40266   0.72385   0.96568   0.00000  Uiso   1.00
H1464  H     0.37358   0.77086   0.93838   0.00000  Uiso   1.00
C1465  C     0.61841   0.83212   0.55695   0.00000  Uiso   1.00
H1466  H     0.61425   0.81671   0.59014   0.00000  Uiso   1.00
H1467  H     0.63598   0.80598   0.53947   0.00000  Uiso   1.00
H1468  H     0.63722   0.86391   0.56139   0.00000  Uiso   1.00
C1469  C     0.39479   0.77811   0.54024   0.00000  Uiso   1.00
H1470  H     0.36820   0.76886   0.51618   0.00000  Uiso   1.00
H1471  H     0.40250   0.74783   0.56221   0.00000  Uiso   1.00
H1472  H     0.38375   0.80681   0.56045   0.00000  Uiso   1.00
C1473  C     0.61566   0.85658   0.96066   0.00000  Uiso   1.00
H1474  H     0.64258   0.86477   0.98468   0.00000  Uiso   1.00
H1475  H     0.62431   0.82696   0.94011   0.00000  Uiso   1.00
H1476  H     0.61042   0.88757   0.93906   0.00000  Uiso   1.00
H1477  H     0.37098   0.75882   0.75199   0.00000  Uiso   1.00
H1478  H     0.62904   0.90786   0.74818   0.00000  Uiso   1.00
H1479  H     0.62972   0.75877   0.75212   0.00000  Uiso   1.00
H1480  H     0.37030   0.90790   0.74809   0.00000  Uiso   1.00
C1481  C     0.44212   0.71569   0.68704   0.00000  Uiso   1.00
H1482  H     0.44202   0.75295   0.68731   0.00000  Uiso   1.00
H1483  H     0.44814   0.70624   0.65240   0.00000  Uiso   1.00
H1484  H     0.41011   0.70584   0.69315   0.00000  Uiso   1.00
C1485  C     0.55796   0.95097   0.81287   0.00000  Uiso   1.00
H1486  H     0.55799   0.91371   0.81271   0.00000  Uiso   1.00
H1487  H     0.58994   0.96076   0.80661   0.00000  Uiso   1.00
H1488  H     0.55206   0.96052   0.84752   0.00000  Uiso   1.00
C1489  C     0.55776   0.71492   0.81298   0.00000  Uiso   1.00
H1490  H     0.55774   0.75218   0.81261   0.00000  Uiso   1.00
H1491  H     0.55164   0.70520   0.84759   0.00000  Uiso   1.00
H1492  H     0.58980   0.70500   0.80699   0.00000  Uiso   1.00
C1493  C     0.44225   0.95175   0.68702   0.00000  Uiso   1.00
H1494  H     0.44228   0.91449   0.68738   0.00000  Uiso   1.00
H1495  H     0.41021   0.96165   0.69304   0.00000  Uiso   1.00
H1496  H     0.44835   0.96149   0.65241   0.00000  Uiso   1.00
O1497  O     0.77321   0.87291   0.75000   0.00000  Uiso   1.00
O1498  O     0.89345   0.79375   0.75001   0.00000  Uiso   1.00
O1499  O     0.89345   0.87291   0.75001   0.00000  Uiso   1.00
O1500  O     0.77321   0.79375   0.75000   0.00000  Uiso   1.00
C1501  C     0.75417   0.83336   0.74982   0.00000  Uiso   1.00
C1502  C     0.91250   0.83330   0.75020   0.00000  Uiso   1.00
O1503  O     0.83332   0.87293   0.68513   0.00000  Uiso   1.00
O1504  O     0.83334   0.79373   0.81487   0.00000  Uiso   1.00
O1505  O     0.83334   0.87293   0.81487   0.00000  Uiso   1.00
O1506  O     0.83332   0.79373   0.68513   0.00000  Uiso   1.00
C1507  C     0.83400   0.83342   0.66466   0.00000  Uiso   1.00
C1508  C     0.83335   0.83319   0.83531   0.00000  Uiso   1.00
Cu1509 Cu    0.83333   0.88022   0.75000   0.00000  Uiso   1.00
Cu1510 Cu    0.83333   0.78645   0.75000   0.00000  Uiso   1.00
C1511  C     0.86997   0.83974   0.90940   0.00000  Uiso   1.00
C1512  C     0.80208   0.81311   0.59090   0.00000  Uiso   1.00
C1513  C     0.83291   0.83226   0.88360   0.00000  Uiso   1.00
C1514  C     0.83529   0.83294   0.61630   0.00000  Uiso   1.00
C1515  C     0.79670   0.82084   0.90332   0.00000  Uiso   1.00
C1516  C     0.86997   0.84898   0.59605   0.00000  Uiso   1.00
C1517  C     0.79937   0.81166   0.95006   0.00000  Uiso   1.00
C1518  C     0.87297   0.83898   0.55012   0.00000  Uiso   1.00
C1519  C     0.83613   0.82436   0.97666   0.00000  Uiso   1.00
C1520  C     0.83678   0.82455   0.52362   0.00000  Uiso   1.00
C1521  C     0.87207   0.83746   0.95622   0.00000  Uiso   1.00
C1522  C     0.80111   0.81094   0.54417   0.00000  Uiso   1.00
C1523  C     0.76705   0.78982   0.97110   0.00000  Uiso   1.00
C1524  C     0.91078   0.84193   0.52989   0.00000  Uiso   1.00
C1525  C     0.76614   0.79327   0.51802   0.00000  Uiso   1.00
C1526  C     0.90985   0.84537   0.98275   0.00000  Uiso   1.00
C1527  C     0.68817   0.79153   0.75112   0.00000  Uiso   1.00
C1528  C     0.97851   0.87514   0.74906   0.00000  Uiso   1.00
C1529  C     0.97889   0.79150   0.75123   0.00000  Uiso   1.00
C1530  C     0.68780   0.87517   0.74897   0.00000  Uiso   1.00
C1531  C     0.95720   0.83330   0.75019   0.00000  Uiso   1.00
C1532  C     0.70948   0.83337   0.74995   0.00000  Uiso   1.00
C1533  C     0.80632   0.69158   0.72062   0.00000  Uiso   1.00
C1534  C     0.86037   0.97509   0.77935   0.00000  Uiso   1.00
C1535  C     0.86034   0.69119   0.77937   0.00000  Uiso   1.00
C1536  C     0.80634   0.97548   0.72062   0.00000  Uiso   1.00
N1537  N     0.83333   0.95069   0.75000   0.00000  Uiso   1.00
N1538  N     0.83333   0.71598   0.75000   0.00000  Uiso   1.00
H1539  H     0.89693   0.84761   0.89206   0.00000  Uiso   1.00
H1540  H     0.77655   0.80067   0.60839   0.00000  Uiso   1.00
C1541  C     0.75563   0.82547   0.87500   0.00000  Uiso   1.00
H1542  H     0.75574   0.85670   0.85348   0.00000  Uiso   1.00
H1543  H     0.75016   0.79504   0.85297   0.00000  Uiso   1.00
H1544  H     0.72945   0.83062   0.89568   0.00000  Uiso   1.00
C1545  C     0.90052   0.88022   0.62257   0.00000  Uiso   1.00
H1546  H     0.88374   0.90817   0.63842   0.00000  Uiso   1.00
H1547  H     0.91904   0.86030   0.64905   0.00000  Uiso   1.00
H1548  H     0.92121   0.89850   0.60113   0.00000  Uiso   1.00
C1549  C     0.73832   0.75585   0.94564   0.00000  Uiso   1.00
H1550  H     0.75047   0.74439   0.91414   0.00000  Uiso   1.00
H1551  H     0.73599   0.72385   0.96568   0.00000  Uiso   1.00
H1552  H     0.70692   0.77086   0.93838   0.00000  Uiso   1.00
C1553  C     0.95174   0.83212   0.55695   0.00000  Uiso   1.00
H1554  H     0.94758   0.81671   0.59014   0.00000  Uiso   1.00
H1555  H     0.96931   0.80598   0.53947   0.00000  Uiso   1.00
H1556  H     0.97055   0.86391   0.56139   0.00000  Uiso   1.00
C1557  C     0.72812   0.77811   0.54024   0.00000  Uiso   1.00
H1558  H     0.70154   0.76886   0.51618   0.00000  Uiso   1.00
H1559  H     0.73584   0.74783   0.56221   0.00000  Uiso   1.00
H1560  H     0.71708   0.80681   0.56045   0.00000  Uiso   1.00
C1561  C     0.94899   0.85658   0.96066   0.00000  Uiso   1.00
H1562  H     0.97592   0.86477   0.98468   0.00000  Uiso   1.00
H1563  H     0.95765   0.82696   0.94011   0.00000  Uiso   1.00
H1564  H     0.94375   0.88757   0.93906   0.00000  Uiso   1.00
H1565  H     0.70431   0.75882   0.75199   0.00000  Uiso   1.00
H1566  H     0.96237   0.90786   0.74818   0.00000  Uiso   1.00
H1567  H     0.96305   0.75877   0.75212   0.00000  Uiso   1.00
H1568  H     0.70364   0.90790   0.74809   0.00000  Uiso   1.00
C1569  C     0.77545   0.71569   0.68704   0.00000  Uiso   1.00
H1570  H     0.77535   0.75295   0.68731   0.00000  Uiso   1.00
H1571  H     0.78148   0.70624   0.65240   0.00000  Uiso   1.00
H1572  H     0.74345   0.70584   0.69315   0.00000  Uiso   1.00
C1573  C     0.89129   0.95097   0.81287   0.00000  Uiso   1.00
H1574  H     0.89132   0.91371   0.81271   0.00000  Uiso   1.00
H1575  H     0.92328   0.96076   0.80661   0.00000  Uiso   1.00
H1576  H     0.88539   0.96052   0.84752   0.00000  Uiso   1.00
C1577  C     0.89109   0.71492   0.81298   0.00000  Uiso   1.00
H1578  H     0.89108   0.75218   0.81261   0.00000  Uiso   1.00
H1579  H     0.88497   0.70520   0.84759   0.00000  Uiso   1.00
H1580  H     0.92314   0.70500   0.80699   0.00000  Uiso   1.00
C1581  C     0.77558   0.95175   0.68702   0.00000  Uiso   1.00
H1582  H     0.77561   0.91449   0.68738   0.00000  Uiso   1.00
H1583  H     0.74354   0.96165   0.69304   0.00000  Uiso   1.00
H1584  H     0.78168   0.96149   0.65241   0.00000  Uiso   1.00
loop_
_geom_bond_atom_site_label_1
_geom_bond_atom_site_label_2
_geom_bond_distance
_geom_bond_site_symmetry_2
_ccdc_geom_bond_type
O1     C5      1.306   .     A
O1     Cu13    1.963   .     S
O2     C6      1.306   .     A
O2     Cu14    1.963   .     S
O3     C6      1.305   .     A
O3     Cu13    1.962   .     S
O4     C5      1.305   .     A
O4     Cu14    1.962   .     S
C5     C36     1.451   .     S
C6     C35     1.451   .     S
O7     C11     1.305   .     A
O7     Cu13    1.956   .     S
O8     C12     1.302   .     A
O8     Cu14    1.956   .     S
O9     Cu13    1.955   .     S
O9     C12     1.304   .     A
O10    Cu14    1.955   .     S
O10    C11     1.304   .     A
C11    C18     1.454   .     S
C12    C17     1.449   .     S
Cu13   N41     2.047   .     S
Cu13   Cu14    2.724   .     S
Cu14   N42     2.047   .     S
C15    C17     1.387   .     A
C15    H43     1.082   .     S
C15    C25     1.400   .     A
C16    H44     1.082   .     S
C16    C26     1.400   .     A
C16    C18     1.389   .     A
C17    C19     1.403   .     A
C18    C20     1.406   .     A
C19    C21     1.420   .     A
C19    C45     1.518   .     S
C20    C49     1.518   .     S
C20    C22     1.420   .     A
C21    C27     1.422   .     A
C21    C23     1.423   .     A
C22    C28     1.421   .     A
C22    C24     1.421   .     A
C23    C25     1.419   .     A
C23    C816    1.406   .     S
C24    C26     1.417   .     A
C24    C815    1.406   1_554 S
C25    C30     1.418   .     A
C26    C29     1.417   .     A
C27    C53     1.518   .     S
C27    C821    1.413   .     S
C28    C57     1.518   .     S
C28    C822    1.413   1_554 S
C29    C61     1.520   .     S
C29    C819    1.413   1_554 S
C30    C65     1.521   .     S
C30    C820    1.413   .     S
C31    H69     1.083   .     S
C31    C36     1.402   .     A
C31    C209    1.383   1_455 S
C32    C35     1.402   .     A
C32    H70     1.083   .     S
C32    C122    1.383   .     S
C33    C35     1.401   .     A
C33    H71     1.083   .     S
C33    C119    1.383   .     S
C34    C36     1.401   .     A
C34    H72     1.083   .     S
C34    C208    1.383   1_455 S
C37    N42     1.383   .     A
C37    C73     1.521   .     S
C37    C568    1.436   1_545 S
C38    N41     1.383   .     A
C38    C77     1.521   .     S
C38    C303    1.436   .     S
C39    N42     1.382   .     A
C39    C81     1.520   .     S
C39    C566    1.436   1_545 S
C40    C85     1.520   .     S
C40    N41     1.382   .     A
C40    C301    1.436   .     S
C45    H47     1.110   .     S
C45    H48     1.107   .     S
C45    H46     1.111   .     S
C49    H51     1.110   .     S
C49    H52     1.106   .     S
C49    H50     1.109   .     S
C53    H56     1.110   .     S
C53    H55     1.111   .     S
C53    H54     1.108   .     S
C57    H60     1.110   .     S
C57    H58     1.109   .     S
C57    H59     1.110   .     S
C61    H63     1.110   .     S
C61    H64     1.111   .     S
C61    H62     1.107   .     S
C65    H67     1.111   .     S
C65    H68     1.110   .     S
C65    H66     1.107   .     S
C73    H74     1.082   .     S
C73    H75     1.109   .     S
C73    H76     1.109   .     S
C77    H78     1.082   .     S
C77    H79     1.109   .     S
C77    H80     1.109   .     S
C81    H82     1.082   .     S
C81    H83     1.109   .     S
C81    H84     1.109   .     S
C85    H88     1.109   .     S
C85    H87     1.109   .     S
C85    H86     1.082   .     S
O89    C93     1.306   .     A
O89    Cu101   1.963   .     S
O90    C94     1.306   .     A
O90    Cu102   1.963   .     S
O91    C94     1.305   .     A
O91    Cu101   1.962   .     S
O92    C93     1.305   .     A
O92    Cu102   1.962   .     S
C93    C124    1.451   .     S
C94    C123    1.451   .     S
O95    C99     1.305   .     A
O95    Cu101   1.956   .     S
O96    C100    1.302   .     A
O96    Cu102   1.956   .     S
O97    Cu101   1.955   .     S
O97    C100    1.304   .     A
O98    Cu102   1.955   .     S
O98    C99     1.304   .     A
C99    C106    1.454   .     S
C100   C105    1.449   .     S
Cu101  N129    2.047   .     S
Cu101  Cu102   2.724   .     S
Cu102  N130    2.047   .     S
C103   C105    1.387   .     A
C103   H131    1.082   .     S
C103   C113    1.400   .     A
C104   H132    1.082   .     S
C104   C114    1.400   .     A
C104   C106    1.389   .     A
C105   C107    1.403   .     A
C106   C108    1.406   .     A
C107   C109    1.420   .     A
C107   C133    1.518   .     S
C108   C137    1.518   .     S
C108   C110    1.420   .     A
C109   C115    1.422   .     A
C109   C111    1.423   .     A
C110   C116    1.421   .     A
C110   C112    1.421   .     A
C111   C113    1.419   .     A
C111   C904    1.406   .     S
C112   C114    1.417   .     A
C112   C903    1.406   1_554 S
C113   C118    1.418   .     A
C114   C117    1.417   .     A
C115   C141    1.518   .     S
C115   C909    1.413   .     S
C116   C145    1.518   .     S
C116   C910    1.413   1_554 S
C117   C149    1.520   .     S
C117   C907    1.413   1_554 S
C118   C153    1.521   .     S
C118   C908    1.413   .     S
C119   H157    1.083   .     S
C119   C124    1.402   .     A
C120   C123    1.402   .     A
C120   H158    1.083   .     S
C120   C210    1.383   .     S
C121   C123    1.401   .     A
C121   H159    1.083   .     S
C121   C207    1.383   .     S
C122   C124    1.401   .     A
C122   H160    1.083   .     S
C125   N130    1.383   .     A
C125   C161    1.521   .     S
C125   C656    1.436   1_545 S
C126   N129    1.383   .     A
C126   C165    1.521   .     S
C126   C391    1.436   .     S
C127   N130    1.382   .     A
C127   C169    1.520   .     S
C127   C654    1.436   1_545 S
C128   C173    1.520   .     S
C128   N129    1.382   .     A
C128   C389    1.436   .     S
C133   H135    1.110   .     S
C133   H136    1.107   .     S
C133   H134    1.111   .     S
C137   H139    1.110   .     S
C137   H140    1.106   .     S
C137   H138    1.109   .     S
C141   H144    1.110   .     S
C141   H143    1.111   .     S
C141   H142    1.108   .     S
C145   H148    1.110   .     S
C145   H146    1.109   .     S
C145   H147    1.110   .     S
C149   H151    1.110   .     S
C149   H152    1.111   .     S
C149   H150    1.107   .     S
C153   H155    1.111   .     S
C153   H156    1.110   .     S
C153   H154    1.107   .     S
C161   H162    1.082   .     S
C161   H163    1.109   .     S
C161   H164    1.109   .     S
C165   H166    1.082   .     S
C165   H167    1.109   .     S
C165   H168    1.109   .     S
C169   H170    1.082   .     S
C169   H171    1.109   .     S
C169   H172    1.109   .     S
C173   H176    1.109   .     S
C173   H175    1.109   .     S
C173   H174    1.082   .     S
O177   C181    1.306   .     A
O177   Cu189   1.963   .     S
O178   C182    1.306   .     A
O178   Cu190   1.963   .     S
O179   C182    1.305   .     A
O179   Cu189   1.962   .     S
O180   C181    1.305   .     A
O180   Cu190   1.962   .     S
C181   C212    1.451   .     S
C182   C211    1.451   .     S
O183   C187    1.305   .     A
O183   Cu189   1.956   .     S
O184   C188    1.302   .     A
O184   Cu190   1.956   .     S
O185   Cu189   1.955   .     S
O185   C188    1.304   .     A
O186   Cu190   1.955   .     S
O186   C187    1.304   .     A
C187   C194    1.454   .     S
C188   C193    1.449   .     S
Cu189  N217    2.047   .     S
Cu189  Cu190   2.724   .     S
Cu190  N218    2.047   .     S
C191   C193    1.387   .     A
C191   H219    1.082   .     S
C191   C201    1.400   .     A
C192   H220    1.082   .     S
C192   C202    1.400   .     A
C192   C194    1.389   .     A
C193   C195    1.403   .     A
C194   C196    1.406   .     A
C195   C197    1.420   .     A
C195   C221    1.518   .     S
C196   C225    1.518   .     S
C196   C198    1.420   .     A
C197   C203    1.422   .     A
C197   C199    1.423   .     A
C198   C204    1.421   .     A
C198   C200    1.421   .     A
C199   C201    1.419   .     A
C199   C992    1.406   .     S
C200   C202    1.417   .     A
C200   C991    1.406   1_554 S
C201   C206    1.418   .     A
C202   C205    1.417   .     A
C203   C229    1.518   .     S
C203   C997    1.413   .     S
C204   C233    1.518   .     S
C204   C998    1.413   1_554 S
C205   C237    1.520   .     S
C205   C995    1.413   1_554 S
C206   C241    1.521   .     S
C206   C996    1.413   .     S
C207   H245    1.083   .     S
C207   C212    1.402   .     A
C208   C211    1.402   .     A
C208   H246    1.083   .     S
C208   C34     1.383   1_655 S
C209   C211    1.401   .     A
C209   H247    1.083   .     S
C209   C31     1.383   1_655 S
C210   C212    1.401   .     A
C210   H248    1.083   .     S
C213   N218    1.383   .     A
C213   C249    1.521   .     S
C213   C744    1.436   1_545 S
C214   N217    1.383   .     A
C214   C253    1.521   .     S
C214   C479    1.436   .     S
C215   N218    1.382   .     A
C215   C257    1.520   .     S
C215   C742    1.436   1_545 S
C216   C261    1.520   .     S
C216   N217    1.382   .     A
C216   C477    1.436   .     S
C221   H223    1.110   .     S
C221   H224    1.107   .     S
C221   H222    1.111   .     S
C225   H227    1.110   .     S
C225   H228    1.106   .     S
C225   H226    1.109   .     S
C229   H232    1.110   .     S
C229   H231    1.111   .     S
C229   H230    1.108   .     S
C233   H236    1.110   .     S
C233   H234    1.109   .     S
C233   H235    1.110   .     S
C237   H239    1.110   .     S
C237   H240    1.111   .     S
C237   H238    1.107   .     S
C241   H243    1.111   .     S
C241   H244    1.110   .     S
C241   H242    1.107   .     S
C249   H250    1.082   .     S
C249   H251    1.109   .     S
C249   H252    1.109   .     S
C253   H254    1.082   .     S
C253   H255    1.109   .     S
C253   H256    1.109   .     S
C257   H258    1.082   .     S
C257   H259    1.109   .     S
C257   H260    1.109   .     S
C261   H264    1.109   .     S
C261   H263    1.109   .     S
C261   H262    1.082   .     S
O265   C269    1.306   .     A
O265   Cu277   1.963   .     S
O266   C270    1.306   .     A
O266   Cu278   1.963   .     S
O267   C270    1.305   .     A
O267   Cu277   1.962   .     S
O268   C269    1.305   .     A
O268   Cu278   1.962   .     S
C269   C300    1.451   .     S
C270   C299    1.451   .     S
O271   C275    1.305   .     A
O271   Cu277   1.956   .     S
O272   C276    1.302   .     A
O272   Cu278   1.956   .     S
O273   Cu277   1.955   .     S
O273   C276    1.304   .     A
O274   Cu278   1.955   .     S
O274   C275    1.304   .     A
C275   C282    1.454   .     S
C276   C281    1.449   .     S
Cu277  N305    2.047   .     S
Cu277  Cu278   2.724   .     S
Cu278  N306    2.047   .     S
C279   C281    1.387   .     A
C279   H307    1.082   .     S
C279   C289    1.400   .     A
C280   H308    1.082   .     S
C280   C290    1.400   .     A
C280   C282    1.389   .     A
C281   C283    1.403   .     A
C282   C284    1.406   .     A
C283   C285    1.420   .     A
C283   C309    1.518   .     S
C284   C313    1.518   .     S
C284   C286    1.420   .     A
C285   C291    1.422   .     A
C285   C287    1.423   .     A
C286   C292    1.421   .     A
C286   C288    1.421   .     A
C287   C289    1.419   .     A
C287   C1080   1.406   .     S
C288   C290    1.417   .     A
C288   C1079   1.406   1_554 S
C289   C294    1.418   .     A
C290   C293    1.417   .     A
C291   C317    1.518   .     S
C291   C1085   1.413   .     S
C292   C321    1.518   .     S
C292   C1086   1.413   1_554 S
C293   C325    1.520   .     S
C293   C1083   1.413   1_554 S
C294   C329    1.521   .     S
C294   C1084   1.413   .     S
C295   H333    1.083   .     S
C295   C300    1.402   .     A
C295   C473    1.383   1_455 S
C296   C299    1.402   .     A
C296   H334    1.083   .     S
C296   C386    1.383   .     S
C297   C299    1.401   .     A
C297   H335    1.083   .     S
C297   C383    1.383   .     S
C298   C300    1.401   .     A
C298   H336    1.083   .     S
C298   C472    1.383   1_455 S
C301   N306    1.383   .     A
C301   C337    1.521   .     S
C302   N305    1.383   .     A
C302   C341    1.521   .     S
C302   C567    1.436   .     S
C303   N306    1.382   .     A
C303   C345    1.520   .     S
C304   C349    1.520   .     S
C304   N305    1.382   .     A
C304   C565    1.436   .     S
C309   H311    1.110   .     S
C309   H312    1.107   .     S
C309   H310    1.111   .     S
C313   H315    1.110   .     S
C313   H316    1.106   .     S
C313   H314    1.109   .     S
C317   H320    1.110   .     S
C317   H319    1.111   .     S
C317   H318    1.108   .     S
C321   H324    1.110   .     S
C321   H322    1.109   .     S
C321   H323    1.110   .     S
C325   H327    1.110   .     S
C325   H328    1.111   .     S
C325   H326    1.107   .     S
C329   H331    1.111   .     S
C329   H332    1.110   .     S
C329   H330    1.107   .     S
C337   H338    1.082   .     S
C337   H339    1.109   .     S
C337   H340    1.109   .     S
C341   H342    1.082   .     S
C341   H343    1.109   .     S
C341   H344    1.109   .     S
C345   H346    1.082   .     S
C345   H347    1.109   .     S
C345   H348    1.109   .     S
C349   H352    1.109   .     S
C349   H351    1.109   .     S
C349   H350    1.082   .     S
O353   C357    1.306   .     A
O353   Cu365   1.963   .     S
O354   C358    1.306   .     A
O354   Cu366   1.963   .     S
O355   C358    1.305   .     A
O355   Cu365   1.962   .     S
O356   C357    1.305   .     A
O356   Cu366   1.962   .     S
C357   C388    1.451   .     S
C358   C387    1.451   .     S
O359   C363    1.305   .     A
O359   Cu365   1.956   .     S
O360   C364    1.302   .     A
O360   Cu366   1.956   .     S
O361   Cu365   1.955   .     S
O361   C364    1.304   .     A
O362   Cu366   1.955   .     S
O362   C363    1.304   .     A
C363   C370    1.454   .     S
C364   C369    1.449   .     S
Cu365  N393    2.047   .     S
Cu365  Cu366   2.724   .     S
Cu366  N394    2.047   .     S
C367   C369    1.387   .     A
C367   H395    1.082   .     S
C367   C377    1.400   .     A
C368   H396    1.082   .     S
C368   C378    1.400   .     A
C368   C370    1.389   .     A
C369   C371    1.403   .     A
C370   C372    1.406   .     A
C371   C373    1.420   .     A
C371   C397    1.518   .     S
C372   C401    1.518   .     S
C372   C374    1.420   .     A
C373   C379    1.422   .     A
C373   C375    1.423   .     A
C374   C380    1.421   .     A
C374   C376    1.421   .     A
C375   C377    1.419   .     A
C375   C1168   1.406   .     S
C376   C378    1.417   .     A
C376   C1167   1.406   1_554 S
C377   C382    1.418   .     A
C378   C381    1.417   .     A
C379   C405    1.518   .     S
C379   C1173   1.413   .     S
C380   C409    1.518   .     S
C380   C1174   1.413   1_554 S
C381   C413    1.520   .     S
C381   C1171   1.413   1_554 S
C382   C417    1.521   .     S
C382   C1172   1.413   .     S
C383   H421    1.083   .     S
C383   C388    1.402   .     A
C384   C387    1.402   .     A
C384   H422    1.083   .     S
C384   C474    1.383   .     S
C385   C387    1.401   .     A
C385   H423    1.083   .     S
C385   C471    1.383   .     S
C386   C388    1.401   .     A
C386   H424    1.083   .     S
C389   N394    1.383   .     A
C389   C425    1.521   .     S
C390   N393    1.383   .     A
C390   C429    1.521   .     S
C390   C655    1.436   .     S
C391   N394    1.382   .     A
C391   C433    1.520   .     S
C392   C437    1.520   .     S
C392   N393    1.382   .     A
C392   C653    1.436   .     S
C397   H399    1.110   .     S
C397   H400    1.107   .     S
C397   H398    1.111   .     S
C401   H403    1.110   .     S
C401   H404    1.106   .     S
C401   H402    1.109   .     S
C405   H408    1.110   .     S
C405   H407    1.111   .     S
C405   H406    1.108   .     S
C409   H412    1.110   .     S
C409   H410    1.109   .     S
C409   H411    1.110   .     S
C413   H415    1.110   .     S
C413   H416    1.111   .     S
C413   H414    1.107   .     S
C417   H419    1.111   .     S
C417   H420    1.110   .     S
C417   H418    1.107   .     S
C425   H426    1.082   .     S
C425   H427    1.109   .     S
C425   H428    1.109   .     S
C429   H430    1.082   .     S
C429   H431    1.109   .     S
C429   H432    1.109   .     S
C433   H434    1.082   .     S
C433   H435    1.109   .     S
C433   H436    1.109   .     S
C437   H440    1.109   .     S
C437   H439    1.109   .     S
C437   H438    1.082   .     S
O441   C445    1.306   .     A
O441   Cu453   1.963   .     S
O442   C446    1.306   .     A
O442   Cu454   1.963   .     S
O443   C446    1.305   .     A
O443   Cu453   1.962   .     S
O444   C445    1.305   .     A
O444   Cu454   1.962   .     S
C445   C476    1.451   .     S
C446   C475    1.451   .     S
O447   C451    1.305   .     A
O447   Cu453   1.956   .     S
O448   C452    1.302   .     A
O448   Cu454   1.956   .     S
O449   Cu453   1.955   .     S
O449   C452    1.304   .     A
O450   Cu454   1.955   .     S
O450   C451    1.304   .     A
C451   C458    1.454   .     S
C452   C457    1.449   .     S
Cu453  N481    2.047   .     S
Cu453  Cu454   2.724   .     S
Cu454  N482    2.047   .     S
C455   C457    1.387   .     A
C455   H483    1.082   .     S
C455   C465    1.400   .     A
C456   H484    1.082   .     S
C456   C466    1.400   .     A
C456   C458    1.389   .     A
C457   C459    1.403   .     A
C458   C460    1.406   .     A
C459   C461    1.420   .     A
C459   C485    1.518   .     S
C460   C489    1.518   .     S
C460   C462    1.420   .     A
C461   C467    1.422   .     A
C461   C463    1.423   .     A
C462   C468    1.421   .     A
C462   C464    1.421   .     A
C463   C465    1.419   .     A
C463   C1256   1.406   .     S
C464   C466    1.417   .     A
C464   C1255   1.406   1_554 S
C465   C470    1.418   .     A
C466   C469    1.417   .     A
C467   C493    1.518   .     S
C467   C1261   1.413   .     S
C468   C497    1.518   .     S
C468   C1262   1.413   1_554 S
C469   C501    1.520   .     S
C469   C1259   1.413   1_554 S
C470   C505    1.521   .     S
C470   C1260   1.413   .     S
C471   H509    1.083   .     S
C471   C476    1.402   .     A
C472   C475    1.402   .     A
C472   H510    1.083   .     S
C472   C298    1.383   1_655 S
C473   C475    1.401   .     A
C473   H511    1.083   .     S
C473   C295    1.383   1_655 S
C474   C476    1.401   .     A
C474   H512    1.083   .     S
C477   N482    1.383   .     A
C477   C513    1.521   .     S
C478   N481    1.383   .     A
C478   C517    1.521   .     S
C478   C743    1.436   .     S
C479   N482    1.382   .     A
C479   C521    1.520   .     S
C480   C525    1.520   .     S
C480   N481    1.382   .     A
C480   C741    1.436   .     S
C485   H487    1.110   .     S
C485   H488    1.107   .     S
C485   H486    1.111   .     S
C489   H491    1.110   .     S
C489   H492    1.106   .     S
C489   H490    1.109   .     S
C493   H496    1.110   .     S
C493   H495    1.111   .     S
C493   H494    1.108   .     S
C497   H500    1.110   .     S
C497   H498    1.109   .     S
C497   H499    1.110   .     S
C501   H503    1.110   .     S
C501   H504    1.111   .     S
C501   H502    1.107   .     S
C505   H507    1.111   .     S
C505   H508    1.110   .     S
C505   H506    1.107   .     S
C513   H514    1.082   .     S
C513   H515    1.109   .     S
C513   H516    1.109   .     S
C517   H518    1.082   .     S
C517   H519    1.109   .     S
C517   H520    1.109   .     S
C521   H522    1.082   .     S
C521   H523    1.109   .     S
C521   H524    1.109   .     S
C525   H528    1.109   .     S
C525   H527    1.109   .     S
C525   H526    1.082   .     S
O529   C533    1.306   .     A
O529   Cu541   1.963   .     S
O530   C534    1.306   .     A
O530   Cu542   1.963   .     S
O531   C534    1.305   .     A
O531   Cu541   1.962   .     S
O532   C533    1.305   .     A
O532   Cu542   1.962   .     S
C533   C564    1.451   .     S
C534   C563    1.451   .     S
O535   C539    1.305   .     A
O535   Cu541   1.956   .     S
O536   C540    1.302   .     A
O536   Cu542   1.956   .     S
O537   Cu541   1.955   .     S
O537   C540    1.304   .     A
O538   Cu542   1.955   .     S
O538   C539    1.304   .     A
C539   C546    1.454   .     S
C540   C545    1.449   .     S
Cu541  N569    2.047   .     S
Cu541  Cu542   2.724   .     S
Cu542  N570    2.047   .     S
C543   C545    1.387   .     A
C543   H571    1.082   .     S
C543   C553    1.400   .     A
C544   H572    1.082   .     S
C544   C554    1.400   .     A
C544   C546    1.389   .     A
C545   C547    1.403   .     A
C546   C548    1.406   .     A
C547   C549    1.420   .     A
C547   C573    1.518   .     S
C548   C577    1.518   .     S
C548   C550    1.420   .     A
C549   C555    1.422   .     A
C549   C551    1.423   .     A
C550   C556    1.421   .     A
C550   C552    1.421   .     A
C551   C553    1.419   .     A
C551   C1344   1.406   .     S
C552   C554    1.417   .     A
C552   C1343   1.406   1_554 S
C553   C558    1.418   .     A
C554   C557    1.417   .     A
C555   C581    1.518   .     S
C555   C1349   1.413   .     S
C556   C585    1.518   .     S
C556   C1350   1.413   1_554 S
C557   C589    1.520   .     S
C557   C1347   1.413   1_554 S
C558   C593    1.521   .     S
C558   C1348   1.413   .     S
C559   H597    1.083   .     S
C559   C564    1.402   .     A
C559   C737    1.383   1_455 S
C560   C563    1.402   .     A
C560   H598    1.083   .     S
C560   C650    1.383   .     S
C561   C563    1.401   .     A
C561   H599    1.083   .     S
C561   C647    1.383   .     S
C562   C564    1.401   .     A
C562   H600    1.083   .     S
C562   C736    1.383   1_455 S
C565   N570    1.383   .     A
C565   C601    1.521   .     S
C566   N569    1.383   .     A
C566   C605    1.521   .     S
C566   C39     1.436   1_565 S
C567   N570    1.382   .     A
C567   C609    1.520   .     S
C568   C613    1.520   .     S
C568   N569    1.382   .     A
C568   C37     1.436   1_565 S
C573   H575    1.110   .     S
C573   H576    1.107   .     S
C573   H574    1.111   .     S
C577   H579    1.110   .     S
C577   H580    1.106   .     S
C577   H578    1.109   .     S
C581   H584    1.110   .     S
C581   H583    1.111   .     S
C581   H582    1.108   .     S
C585   H588    1.110   .     S
C585   H586    1.109   .     S
C585   H587    1.110   .     S
C589   H591    1.110   .     S
C589   H592    1.111   .     S
C589   H590    1.107   .     S
C593   H595    1.111   .     S
C593   H596    1.110   .     S
C593   H594    1.107   .     S
C601   H602    1.082   .     S
C601   H603    1.109   .     S
C601   H604    1.109   .     S
C605   H606    1.082   .     S
C605   H607    1.109   .     S
C605   H608    1.109   .     S
C609   H610    1.082   .     S
C609   H611    1.109   .     S
C609   H612    1.109   .     S
C613   H616    1.109   .     S
C613   H615    1.109   .     S
C613   H614    1.082   .     S
O617   C621    1.306   .     A
O617   Cu629   1.963   .     S
O618   C622    1.306   .     A
O618   Cu630   1.963   .     S
O619   C622    1.305   .     A
O619   Cu629   1.962   .     S
O620   C621    1.305   .     A
O620   Cu630   1.962   .     S
C621   C652    1.451   .     S
C622   C651    1.451   .     S
O623   C627    1.305   .     A
O623   Cu629   1.956   .     S
O624   C628    1.302   .     A
O624   Cu630   1.956   .     S
O625   Cu629   1.955   .     S
O625   C628    1.304   .     A
O626   Cu630   1.955   .     S
O626   C627    1.304   .     A
C627   C634    1.454   .     S
C628   C633    1.449   .     S
Cu629  N657    2.047   .     S
Cu629  Cu630   2.724   .     S
Cu630  N658    2.047   .     S
C631   C633    1.387   .     A
C631   H659    1.082   .     S
C631   C641    1.400   .     A
C632   H660    1.082   .     S
C632   C642    1.400   .     A
C632   C634    1.389   .     A
C633   C635    1.403   .     A
C634   C636    1.406   .     A
C635   C637    1.420   .     A
C635   C661    1.518   .     S
C636   C665    1.518   .     S
C636   C638    1.420   .     A
C637   C643    1.422   .     A
C637   C639    1.423   .     A
C638   C644    1.421   .     A
C638   C640    1.421   .     A
C639   C641    1.419   .     A
C639   C1432   1.406   .     S
C640   C642    1.417   .     A
C640   C1431   1.406   1_554 S
C641   C646    1.418   .     A
C642   C645    1.417   .     A
C643   C669    1.518   .     S
C643   C1437   1.413   .     S
C644   C673    1.518   .     S
C644   C1438   1.413   1_554 S
C645   C677    1.520   .     S
C645   C1435   1.413   1_554 S
C646   C681    1.521   .     S
C646   C1436   1.413   .     S
C647   H685    1.083   .     S
C647   C652    1.402   .     A
C648   C651    1.402   .     A
C648   H686    1.083   .     S
C648   C738    1.383   .     S
C649   C651    1.401   .     A
C649   H687    1.083   .     S
C649   C735    1.383   .     S
C650   C652    1.401   .     A
C650   H688    1.083   .     S
C653   N658    1.383   .     A
C653   C689    1.521   .     S
C654   N657    1.383   .     A
C654   C693    1.521   .     S
C654   C127    1.436   1_565 S
C655   N658    1.382   .     A
C655   C697    1.520   .     S
C656   C701    1.520   .     S
C656   N657    1.382   .     A
C656   C125    1.436   1_565 S
C661   H663    1.110   .     S
C661   H664    1.107   .     S
C661   H662    1.111   .     S
C665   H667    1.110   .     S
C665   H668    1.106   .     S
C665   H666    1.109   .     S
C669   H672    1.110   .     S
C669   H671    1.111   .     S
C669   H670    1.108   .     S
C673   H676    1.110   .     S
C673   H674    1.109   .     S
C673   H675    1.110   .     S
C677   H679    1.110   .     S
C677   H680    1.111   .     S
C677   H678    1.107   .     S
C681   H683    1.111   .     S
C681   H684    1.110   .     S
C681   H682    1.107   .     S
C689   H690    1.082   .     S
C689   H691    1.109   .     S
C689   H692    1.109   .     S
C693   H694    1.082   .     S
C693   H695    1.109   .     S
C693   H696    1.109   .     S
C697   H698    1.082   .     S
C697   H699    1.109   .     S
C697   H700    1.109   .     S
C701   H704    1.109   .     S
C701   H703    1.109   .     S
C701   H702    1.082   .     S
O705   C709    1.306   .     A
O705   Cu717   1.963   .     S
O706   C710    1.306   .     A
O706   Cu718   1.963   .     S
O707   C710    1.305   .     A
O707   Cu717   1.962   .     S
O708   C709    1.305   .     A
O708   Cu718   1.962   .     S
C709   C740    1.451   .     S
C710   C739    1.451   .     S
O711   C715    1.305   .     A
O711   Cu717   1.956   .     S
O712   C716    1.302   .     A
O712   Cu718   1.956   .     S
O713   Cu717   1.955   .     S
O713   C716    1.304   .     A
O714   Cu718   1.955   .     S
O714   C715    1.304   .     A
C715   C722    1.454   .     S
C716   C721    1.449   .     S
Cu717  N745    2.047   .     S
Cu717  Cu718   2.724   .     S
Cu718  N746    2.047   .     S
C719   C721    1.387   .     A
C719   H747    1.082   .     S
C719   C729    1.400   .     A
C720   H748    1.082   .     S
C720   C730    1.400   .     A
C720   C722    1.389   .     A
C721   C723    1.403   .     A
C722   C724    1.406   .     A
C723   C725    1.420   .     A
C723   C749    1.518   .     S
C724   C753    1.518   .     S
C724   C726    1.420   .     A
C725   C731    1.422   .     A
C725   C727    1.423   .     A
C726   C732    1.421   .     A
C726   C728    1.421   .     A
C727   C729    1.419   .     A
C727   C1520   1.406   .     S
C728   C730    1.417   .     A
C728   C1519   1.406   1_554 S
C729   C734    1.418   .     A
C730   C733    1.417   .     A
C731   C757    1.518   .     S
C731   C1525   1.413   .     S
C732   C761    1.518   .     S
C732   C1526   1.413   1_554 S
C733   C765    1.520   .     S
C733   C1523   1.413   1_554 S
C734   C769    1.521   .     S
C734   C1524   1.413   .     S
C735   H773    1.083   .     S
C735   C740    1.402   .     A
C736   C739    1.402   .     A
C736   H774    1.083   .     S
C736   C562    1.383   1_655 S
C737   C739    1.401   .     A
C737   H775    1.083   .     S
C737   C559    1.383   1_655 S
C738   C740    1.401   .     A
C738   H776    1.083   .     S
C741   N746    1.383   .     A
C741   C777    1.521   .     S
C742   N745    1.383   .     A
C742   C781    1.521   .     S
C742   C215    1.436   1_565 S
C743   N746    1.382   .     A
C743   C785    1.520   .     S
C744   C789    1.520   .     S
C744   N745    1.382   .     A
C744   C213    1.436   1_565 S
C749   H751    1.110   .     S
C749   H752    1.107   .     S
C749   H750    1.111   .     S
C753   H755    1.110   .     S
C753   H756    1.106   .     S
C753   H754    1.109   .     S
C757   H760    1.110   .     S
C757   H759    1.111   .     S
C757   H758    1.108   .     S
C761   H764    1.110   .     S
C761   H762    1.109   .     S
C761   H763    1.110   .     S
C765   H767    1.110   .     S
C765   H768    1.111   .     S
C765   H766    1.107   .     S
C769   H771    1.111   .     S
C769   H772    1.110   .     S
C769   H770    1.107   .     S
C777   H778    1.082   .     S
C777   H779    1.109   .     S
C777   H780    1.109   .     S
C781   H782    1.082   .     S
C781   H783    1.109   .     S
C781   H784    1.109   .     S
C785   H786    1.082   .     S
C785   H787    1.109   .     S
C785   H788    1.109   .     S
C789   H792    1.109   .     S
C789   H791    1.109   .     S
C789   H790    1.082   .     S
O793   C797    1.306   .     A
O793   Cu805   1.963   .     S
O794   C798    1.306   .     A
O794   Cu806   1.963   .     S
O795   C798    1.305   .     A
O795   Cu805   1.962   .     S
O796   C797    1.305   .     A
O796   Cu806   1.962   .     S
C797   C828    1.451   .     S
C798   C827    1.451   .     S
O799   C803    1.305   .     A
O799   Cu805   1.956   .     S
O800   C804    1.302   .     A
O800   Cu806   1.956   .     S
O801   Cu805   1.955   .     S
O801   C804    1.304   .     A
O802   Cu806   1.955   .     S
O802   C803    1.304   .     A
C803   C810    1.454   .     S
C804   C809    1.449   .     S
Cu805  N833    2.047   .     S
Cu805  Cu806   2.724   .     S
Cu806  N834    2.047   .     S
C807   C809    1.387   .     A
C807   H835    1.082   .     S
C807   C817    1.400   .     A
C808   H836    1.082   .     S
C808   C818    1.400   .     A
C808   C810    1.389   .     A
C809   C811    1.403   .     A
C810   C812    1.406   .     A
C811   C813    1.420   .     A
C811   C837    1.518   .     S
C812   C841    1.518   .     S
C812   C814    1.420   .     A
C813   C819    1.422   .     A
C813   C815    1.423   .     A
C814   C820    1.421   .     A
C814   C816    1.421   .     A
C815   C817    1.419   .     A
C815   C24     1.406   1_556 S
C816   C818    1.417   .     A
C817   C822    1.418   .     A
C818   C821    1.417   .     A
C819   C845    1.518   .     S
C819   C29     1.413   1_556 S
C820   C849    1.518   .     S
C821   C853    1.520   .     S
C822   C857    1.521   .     S
C822   C28     1.413   1_556 S
C823   H861    1.083   .     S
C823   C828    1.402   .     A
C823   C1001   1.383   1_455 S
C824   C827    1.402   .     A
C824   H862    1.083   .     S
C824   C914    1.383   .     S
C825   C827    1.401   .     A
C825   H863    1.083   .     S
C825   C911    1.383   .     S
C826   C828    1.401   .     A
C826   H864    1.083   .     S
C826   C1000   1.383   1_455 S
C829   N834    1.383   .     A
C829   C865    1.521   .     S
C829   C1360   1.436   1_545 S
C830   N833    1.383   .     A
C830   C869    1.521   .     S
C830   C1095   1.436   .     S
C831   N834    1.382   .     A
C831   C873    1.520   .     S
C831   C1358   1.436   1_545 S
C832   C877    1.520   .     S
C832   N833    1.382   .     A
C832   C1093   1.436   .     S
C837   H839    1.110   .     S
C837   H840    1.107   .     S
C837   H838    1.111   .     S
C841   H843    1.110   .     S
C841   H844    1.106   .     S
C841   H842    1.109   .     S
C845   H848    1.110   .     S
C845   H847    1.111   .     S
C845   H846    1.108   .     S
C849   H852    1.110   .     S
C849   H850    1.109   .     S
C849   H851    1.110   .     S
C853   H855    1.110   .     S
C853   H856    1.111   .     S
C853   H854    1.107   .     S
C857   H859    1.111   .     S
C857   H860    1.110   .     S
C857   H858    1.107   .     S
C865   H866    1.082   .     S
C865   H867    1.109   .     S
C865   H868    1.109   .     S
C869   H870    1.082   .     S
C869   H871    1.109   .     S
C869   H872    1.109   .     S
C873   H874    1.082   .     S
C873   H875    1.109   .     S
C873   H876    1.109   .     S
C877   H880    1.109   .     S
C877   H879    1.109   .     S
C877   H878    1.082   .     S
O881   C885    1.306   .     A
O881   Cu893   1.963   .     S
O882   C886    1.306   .     A
O882   Cu894   1.963   .     S
O883   C886    1.305   .     A
O883   Cu893   1.962   .     S
O884   C885    1.305   .     A
O884   Cu894   1.962   .     S
C885   C916    1.451   .     S
C886   C915    1.451   .     S
O887   C891    1.305   .     A
O887   Cu893   1.956   .     S
O888   C892    1.302   .     A
O888   Cu894   1.956   .     S
O889   Cu893   1.955   .     S
O889   C892    1.304   .     A
O890   Cu894   1.955   .     S
O890   C891    1.304   .     A
C891   C898    1.454   .     S
C892   C897    1.449   .     S
Cu893  N921    2.047   .     S
Cu893  Cu894   2.724   .     S
Cu894  N922    2.047   .     S
C895   C897    1.387   .     A
C895   H923    1.082   .     S
C895   C905    1.400   .     A
C896   H924    1.082   .     S
C896   C906    1.400   .     A
C896   C898    1.389   .     A
C897   C899    1.403   .     A
C898   C900    1.406   .     A
C899   C901    1.420   .     A
C899   C925    1.518   .     S
C900   C929    1.518   .     S
C900   C902    1.420   .     A
C901   C907    1.422   .     A
C901   C903    1.423   .     A
C902   C908    1.421   .     A
C902   C904    1.421   .     A
C903   C905    1.419   .     A
C903   C112    1.406   1_556 S
C904   C906    1.417   .     A
C905   C910    1.418   .     A
C906   C909    1.417   .     A
C907   C933    1.518   .     S
C907   C117    1.413   1_556 S
C908   C937    1.518   .     S
C909   C941    1.520   .     S
C910   C945    1.521   .     S
C910   C116    1.413   1_556 S
C911   H949    1.083   .     S
C911   C916    1.402   .     A
C912   C915    1.402   .     A
C912   H950    1.083   .     S
C912   C1002   1.383   .     S
C913   C915    1.401   .     A
C913   H951    1.083   .     S
C913   C999    1.383   .     S
C914   C916    1.401   .     A
C914   H952    1.083   .     S
C917   N922    1.383   .     A
C917   C953    1.521   .     S
C917   C1448   1.436   1_545 S
C918   N921    1.383   .     A
C918   C957    1.521   .     S
C918   C1183   1.436   .     S
C919   N922    1.382   .     A
C919   C961    1.520   .     S
C919   C1446   1.436   1_545 S
C920   C965    1.520   .     S
C920   N921    1.382   .     A
C920   C1181   1.436   .     S
C925   H927    1.110   .     S
C925   H928    1.107   .     S
C925   H926    1.111   .     S
C929   H931    1.110   .     S
C929   H932    1.106   .     S
C929   H930    1.109   .     S
C933   H936    1.110   .     S
C933   H935    1.111   .     S
C933   H934    1.108   .     S
C937   H940    1.110   .     S
C937   H938    1.109   .     S
C937   H939    1.110   .     S
C941   H943    1.110   .     S
C941   H944    1.111   .     S
C941   H942    1.107   .     S
C945   H947    1.111   .     S
C945   H948    1.110   .     S
C945   H946    1.107   .     S
C953   H954    1.082   .     S
C953   H955    1.109   .     S
C953   H956    1.109   .     S
C957   H958    1.082   .     S
C957   H959    1.109   .     S
C957   H960    1.109   .     S
C961   H962    1.082   .     S
C961   H963    1.109   .     S
C961   H964    1.109   .     S
C965   H968    1.109   .     S
C965   H967    1.109   .     S
C965   H966    1.082   .     S
O969   C973    1.306   .     A
O969   Cu981   1.963   .     S
O970   C974    1.306   .     A
O970   Cu982   1.963   .     S
O971   C974    1.305   .     A
O971   Cu981   1.962   .     S
O972   C973    1.305   .     A
O972   Cu982   1.962   .     S
C973   C1004   1.451   .     S
C974   C1003   1.451   .     S
O975   C979    1.305   .     A
O975   Cu981   1.956   .     S
O976   C980    1.302   .     A
O976   Cu982   1.956   .     S
O977   Cu981   1.955   .     S
O977   C980    1.304   .     A
O978   Cu982   1.955   .     S
O978   C979    1.304   .     A
C979   C986    1.454   .     S
C980   C985    1.449   .     S
Cu981  N1009   2.047   .     S
Cu981  Cu982   2.724   .     S
Cu982  N1010   2.047   .     S
C983   C985    1.387   .     A
C983   H1011   1.082   .     S
C983   C993    1.400   .     A
C984   H1012   1.082   .     S
C984   C994    1.400   .     A
C984   C986    1.389   .     A
C985   C987    1.403   .     A
C986   C988    1.406   .     A
C987   C989    1.420   .     A
C987   C1013   1.518   .     S
C988   C1017   1.518   .     S
C988   C990    1.420   .     A
C989   C995    1.422   .     A
C989   C991    1.423   .     A
C990   C996    1.421   .     A
C990   C992    1.421   .     A
C991   C993    1.419   .     A
C991   C200    1.406   1_556 S
C992   C994    1.417   .     A
C993   C998    1.418   .     A
C994   C997    1.417   .     A
C995   C1021   1.518   .     S
C995   C205    1.413   1_556 S
C996   C1025   1.518   .     S
C997   C1029   1.520   .     S
C998   C1033   1.521   .     S
C998   C204    1.413   1_556 S
C999   H1037   1.083   .     S
C999   C1004   1.402   .     A
C1000  C1003   1.402   .     A
C1000  H1038   1.083   .     S
C1000  C826    1.383   1_655 S
C1001  C1003   1.401   .     A
C1001  H1039   1.083   .     S
C1001  C823    1.383   1_655 S
C1002  C1004   1.401   .     A
C1002  H1040   1.083   .     S
C1005  N1010   1.383   .     A
C1005  C1041   1.521   .     S
C1005  C1536   1.436   1_545 S
C1006  N1009   1.383   .     A
C1006  C1045   1.521   .     S
C1006  C1271   1.436   .     S
C1007  N1010   1.382   .     A
C1007  C1049   1.520   .     S
C1007  C1534   1.436   1_545 S
C1008  C1053   1.520   .     S
C1008  N1009   1.382   .     A
C1008  C1269   1.436   .     S
C1013  H1015   1.110   .     S
C1013  H1016   1.107   .     S
C1013  H1014   1.111   .     S
C1017  H1019   1.110   .     S
C1017  H1020   1.106   .     S
C1017  H1018   1.109   .     S
C1021  H1024   1.110   .     S
C1021  H1023   1.111   .     S
C1021  H1022   1.108   .     S
C1025  H1028   1.110   .     S
C1025  H1026   1.109   .     S
C1025  H1027   1.110   .     S
C1029  H1031   1.110   .     S
C1029  H1032   1.111   .     S
C1029  H1030   1.107   .     S
C1033  H1035   1.111   .     S
C1033  H1036   1.110   .     S
C1033  H1034   1.107   .     S
C1041  H1042   1.082   .     S
C1041  H1043   1.109   .     S
C1041  H1044   1.109   .     S
C1045  H1046   1.082   .     S
C1045  H1047   1.109   .     S
C1045  H1048   1.109   .     S
C1049  H1050   1.082   .     S
C1049  H1051   1.109   .     S
C1049  H1052   1.109   .     S
C1053  H1056   1.109   .     S
C1053  H1055   1.109   .     S
C1053  H1054   1.082   .     S
O1057  C1061   1.306   .     A
O1057  Cu1069  1.963   .     S
O1058  C1062   1.306   .     A
O1058  Cu1070  1.963   .     S
O1059  C1062   1.305   .     A
O1059  Cu1069  1.962   .     S
O1060  C1061   1.305   .     A
O1060  Cu1070  1.962   .     S
C1061  C1092   1.451   .     S
C1062  C1091   1.451   .     S
O1063  C1067   1.305   .     A
O1063  Cu1069  1.956   .     S
O1064  C1068   1.302   .     A
O1064  Cu1070  1.956   .     S
O1065  Cu1069  1.955   .     S
O1065  C1068   1.304   .     A
O1066  Cu1070  1.955   .     S
O1066  C1067   1.304   .     A
C1067  C1074   1.454   .     S
C1068  C1073   1.449   .     S
Cu1069 N1097   2.047   .     S
Cu1069 Cu1070  2.724   .     S
Cu1070 N1098   2.047   .     S
C1071  C1073   1.387   .     A
C1071  H1099   1.082   .     S
C1071  C1081   1.400   .     A
C1072  H1100   1.082   .     S
C1072  C1082   1.400   .     A
C1072  C1074   1.389   .     A
C1073  C1075   1.403   .     A
C1074  C1076   1.406   .     A
C1075  C1077   1.420   .     A
C1075  C1101   1.518   .     S
C1076  C1105   1.518   .     S
C1076  C1078   1.420   .     A
C1077  C1083   1.422   .     A
C1077  C1079   1.423   .     A
C1078  C1084   1.421   .     A
C1078  C1080   1.421   .     A
C1079  C1081   1.419   .     A
C1079  C288    1.406   1_556 S
C1080  C1082   1.417   .     A
C1081  C1086   1.418   .     A
C1082  C1085   1.417   .     A
C1083  C1109   1.518   .     S
C1083  C293    1.413   1_556 S
C1084  C1113   1.518   .     S
C1085  C1117   1.520   .     S
C1086  C1121   1.521   .     S
C1086  C292    1.413   1_556 S
C1087  H1125   1.083   .     S
C1087  C1092   1.402   .     A
C1087  C1265   1.383   1_455 S
C1088  C1091   1.402   .     A
C1088  H1126   1.083   .     S
C1088  C1178   1.383   .     S
C1089  C1091   1.401   .     A
C1089  H1127   1.083   .     S
C1089  C1175   1.383   .     S
C1090  C1092   1.401   .     A
C1090  H1128   1.083   .     S
C1090  C1264   1.383   1_455 S
C1093  N1098   1.383   .     A
C1093  C1129   1.521   .     S
C1094  N1097   1.383   .     A
C1094  C1133   1.521   .     S
C1094  C1359   1.436   .     S
C1095  N1098   1.382   .     A
C1095  C1137   1.520   .     S
C1096  C1141   1.520   .     S
C1096  N1097   1.382   .     A
C1096  C1357   1.436   .     S
C1101  H1103   1.110   .     S
C1101  H1104   1.107   .     S
C1101  H1102   1.111   .     S
C1105  H1107   1.110   .     S
C1105  H1108   1.106   .     S
C1105  H1106   1.109   .     S
C1109  H1112   1.110   .     S
C1109  H1111   1.111   .     S
C1109  H1110   1.108   .     S
C1113  H1116   1.110   .     S
C1113  H1114   1.109   .     S
C1113  H1115   1.110   .     S
C1117  H1119   1.110   .     S
C1117  H1120   1.111   .     S
C1117  H1118   1.107   .     S
C1121  H1123   1.111   .     S
C1121  H1124   1.110   .     S
C1121  H1122   1.107   .     S
C1129  H1130   1.082   .     S
C1129  H1131   1.109   .     S
C1129  H1132   1.109   .     S
C1133  H1134   1.082   .     S
C1133  H1135   1.109   .     S
C1133  H1136   1.109   .     S
C1137  H1138   1.082   .     S
C1137  H1139   1.109   .     S
C1137  H1140   1.109   .     S
C1141  H1144   1.109   .     S
C1141  H1143   1.109   .     S
C1141  H1142   1.082   .     S
O1145  C1149   1.306   .     A
O1145  Cu1157  1.963   .     S
O1146  C1150   1.306   .     A
O1146  Cu1158  1.963   .     S
O1147  C1150   1.305   .     A
O1147  Cu1157  1.962   .     S
O1148  C1149   1.305   .     A
O1148  Cu1158  1.962   .     S
C1149  C1180   1.451   .     S
C1150  C1179   1.451   .     S
O1151  C1155   1.305   .     A
O1151  Cu1157  1.956   .     S
O1152  C1156   1.302   .     A
O1152  Cu1158  1.956   .     S
O1153  Cu1157  1.955   .     S
O1153  C1156   1.304   .     A
O1154  Cu1158  1.955   .     S
O1154  C1155   1.304   .     A
C1155  C1162   1.454   .     S
C1156  C1161   1.449   .     S
Cu1157 N1185   2.047   .     S
Cu1157 Cu1158  2.724   .     S
Cu1158 N1186   2.047   .     S
C1159  C1161   1.387   .     A
C1159  H1187   1.082   .     S
C1159  C1169   1.400   .     A
C1160  H1188   1.082   .     S
C1160  C1170   1.400   .     A
C1160  C1162   1.389   .     A
C1161  C1163   1.403   .     A
C1162  C1164   1.406   .     A
C1163  C1165   1.420   .     A
C1163  C1189   1.518   .     S
C1164  C1193   1.518   .     S
C1164  C1166   1.420   .     A
C1165  C1171   1.422   .     A
C1165  C1167   1.423   .     A
C1166  C1172   1.421   .     A
C1166  C1168   1.421   .     A
C1167  C1169   1.419   .     A
C1167  C376    1.406   1_556 S
C1168  C1170   1.417   .     A
C1169  C1174   1.418   .     A
C1170  C1173   1.417   .     A
C1171  C1197   1.518   .     S
C1171  C381    1.413   1_556 S
C1172  C1201   1.518   .     S
C1173  C1205   1.520   .     S
C1174  C1209   1.521   .     S
C1174  C380    1.413   1_556 S
C1175  H1213   1.083   .     S
C1175  C1180   1.402   .     A
C1176  C1179   1.402   .     A
C1176  H1214   1.083   .     S
C1176  C1266   1.383   .     S
C1177  C1179   1.401   .     A
C1177  H1215   1.083   .     S
C1177  C1263   1.383   .     S
C1178  C1180   1.401   .     A
C1178  H1216   1.083   .     S
C1181  N1186   1.383   .     A
C1181  C1217   1.521   .     S
C1182  N1185   1.383   .     A
C1182  C1221   1.521   .     S
C1182  C1447   1.436   .     S
C1183  N1186   1.382   .     A
C1183  C1225   1.520   .     S
C1184  C1229   1.520   .     S
C1184  N1185   1.382   .     A
C1184  C1445   1.436   .     S
C1189  H1191   1.110   .     S
C1189  H1192   1.107   .     S
C1189  H1190   1.111   .     S
C1193  H1195   1.110   .     S
C1193  H1196   1.106   .     S
C1193  H1194   1.109   .     S
C1197  H1200   1.110   .     S
C1197  H1199   1.111   .     S
C1197  H1198   1.108   .     S
C1201  H1204   1.110   .     S
C1201  H1202   1.109   .     S
C1201  H1203   1.110   .     S
C1205  H1207   1.110   .     S
C1205  H1208   1.111   .     S
C1205  H1206   1.107   .     S
C1209  H1211   1.111   .     S
C1209  H1212   1.110   .     S
C1209  H1210   1.107   .     S
C1217  H1218   1.082   .     S
C1217  H1219   1.109   .     S
C1217  H1220   1.109   .     S
C1221  H1222   1.082   .     S
C1221  H1223   1.109   .     S
C1221  H1224   1.109   .     S
C1225  H1226   1.082   .     S
C1225  H1227   1.109   .     S
C1225  H1228   1.109   .     S
C1229  H1232   1.109   .     S
C1229  H1231   1.109   .     S
C1229  H1230   1.082   .     S
O1233  C1237   1.306   .     A
O1233  Cu1245  1.963   .     S
O1234  C1238   1.306   .     A
O1234  Cu1246  1.963   .     S
O1235  C1238   1.305   .     A
O1235  Cu1245  1.962   .     S
O1236  C1237   1.305   .     A
O1236  Cu1246  1.962   .     S
C1237  C1268   1.451   .     S
C1238  C1267   1.451   .     S
O1239  C1243   1.305   .     A
O1239  Cu1245  1.956   .     S
O1240  C1244   1.302   .     A
O1240  Cu1246  1.956   .     S
O1241  Cu1245  1.955   .     S
O1241  C1244   1.304   .     A
O1242  Cu1246  1.955   .     S
O1242  C1243   1.304   .     A
C1243  C1250   1.454   .     S
C1244  C1249   1.449   .     S
Cu1245 N1273   2.047   .     S
Cu1245 Cu1246  2.724   .     S
Cu1246 N1274   2.047   .     S
C1247  C1249   1.387   .     A
C1247  H1275   1.082   .     S
C1247  C1257   1.400   .     A
C1248  H1276   1.082   .     S
C1248  C1258   1.400   .     A
C1248  C1250   1.389   .     A
C1249  C1251   1.403   .     A
C1250  C1252   1.406   .     A
C1251  C1253   1.420   .     A
C1251  C1277   1.518   .     S
C1252  C1281   1.518   .     S
C1252  C1254   1.420   .     A
C1253  C1259   1.422   .     A
C1253  C1255   1.423   .     A
C1254  C1260   1.421   .     A
C1254  C1256   1.421   .     A
C1255  C1257   1.419   .     A
C1255  C464    1.406   1_556 S
C1256  C1258   1.417   .     A
C1257  C1262   1.418   .     A
C1258  C1261   1.417   .     A
C1259  C1285   1.518   .     S
C1259  C469    1.413   1_556 S
C1260  C1289   1.518   .     S
C1261  C1293   1.520   .     S
C1262  C1297   1.521   .     S
C1262  C468    1.413   1_556 S
C1263  H1301   1.083   .     S
C1263  C1268   1.402   .     A
C1264  C1267   1.402   .     A
C1264  H1302   1.083   .     S
C1264  C1090   1.383   1_655 S
C1265  C1267   1.401   .     A
C1265  H1303   1.083   .     S
C1265  C1087   1.383   1_655 S
C1266  C1268   1.401   .     A
C1266  H1304   1.083   .     S
C1269  N1274   1.383   .     A
C1269  C1305   1.521   .     S
C1270  N1273   1.383   .     A
C1270  C1309   1.521   .     S
C1270  C1535   1.436   .     S
C1271  N1274   1.382   .     A
C1271  C1313   1.520   .     S
C1272  C1317   1.520   .     S
C1272  N1273   1.382   .     A
C1272  C1533   1.436   .     S
C1277  H1279   1.110   .     S
C1277  H1280   1.107   .     S
C1277  H1278   1.111   .     S
C1281  H1283   1.110   .     S
C1281  H1284   1.106   .     S
C1281  H1282   1.109   .     S
C1285  H1288   1.110   .     S
C1285  H1287   1.111   .     S
C1285  H1286   1.108   .     S
C1289  H1292   1.110   .     S
C1289  H1290   1.109   .     S
C1289  H1291   1.110   .     S
C1293  H1295   1.110   .     S
C1293  H1296   1.111   .     S
C1293  H1294   1.107   .     S
C1297  H1299   1.111   .     S
C1297  H1300   1.110   .     S
C1297  H1298   1.107   .     S
C1305  H1306   1.082   .     S
C1305  H1307   1.109   .     S
C1305  H1308   1.109   .     S
C1309  H1310   1.082   .     S
C1309  H1311   1.109   .     S
C1309  H1312   1.109   .     S
C1313  H1314   1.082   .     S
C1313  H1315   1.109   .     S
C1313  H1316   1.109   .     S
C1317  H1320   1.109   .     S
C1317  H1319   1.109   .     S
C1317  H1318   1.082   .     S
O1321  C1325   1.306   .     A
O1321  Cu1333  1.963   .     S
O1322  C1326   1.306   .     A
O1322  Cu1334  1.963   .     S
O1323  C1326   1.305   .     A
O1323  Cu1333  1.962   .     S
O1324  C1325   1.305   .     A
O1324  Cu1334  1.962   .     S
C1325  C1356   1.451   .     S
C1326  C1355   1.451   .     S
O1327  C1331   1.305   .     A
O1327  Cu1333  1.956   .     S
O1328  C1332   1.302   .     A
O1328  Cu1334  1.956   .     S
O1329  Cu1333  1.955   .     S
O1329  C1332   1.304   .     A
O1330  Cu1334  1.955   .     S
O1330  C1331   1.304   .     A
C1331  C1338   1.454   .     S
C1332  C1337   1.449   .     S
Cu1333 N1361   2.047   .     S
Cu1333 Cu1334  2.724   .     S
Cu1334 N1362   2.047   .     S
C1335  C1337   1.387   .     A
C1335  H1363   1.082   .     S
C1335  C1345   1.400   .     A
C1336  H1364   1.082   .     S
C1336  C1346   1.400   .     A
C1336  C1338   1.389   .     A
C1337  C1339   1.403   .     A
C1338  C1340   1.406   .     A
C1339  C1341   1.420   .     A
C1339  C1365   1.518   .     S
C1340  C1369   1.518   .     S
C1340  C1342   1.420   .     A
C1341  C1347   1.422   .     A
C1341  C1343   1.423   .     A
C1342  C1348   1.421   .     A
C1342  C1344   1.421   .     A
C1343  C1345   1.419   .     A
C1343  C552    1.406   1_556 S
C1344  C1346   1.417   .     A
C1345  C1350   1.418   .     A
C1346  C1349   1.417   .     A
C1347  C1373   1.518   .     S
C1347  C557    1.413   1_556 S
C1348  C1377   1.518   .     S
C1349  C1381   1.520   .     S
C1350  C1385   1.521   .     S
C1350  C556    1.413   1_556 S
C1351  H1389   1.083   .     S
C1351  C1356   1.402   .     A
C1351  C1529   1.383   1_455 S
C1352  C1355   1.402   .     A
C1352  H1390   1.083   .     S
C1352  C1442   1.383   .     S
C1353  C1355   1.401   .     A
C1353  H1391   1.083   .     S
C1353  C1439   1.383   .     S
C1354  C1356   1.401   .     A
C1354  H1392   1.083   .     S
C1354  C1528   1.383   1_455 S
C1357  N1362   1.383   .     A
C1357  C1393   1.521   .     S
C1358  N1361   1.383   .     A
C1358  C1397   1.521   .     S
C1358  C831    1.436   1_565 S
C1359  N1362   1.382   .     A
C1359  C1401   1.520   .     S
C1360  C1405   1.520   .     S
C1360  N1361   1.382   .     A
C1360  C829    1.436   1_565 S
C1365  H1367   1.110   .     S
C1365  H1368   1.107   .     S
C1365  H1366   1.111   .     S
C1369  H1371   1.110   .     S
C1369  H1372   1.106   .     S
C1369  H1370   1.109   .     S
C1373  H1376   1.110   .     S
C1373  H1375   1.111   .     S
C1373  H1374   1.108   .     S
C1377  H1380   1.110   .     S
C1377  H1378   1.109   .     S
C1377  H1379   1.110   .     S
C1381  H1383   1.110   .     S
C1381  H1384   1.111   .     S
C1381  H1382   1.107   .     S
C1385  H1387   1.111   .     S
C1385  H1388   1.110   .     S
C1385  H1386   1.107   .     S
C1393  H1394   1.082   .     S
C1393  H1395   1.109   .     S
C1393  H1396   1.109   .     S
C1397  H1398   1.082   .     S
C1397  H1399   1.109   .     S
C1397  H1400   1.109   .     S
C1401  H1402   1.082   .     S
C1401  H1403   1.109   .     S
C1401  H1404   1.109   .     S
C1405  H1408   1.109   .     S
C1405  H1407   1.109   .     S
C1405  H1406   1.082   .     S
O1409  C1413   1.306   .     A
O1409  Cu1421  1.963   .     S
O1410  C1414   1.306   .     A
O1410  Cu1422  1.963   .     S
O1411  C1414   1.305   .     A
O1411  Cu1421  1.962   .     S
O1412  C1413   1.305   .     A
O1412  Cu1422  1.962   .     S
C1413  C1444   1.451   .     S
C1414  C1443   1.451   .     S
O1415  C1419   1.305   .     A
O1415  Cu1421  1.956   .     S
O1416  C1420   1.302   .     A
O1416  Cu1422  1.956   .     S
O1417  Cu1421  1.955   .     S
O1417  C1420   1.304   .     A
O1418  Cu1422  1.955   .     S
O1418  C1419   1.304   .     A
C1419  C1426   1.454   .     S
C1420  C1425   1.449   .     S
Cu1421 N1449   2.047   .     S
Cu1421 Cu1422  2.724   .     S
Cu1422 N1450   2.047   .     S
C1423  C1425   1.387   .     A
C1423  H1451   1.082   .     S
C1423  C1433   1.400   .     A
C1424  H1452   1.082   .     S
C1424  C1434   1.400   .     A
C1424  C1426   1.389   .     A
C1425  C1427   1.403   .     A
C1426  C1428   1.406   .     A
C1427  C1429   1.420   .     A
C1427  C1453   1.518   .     S
C1428  C1457   1.518   .     S
C1428  C1430   1.420   .     A
C1429  C1435   1.422   .     A
C1429  C1431   1.423   .     A
C1430  C1436   1.421   .     A
C1430  C1432   1.421   .     A
C1431  C1433   1.419   .     A
C1431  C640    1.406   1_556 S
C1432  C1434   1.417   .     A
C1433  C1438   1.418   .     A
C1434  C1437   1.417   .     A
C1435  C1461   1.518   .     S
C1435  C645    1.413   1_556 S
C1436  C1465   1.518   .     S
C1437  C1469   1.520   .     S
C1438  C1473   1.521   .     S
C1438  C644    1.413   1_556 S
C1439  H1477   1.083   .     S
C1439  C1444   1.402   .     A
C1440  C1443   1.402   .     A
C1440  H1478   1.083   .     S
C1440  C1530   1.383   .     S
C1441  C1443   1.401   .     A
C1441  H1479   1.083   .     S
C1441  C1527   1.383   .     S
C1442  C1444   1.401   .     A
C1442  H1480   1.083   .     S
C1445  N1450   1.383   .     A
C1445  C1481   1.521   .     S
C1446  N1449   1.383   .     A
C1446  C1485   1.521   .     S
C1446  C919    1.436   1_565 S
C1447  N1450   1.382   .     A
C1447  C1489   1.520   .     S
C1448  C1493   1.520   .     S
C1448  N1449   1.382   .     A
C1448  C917    1.436   1_565 S
C1453  H1455   1.110   .     S
C1453  H1456   1.107   .     S
C1453  H1454   1.111   .     S
C1457  H1459   1.110   .     S
C1457  H1460   1.106   .     S
C1457  H1458   1.109   .     S
C1461  H1464   1.110   .     S
C1461  H1463   1.111   .     S
C1461  H1462   1.108   .     S
C1465  H1468   1.110   .     S
C1465  H1466   1.109   .     S
C1465  H1467   1.110   .     S
C1469  H1471   1.110   .     S
C1469  H1472   1.111   .     S
C1469  H1470   1.107   .     S
C1473  H1475   1.111   .     S
C1473  H1476   1.110   .     S
C1473  H1474   1.107   .     S
C1481  H1482   1.082   .     S
C1481  H1483   1.109   .     S
C1481  H1484   1.109   .     S
C1485  H1486   1.082   .     S
C1485  H1487   1.109   .     S
C1485  H1488   1.109   .     S
C1489  H1490   1.082   .     S
C1489  H1491   1.109   .     S
C1489  H1492   1.109   .     S
C1493  H1496   1.109   .     S
C1493  H1495   1.109   .     S
C1493  H1494   1.082   .     S
O1497  C1501   1.306   .     A
O1497  Cu1509  1.963   .     S
O1498  C1502   1.306   .     A
O1498  Cu1510  1.963   .     S
O1499  C1502   1.305   .     A
O1499  Cu1509  1.962   .     S
O1500  C1501   1.305   .     A
O1500  Cu1510  1.962   .     S
C1501  C1532   1.451   .     S
C1502  C1531   1.451   .     S
O1503  C1507   1.305   .     A
O1503  Cu1509  1.956   .     S
O1504  C1508   1.302   .     A
O1504  Cu1510  1.956   .     S
O1505  Cu1509  1.955   .     S
O1505  C1508   1.304   .     A
O1506  Cu1510  1.955   .     S
O1506  C1507   1.304   .     A
C1507  C1514   1.454   .     S
C1508  C1513   1.449   .     S
Cu1509 N1537   2.047   .     S
Cu1509 Cu1510  2.724   .     S
Cu1510 N1538   2.047   .     S
C1511  C1513   1.387   .     A
C1511  H1539   1.082   .     S
C1511  C1521   1.400   .     A
C1512  H1540   1.082   .     S
C1512  C1522   1.400   .     A
C1512  C1514   1.389   .     A
C1513  C1515   1.403   .     A
C1514  C1516   1.406   .     A
C1515  C1517   1.420   .     A
C1515  C1541   1.518   .     S
C1516  C1545   1.518   .     S
C1516  C1518   1.420   .     A
C1517  C1523   1.422   .     A
C1517  C1519   1.423   .     A
C1518  C1524   1.421   .     A
C1518  C1520   1.421   .     A
C1519  C1521   1.419   .     A
C1519  C728    1.406   1_556 S
C1520  C1522   1.417   .     A
C1521  C1526   1.418   .     A
C1522  C1525   1.417   .     A
C1523  C1549   1.518   .     S
C1523  C733    1.413   1_556 S
C1524  C1553   1.518   .     S
C1525  C1557   1.520   .     S
C1526  C1561   1.521   .     S
C1526  C732    1.413   1_556 S
C1527  H1565   1.083   .     S
C1527  C1532   1.402   .     A
C1528  C1531   1.402   .     A
C1528  H1566   1.083   .     S
C1528  C1354   1.383   1_655 S
C1529  C1531   1.401   .     A
C1529  H1567   1.083   .     S
C1529  C1351   1.383   1_655 S
C1530  C1532   1.401   .     A
C1530  H1568   1.083   .     S
C1533  N1538   1.383   .     A
C1533  C1569   1.521   .     S
C1534  N1537   1.383   .     A
C1534  C1573   1.521   .     S
C1534  C1007   1.436   1_565 S
C1535  N1538   1.382   .     A
C1535  C1577   1.520   .     S
C1536  C1581   1.520   .     S
C1536  N1537   1.382   .     A
C1536  C1005   1.436   1_565 S
C1541  H1543   1.110   .     S
C1541  H1544   1.107   .     S
C1541  H1542   1.111   .     S
C1545  H1547   1.110   .     S
C1545  H1548   1.106   .     S
C1545  H1546   1.109   .     S
C1549  H1552   1.110   .     S
C1549  H1551   1.111   .     S
C1549  H1550   1.108   .     S
C1553  H1556   1.110   .     S
C1553  H1554   1.109   .     S
C1553  H1555   1.110   .     S
C1557  H1559   1.110   .     S
C1557  H1560   1.111   .     S
C1557  H1558   1.107   .     S
C1561  H1563   1.111   .     S
C1561  H1564   1.110   .     S
C1561  H1562   1.107   .     S
C1569  H1570   1.082   .     S
C1569  H1571   1.109   .     S
C1569  H1572   1.109   .     S
C1573  H1574   1.082   .     S
C1573  H1575   1.109   .     S
C1573  H1576   1.109   .     S
C1577  H1578   1.082   .     S
C1577  H1579   1.109   .     S
C1577  H1580   1.109   .     S
C1581  H1584   1.109   .     S
C1581  H1583   1.109   .     S
C1581  H1582   1.082   .     S
