data_str_m2_o1_o5_pcu_sym.25
_audit_creation_date              2020-01-03
_audit_creation_method            'Materials Studio'
_symmetry_space_group_name_H-M    'P1'
_symmetry_Int_Tables_number       1
_symmetry_cell_setting            triclinic
loop_
_symmetry_equiv_pos_as_xyz
  x,y,z
_cell_length_a                    32.2142
_cell_length_b                    29.0715
_cell_length_c                    27.1320
_cell_angle_alpha                 89.9986
_cell_angle_beta                  92.2016
_cell_angle_gamma                 89.9986
loop_
_atom_site_label
_atom_site_type_symbol
_atom_site_fract_x
_atom_site_fract_y
_atom_site_fract_z
_atom_site_U_iso_or_equiv
_atom_site_adp_type
_atom_site_occupancy
C1     C     0.08759   0.16667   0.16661   0.00000  Uiso   1.00
C2     C     0.02007   0.16669   0.12191   0.00000  Uiso   1.00
C3     C     0.29039   0.16667   0.16663   0.00000  Uiso   1.00
C4     C     0.04294   0.16667   0.16670   0.00000  Uiso   1.00
C5     C     0.14061   0.02466   0.13507   0.00000  Uiso   1.00
C6     C     0.19273   0.30867   0.19826   0.00000  Uiso   1.00
C7     C     0.19273   0.02466   0.19826   0.00000  Uiso   1.00
C8     C     0.14061   0.30867   0.13507   0.00000  Uiso   1.00
C9     C     0.11268   0.04836   0.09862   0.00000  Uiso   1.00
C10    C     0.07063   0.05506   0.10847   0.00000  Uiso   1.00
C11    C     0.04284   0.07051   0.07123   0.00000  Uiso   1.00
C12    C     0.24574   0.16667   0.16672   0.00000  Uiso   1.00
C13    C     0.05689   0.07979   0.02415   0.00000  Uiso   1.00
C14    C     0.09827   0.07171   0.01363   0.00000  Uiso   1.00
C15    C     0.12582   0.05503   0.05041   0.00000  Uiso   1.00
C16    C     0.22065   0.28497   0.23471   0.00000  Uiso   1.00
C17    C     0.20751   0.27830   0.28292   0.00000  Uiso   1.00
C18    C     0.23506   0.26162   0.31970   0.00000  Uiso   1.00
C19    C     0.27644   0.25355   0.30919   0.00000  Uiso   1.00
C20    C     0.29050   0.26282   0.26210   0.00000  Uiso   1.00
C21    C     0.26271   0.27828   0.22486   0.00000  Uiso   1.00
C22    C     0.22064   0.04835   0.23471   0.00000  Uiso   1.00
C23    C     0.16663   0.16667   0.07373   0.00000  Uiso   1.00
C24    C     0.26271   0.05504   0.22488   0.00000  Uiso   1.00
C25    C     0.29050   0.07048   0.26212   0.00000  Uiso   1.00
C26    C     0.27644   0.07975   0.30920   0.00000  Uiso   1.00
C27    C     0.23505   0.07169   0.31971   0.00000  Uiso   1.00
C28    C     0.20751   0.05502   0.28292   0.00000  Uiso   1.00
C29    C     0.11269   0.28498   0.09862   0.00000  Uiso   1.00
C30    C     0.12583   0.27831   0.05041   0.00000  Uiso   1.00
C31    C     0.09828   0.26165   0.01362   0.00000  Uiso   1.00
C32    C     0.05689   0.25358   0.02413   0.00000  Uiso   1.00
C33    C     0.04284   0.26285   0.07121   0.00000  Uiso   1.00
C34    C     0.16670   0.16667   0.25961   0.00000  Uiso   1.00
C35    C     0.07063   0.27829   0.10846   0.00000  Uiso   1.00
C36    C     0.16667   0.16667   0.02191   0.00000  Uiso   1.00
C37    C     0.16667   0.16667   0.31143   0.00000  Uiso   1.00
C38    C     0.02304   0.16665   0.21153   0.00000  Uiso   1.00
C39    C     0.31029   0.16669   0.12180   0.00000  Uiso   1.00
C40    C     0.31326   0.16665   0.21143   0.00000  Uiso   1.00
Cu41   Cu    0.16667   0.21355   0.16667   0.00000  Uiso   1.00
Cu42   Cu    0.16667   0.11978   0.16667   0.00000  Uiso   1.00
H43    H     0.04080   0.16663   0.24628   0.00000  Uiso   1.00
H44    H     0.17589   0.28626   0.29169   0.00000  Uiso   1.00
H45    H     0.22456   0.25547   0.02318   0.00000  Uiso   1.00
H46    H     0.29754   0.24060   0.00447   0.00000  Uiso   1.00
H47    H     0.32290   0.25796   0.25436   0.00000  Uiso   1.00
H48    H     0.27406   0.28595   0.18870   0.00000  Uiso   1.00
H49    H     0.27406   0.04738   0.18872   0.00000  Uiso   1.00
H50    H     0.32290   0.07534   0.25439   0.00000  Uiso   1.00
H51    H     0.29753   0.09268   0.00450   0.00000  Uiso   1.00
H52    H     0.22455   0.07783   0.02319   0.00000  Uiso   1.00
H53    H     0.17588   0.04707   0.29169   0.00000  Uiso   1.00
H54    H     0.29253   0.16670   0.08706   0.00000  Uiso   1.00
H55    H     0.15746   0.28626   0.04165   0.00000  Uiso   1.00
H56    H     0.10878   0.25550   0.31014   0.00000  Uiso   1.00
H57    H     0.03580   0.24066   0.32884   0.00000  Uiso   1.00
H58    H     0.01043   0.25800   0.07894   0.00000  Uiso   1.00
H59    H     0.05928   0.28596   0.14462   0.00000  Uiso   1.00
H60    H     0.29770   0.16663   0.24611   0.00000  Uiso   1.00
H61    H     0.03563   0.16670   0.08722   0.00000  Uiso   1.00
H62    H     0.05928   0.04739   0.14463   0.00000  Uiso   1.00
H63    H     0.01044   0.07538   0.07897   0.00000  Uiso   1.00
H64    H     0.03579   0.09273   0.32886   0.00000  Uiso   1.00
H65    H     0.10877   0.07786   0.31015   0.00000  Uiso   1.00
H66    H     0.15745   0.04707   0.04164   0.00000  Uiso   1.00
N67    N     0.16667   0.28402   0.16667   0.00000  Uiso   1.00
N68    N     0.16667   0.04931   0.16667   0.00000  Uiso   1.00
O69    O     0.10655   0.20625   0.16666   0.00000  Uiso   1.00
O70    O     0.22679   0.12709   0.16667   0.00000  Uiso   1.00
O71    O     0.22679   0.20625   0.16667   0.00000  Uiso   1.00
O72    O     0.10655   0.12709   0.16666   0.00000  Uiso   1.00
O73    O     0.16667   0.20625   0.09613   0.00000  Uiso   1.00
O74    O     0.16667   0.12708   0.23720   0.00000  Uiso   1.00
O75    O     0.16667   0.20625   0.23720   0.00000  Uiso   1.00
O76    O     0.16667   0.12708   0.09613   0.00000  Uiso   1.00
C77    C     0.42092   0.16667   0.16661   0.00000  Uiso   1.00
C78    C     0.35340   0.16669   0.12191   0.00000  Uiso   1.00
C79    C     0.62372   0.16667   0.16663   0.00000  Uiso   1.00
C80    C     0.37627   0.16667   0.16670   0.00000  Uiso   1.00
C81    C     0.47394   0.02466   0.13507   0.00000  Uiso   1.00
C82    C     0.52606   0.30867   0.19826   0.00000  Uiso   1.00
C83    C     0.52606   0.02466   0.19826   0.00000  Uiso   1.00
C84    C     0.47394   0.30867   0.13507   0.00000  Uiso   1.00
C85    C     0.44602   0.04836   0.09862   0.00000  Uiso   1.00
C86    C     0.40396   0.05506   0.10847   0.00000  Uiso   1.00
C87    C     0.37617   0.07051   0.07123   0.00000  Uiso   1.00
C88    C     0.57908   0.16667   0.16672   0.00000  Uiso   1.00
C89    C     0.39022   0.07979   0.02415   0.00000  Uiso   1.00
C90    C     0.43160   0.07171   0.01363   0.00000  Uiso   1.00
C91    C     0.45915   0.05503   0.05041   0.00000  Uiso   1.00
C92    C     0.55398   0.28497   0.23471   0.00000  Uiso   1.00
C93    C     0.54085   0.27830   0.28292   0.00000  Uiso   1.00
C94    C     0.56840   0.26162   0.31970   0.00000  Uiso   1.00
C95    C     0.60978   0.25355   0.30919   0.00000  Uiso   1.00
C96    C     0.62383   0.26282   0.26210   0.00000  Uiso   1.00
C97    C     0.59604   0.27828   0.22486   0.00000  Uiso   1.00
C98    C     0.55398   0.04835   0.23471   0.00000  Uiso   1.00
C99    C     0.49996   0.16667   0.07373   0.00000  Uiso   1.00
C100   C     0.59604   0.05504   0.22488   0.00000  Uiso   1.00
C101   C     0.62383   0.07048   0.26212   0.00000  Uiso   1.00
C102   C     0.60977   0.07975   0.30920   0.00000  Uiso   1.00
C103   C     0.56839   0.07169   0.31971   0.00000  Uiso   1.00
C104   C     0.54084   0.05502   0.28292   0.00000  Uiso   1.00
C105   C     0.44602   0.28498   0.09862   0.00000  Uiso   1.00
C106   C     0.45916   0.27831   0.05041   0.00000  Uiso   1.00
C107   C     0.43161   0.26165   0.01362   0.00000  Uiso   1.00
C108   C     0.39023   0.25358   0.02413   0.00000  Uiso   1.00
C109   C     0.37617   0.26285   0.07121   0.00000  Uiso   1.00
C110   C     0.50004   0.16667   0.25961   0.00000  Uiso   1.00
C111   C     0.40396   0.27829   0.10846   0.00000  Uiso   1.00
C112   C     0.50000   0.16667   0.02191   0.00000  Uiso   1.00
C113   C     0.50000   0.16667   0.31143   0.00000  Uiso   1.00
C114   C     0.35638   0.16665   0.21153   0.00000  Uiso   1.00
C115   C     0.64362   0.16669   0.12180   0.00000  Uiso   1.00
C116   C     0.64659   0.16665   0.21143   0.00000  Uiso   1.00
Cu117  Cu    0.50000   0.21355   0.16667   0.00000  Uiso   1.00
Cu118  Cu    0.50000   0.11978   0.16667   0.00000  Uiso   1.00
H119   H     0.37414   0.16663   0.24628   0.00000  Uiso   1.00
H120   H     0.50922   0.28626   0.29169   0.00000  Uiso   1.00
H121   H     0.55789   0.25547   0.02318   0.00000  Uiso   1.00
H122   H     0.63087   0.24060   0.00447   0.00000  Uiso   1.00
H123   H     0.65623   0.25796   0.25436   0.00000  Uiso   1.00
H124   H     0.60739   0.28595   0.18870   0.00000  Uiso   1.00
H125   H     0.60739   0.04738   0.18872   0.00000  Uiso   1.00
H126   H     0.65623   0.07534   0.25439   0.00000  Uiso   1.00
H127   H     0.63087   0.09268   0.00450   0.00000  Uiso   1.00
H128   H     0.55788   0.07783   0.02319   0.00000  Uiso   1.00
H129   H     0.50921   0.04707   0.29169   0.00000  Uiso   1.00
H130   H     0.62586   0.16670   0.08706   0.00000  Uiso   1.00
H131   H     0.49079   0.28626   0.04165   0.00000  Uiso   1.00
H132   H     0.44212   0.25550   0.31014   0.00000  Uiso   1.00
H133   H     0.36913   0.24066   0.32884   0.00000  Uiso   1.00
H134   H     0.34377   0.25800   0.07894   0.00000  Uiso   1.00
H135   H     0.39261   0.28596   0.14462   0.00000  Uiso   1.00
H136   H     0.63104   0.16663   0.24611   0.00000  Uiso   1.00
H137   H     0.36896   0.16670   0.08722   0.00000  Uiso   1.00
H138   H     0.39261   0.04739   0.14463   0.00000  Uiso   1.00
H139   H     0.34377   0.07538   0.07897   0.00000  Uiso   1.00
H140   H     0.36913   0.09273   0.32886   0.00000  Uiso   1.00
H141   H     0.44211   0.07786   0.31015   0.00000  Uiso   1.00
H142   H     0.49078   0.04707   0.04164   0.00000  Uiso   1.00
N143   N     0.50000   0.28402   0.16667   0.00000  Uiso   1.00
N144   N     0.50000   0.04931   0.16667   0.00000  Uiso   1.00
O145   O     0.43988   0.20625   0.16666   0.00000  Uiso   1.00
O146   O     0.56012   0.12709   0.16667   0.00000  Uiso   1.00
O147   O     0.56012   0.20625   0.16667   0.00000  Uiso   1.00
O148   O     0.43988   0.12709   0.16666   0.00000  Uiso   1.00
O149   O     0.50000   0.20625   0.09613   0.00000  Uiso   1.00
O150   O     0.50000   0.12708   0.23720   0.00000  Uiso   1.00
O151   O     0.50000   0.20625   0.23720   0.00000  Uiso   1.00
O152   O     0.50000   0.12708   0.09613   0.00000  Uiso   1.00
C153   C     0.75426   0.16667   0.16661   0.00000  Uiso   1.00
C154   C     0.68674   0.16669   0.12191   0.00000  Uiso   1.00
C155   C     0.95706   0.16667   0.16663   0.00000  Uiso   1.00
C156   C     0.70961   0.16667   0.16670   0.00000  Uiso   1.00
C157   C     0.80727   0.02466   0.13507   0.00000  Uiso   1.00
C158   C     0.85939   0.30867   0.19826   0.00000  Uiso   1.00
C159   C     0.85939   0.02466   0.19826   0.00000  Uiso   1.00
C160   C     0.80727   0.30867   0.13507   0.00000  Uiso   1.00
C161   C     0.77935   0.04836   0.09862   0.00000  Uiso   1.00
C162   C     0.73729   0.05506   0.10847   0.00000  Uiso   1.00
C163   C     0.70950   0.07051   0.07123   0.00000  Uiso   1.00
C164   C     0.91241   0.16667   0.16672   0.00000  Uiso   1.00
C165   C     0.72356   0.07979   0.02415   0.00000  Uiso   1.00
C166   C     0.76494   0.07171   0.01363   0.00000  Uiso   1.00
C167   C     0.79249   0.05503   0.05041   0.00000  Uiso   1.00
C168   C     0.88731   0.28497   0.23471   0.00000  Uiso   1.00
C169   C     0.87418   0.27830   0.28292   0.00000  Uiso   1.00
C170   C     0.90173   0.26162   0.31970   0.00000  Uiso   1.00
C171   C     0.94311   0.25355   0.30919   0.00000  Uiso   1.00
C172   C     0.95716   0.26282   0.26210   0.00000  Uiso   1.00
C173   C     0.92937   0.27828   0.22486   0.00000  Uiso   1.00
C174   C     0.88731   0.04835   0.23471   0.00000  Uiso   1.00
C175   C     0.83330   0.16667   0.07373   0.00000  Uiso   1.00
C176   C     0.92937   0.05504   0.22488   0.00000  Uiso   1.00
C177   C     0.95716   0.07048   0.26212   0.00000  Uiso   1.00
C178   C     0.94311   0.07975   0.30920   0.00000  Uiso   1.00
C179   C     0.90172   0.07169   0.31971   0.00000  Uiso   1.00
C180   C     0.87417   0.05502   0.28292   0.00000  Uiso   1.00
C181   C     0.77935   0.28498   0.09862   0.00000  Uiso   1.00
C182   C     0.79249   0.27831   0.05041   0.00000  Uiso   1.00
C183   C     0.76495   0.26165   0.01362   0.00000  Uiso   1.00
C184   C     0.72356   0.25358   0.02413   0.00000  Uiso   1.00
C185   C     0.70950   0.26285   0.07121   0.00000  Uiso   1.00
C186   C     0.83337   0.16667   0.25961   0.00000  Uiso   1.00
C187   C     0.73729   0.27829   0.10846   0.00000  Uiso   1.00
C188   C     0.83333   0.16667   0.02191   0.00000  Uiso   1.00
C189   C     0.83333   0.16667   0.31143   0.00000  Uiso   1.00
C190   C     0.68971   0.16665   0.21153   0.00000  Uiso   1.00
C191   C     0.97696   0.16669   0.12180   0.00000  Uiso   1.00
C192   C     0.97993   0.16665   0.21143   0.00000  Uiso   1.00
Cu193  Cu    0.83333   0.21355   0.16667   0.00000  Uiso   1.00
Cu194  Cu    0.83333   0.11978   0.16667   0.00000  Uiso   1.00
H195   H     0.70747   0.16663   0.24628   0.00000  Uiso   1.00
H196   H     0.84255   0.28626   0.29169   0.00000  Uiso   1.00
H197   H     0.89123   0.25547   0.02318   0.00000  Uiso   1.00
H198   H     0.96421   0.24060   0.00447   0.00000  Uiso   1.00
H199   H     0.98956   0.25796   0.25436   0.00000  Uiso   1.00
H200   H     0.94072   0.28595   0.18870   0.00000  Uiso   1.00
H201   H     0.94072   0.04738   0.18872   0.00000  Uiso   1.00
H202   H     0.98957   0.07534   0.25439   0.00000  Uiso   1.00
H203   H     0.96420   0.09268   0.00450   0.00000  Uiso   1.00
H204   H     0.89122   0.07783   0.02319   0.00000  Uiso   1.00
H205   H     0.84254   0.04707   0.29169   0.00000  Uiso   1.00
H206   H     0.95920   0.16670   0.08706   0.00000  Uiso   1.00
H207   H     0.82412   0.28626   0.04165   0.00000  Uiso   1.00
H208   H     0.77545   0.25550   0.31014   0.00000  Uiso   1.00
H209   H     0.70247   0.24066   0.32884   0.00000  Uiso   1.00
H210   H     0.67710   0.25800   0.07894   0.00000  Uiso   1.00
H211   H     0.72594   0.28596   0.14462   0.00000  Uiso   1.00
H212   H     0.96437   0.16663   0.24611   0.00000  Uiso   1.00
H213   H     0.70230   0.16670   0.08722   0.00000  Uiso   1.00
H214   H     0.72594   0.04739   0.14463   0.00000  Uiso   1.00
H215   H     0.67710   0.07538   0.07897   0.00000  Uiso   1.00
H216   H     0.70246   0.09273   0.32886   0.00000  Uiso   1.00
H217   H     0.77544   0.07786   0.31015   0.00000  Uiso   1.00
H218   H     0.82411   0.04707   0.04164   0.00000  Uiso   1.00
N219   N     0.83333   0.28402   0.16667   0.00000  Uiso   1.00
N220   N     0.83333   0.04931   0.16667   0.00000  Uiso   1.00
O221   O     0.77321   0.20625   0.16666   0.00000  Uiso   1.00
O222   O     0.89345   0.12709   0.16667   0.00000  Uiso   1.00
O223   O     0.89345   0.20625   0.16667   0.00000  Uiso   1.00
O224   O     0.77321   0.12709   0.16666   0.00000  Uiso   1.00
O225   O     0.83333   0.20625   0.09613   0.00000  Uiso   1.00
O226   O     0.83333   0.12708   0.23720   0.00000  Uiso   1.00
O227   O     0.83333   0.20625   0.23720   0.00000  Uiso   1.00
O228   O     0.83333   0.12708   0.09613   0.00000  Uiso   1.00
C229   C     0.08759   0.50000   0.16661   0.00000  Uiso   1.00
C230   C     0.02007   0.50002   0.12191   0.00000  Uiso   1.00
C231   C     0.29039   0.50000   0.16663   0.00000  Uiso   1.00
C232   C     0.04294   0.50000   0.16670   0.00000  Uiso   1.00
C233   C     0.14061   0.35800   0.13507   0.00000  Uiso   1.00
C234   C     0.19273   0.64200   0.19826   0.00000  Uiso   1.00
C235   C     0.19273   0.35800   0.19826   0.00000  Uiso   1.00
C236   C     0.14061   0.64200   0.13507   0.00000  Uiso   1.00
C237   C     0.11268   0.38169   0.09862   0.00000  Uiso   1.00
C238   C     0.07063   0.38839   0.10847   0.00000  Uiso   1.00
C239   C     0.04284   0.40385   0.07123   0.00000  Uiso   1.00
C240   C     0.24574   0.50000   0.16672   0.00000  Uiso   1.00
C241   C     0.05689   0.41312   0.02415   0.00000  Uiso   1.00
C242   C     0.09827   0.40505   0.01363   0.00000  Uiso   1.00
C243   C     0.12582   0.38836   0.05041   0.00000  Uiso   1.00
C244   C     0.22065   0.61831   0.23471   0.00000  Uiso   1.00
C245   C     0.20751   0.61163   0.28292   0.00000  Uiso   1.00
C246   C     0.23506   0.59495   0.31970   0.00000  Uiso   1.00
C247   C     0.27644   0.58688   0.30919   0.00000  Uiso   1.00
C248   C     0.29050   0.59615   0.26210   0.00000  Uiso   1.00
C249   C     0.26271   0.61161   0.22486   0.00000  Uiso   1.00
C250   C     0.22064   0.38169   0.23471   0.00000  Uiso   1.00
C251   C     0.16663   0.50000   0.07373   0.00000  Uiso   1.00
C252   C     0.26271   0.38837   0.22488   0.00000  Uiso   1.00
C253   C     0.29050   0.40382   0.26212   0.00000  Uiso   1.00
C254   C     0.27644   0.41308   0.30920   0.00000  Uiso   1.00
C255   C     0.23505   0.40502   0.31971   0.00000  Uiso   1.00
C256   C     0.20751   0.38835   0.28292   0.00000  Uiso   1.00
C257   C     0.11269   0.61831   0.09862   0.00000  Uiso   1.00
C258   C     0.12583   0.61165   0.05041   0.00000  Uiso   1.00
C259   C     0.09828   0.59498   0.01362   0.00000  Uiso   1.00
C260   C     0.05689   0.58692   0.02413   0.00000  Uiso   1.00
C261   C     0.04284   0.59618   0.07121   0.00000  Uiso   1.00
C262   C     0.16670   0.50000   0.25961   0.00000  Uiso   1.00
C263   C     0.07063   0.61162   0.10846   0.00000  Uiso   1.00
C264   C     0.16667   0.50000   0.02191   0.00000  Uiso   1.00
C265   C     0.16667   0.50000   0.31143   0.00000  Uiso   1.00
C266   C     0.02304   0.49998   0.21153   0.00000  Uiso   1.00
C267   C     0.31029   0.50002   0.12180   0.00000  Uiso   1.00
C268   C     0.31326   0.49998   0.21143   0.00000  Uiso   1.00
Cu269  Cu    0.16667   0.54689   0.16667   0.00000  Uiso   1.00
Cu270  Cu    0.16667   0.45311   0.16667   0.00000  Uiso   1.00
H271   H     0.04080   0.49996   0.24628   0.00000  Uiso   1.00
H272   H     0.17589   0.61959   0.29169   0.00000  Uiso   1.00
H273   H     0.22456   0.58880   0.02318   0.00000  Uiso   1.00
H274   H     0.29754   0.57393   0.00447   0.00000  Uiso   1.00
H275   H     0.32290   0.59129   0.25436   0.00000  Uiso   1.00
H276   H     0.27406   0.61928   0.18870   0.00000  Uiso   1.00
H277   H     0.27406   0.38071   0.18872   0.00000  Uiso   1.00
H278   H     0.32290   0.40867   0.25439   0.00000  Uiso   1.00
H279   H     0.29753   0.42601   0.00450   0.00000  Uiso   1.00
H280   H     0.22455   0.41117   0.02319   0.00000  Uiso   1.00
H281   H     0.17588   0.38040   0.29169   0.00000  Uiso   1.00
H282   H     0.29253   0.50004   0.08706   0.00000  Uiso   1.00
H283   H     0.15746   0.61960   0.04165   0.00000  Uiso   1.00
H284   H     0.10878   0.58883   0.31014   0.00000  Uiso   1.00
H285   H     0.03580   0.57399   0.32884   0.00000  Uiso   1.00
H286   H     0.01043   0.59133   0.07894   0.00000  Uiso   1.00
H287   H     0.05928   0.61929   0.14462   0.00000  Uiso   1.00
H288   H     0.29770   0.49997   0.24611   0.00000  Uiso   1.00
H289   H     0.03563   0.50003   0.08722   0.00000  Uiso   1.00
H290   H     0.05928   0.38072   0.14463   0.00000  Uiso   1.00
H291   H     0.01044   0.40871   0.07897   0.00000  Uiso   1.00
H292   H     0.03579   0.42607   0.32886   0.00000  Uiso   1.00
H293   H     0.10877   0.41120   0.31015   0.00000  Uiso   1.00
H294   H     0.15745   0.38041   0.04164   0.00000  Uiso   1.00
N295   N     0.16667   0.61736   0.16667   0.00000  Uiso   1.00
N296   N     0.16667   0.38264   0.16667   0.00000  Uiso   1.00
O297   O     0.10655   0.53958   0.16666   0.00000  Uiso   1.00
O298   O     0.22679   0.46042   0.16667   0.00000  Uiso   1.00
O299   O     0.22679   0.53958   0.16667   0.00000  Uiso   1.00
O300   O     0.10655   0.46042   0.16666   0.00000  Uiso   1.00
O301   O     0.16667   0.53959   0.09613   0.00000  Uiso   1.00
O302   O     0.16667   0.46041   0.23720   0.00000  Uiso   1.00
O303   O     0.16667   0.53959   0.23720   0.00000  Uiso   1.00
O304   O     0.16667   0.46041   0.09613   0.00000  Uiso   1.00
C305   C     0.42092   0.50000   0.16661   0.00000  Uiso   1.00
C306   C     0.35340   0.50002   0.12191   0.00000  Uiso   1.00
C307   C     0.62372   0.50000   0.16663   0.00000  Uiso   1.00
C308   C     0.37627   0.50000   0.16670   0.00000  Uiso   1.00
C309   C     0.47394   0.35800   0.13507   0.00000  Uiso   1.00
C310   C     0.52606   0.64200   0.19826   0.00000  Uiso   1.00
C311   C     0.52606   0.35800   0.19826   0.00000  Uiso   1.00
C312   C     0.47394   0.64200   0.13507   0.00000  Uiso   1.00
C313   C     0.44602   0.38169   0.09862   0.00000  Uiso   1.00
C314   C     0.40396   0.38839   0.10847   0.00000  Uiso   1.00
C315   C     0.37617   0.40385   0.07123   0.00000  Uiso   1.00
C316   C     0.57908   0.50000   0.16672   0.00000  Uiso   1.00
C317   C     0.39022   0.41312   0.02415   0.00000  Uiso   1.00
C318   C     0.43160   0.40505   0.01363   0.00000  Uiso   1.00
C319   C     0.45915   0.38836   0.05041   0.00000  Uiso   1.00
C320   C     0.55398   0.61831   0.23471   0.00000  Uiso   1.00
C321   C     0.54085   0.61163   0.28292   0.00000  Uiso   1.00
C322   C     0.56840   0.59495   0.31970   0.00000  Uiso   1.00
C323   C     0.60978   0.58688   0.30919   0.00000  Uiso   1.00
C324   C     0.62383   0.59615   0.26210   0.00000  Uiso   1.00
C325   C     0.59604   0.61161   0.22486   0.00000  Uiso   1.00
C326   C     0.55398   0.38169   0.23471   0.00000  Uiso   1.00
C327   C     0.49996   0.50000   0.07373   0.00000  Uiso   1.00
C328   C     0.59604   0.38837   0.22488   0.00000  Uiso   1.00
C329   C     0.62383   0.40382   0.26212   0.00000  Uiso   1.00
C330   C     0.60977   0.41308   0.30920   0.00000  Uiso   1.00
C331   C     0.56839   0.40502   0.31971   0.00000  Uiso   1.00
C332   C     0.54084   0.38835   0.28292   0.00000  Uiso   1.00
C333   C     0.44602   0.61831   0.09862   0.00000  Uiso   1.00
C334   C     0.45916   0.61165   0.05041   0.00000  Uiso   1.00
C335   C     0.43161   0.59498   0.01362   0.00000  Uiso   1.00
C336   C     0.39023   0.58692   0.02413   0.00000  Uiso   1.00
C337   C     0.37617   0.59618   0.07121   0.00000  Uiso   1.00
C338   C     0.50004   0.50000   0.25961   0.00000  Uiso   1.00
C339   C     0.40396   0.61162   0.10846   0.00000  Uiso   1.00
C340   C     0.50000   0.50000   0.02191   0.00000  Uiso   1.00
C341   C     0.50000   0.50000   0.31143   0.00000  Uiso   1.00
C342   C     0.35638   0.49998   0.21153   0.00000  Uiso   1.00
C343   C     0.64362   0.50002   0.12180   0.00000  Uiso   1.00
C344   C     0.64659   0.49998   0.21143   0.00000  Uiso   1.00
Cu345  Cu    0.50000   0.54689   0.16667   0.00000  Uiso   1.00
Cu346  Cu    0.50000   0.45311   0.16667   0.00000  Uiso   1.00
H347   H     0.37414   0.49996   0.24628   0.00000  Uiso   1.00
H348   H     0.50922   0.61959   0.29169   0.00000  Uiso   1.00
H349   H     0.55789   0.58880   0.02318   0.00000  Uiso   1.00
H350   H     0.63087   0.57393   0.00447   0.00000  Uiso   1.00
H351   H     0.65623   0.59129   0.25436   0.00000  Uiso   1.00
H352   H     0.60739   0.61928   0.18870   0.00000  Uiso   1.00
H353   H     0.60739   0.38071   0.18872   0.00000  Uiso   1.00
H354   H     0.65623   0.40867   0.25439   0.00000  Uiso   1.00
H355   H     0.63087   0.42601   0.00450   0.00000  Uiso   1.00
H356   H     0.55788   0.41117   0.02319   0.00000  Uiso   1.00
H357   H     0.50921   0.38040   0.29169   0.00000  Uiso   1.00
H358   H     0.62586   0.50004   0.08706   0.00000  Uiso   1.00
H359   H     0.49079   0.61960   0.04165   0.00000  Uiso   1.00
H360   H     0.44212   0.58883   0.31014   0.00000  Uiso   1.00
H361   H     0.36913   0.57399   0.32884   0.00000  Uiso   1.00
H362   H     0.34377   0.59133   0.07894   0.00000  Uiso   1.00
H363   H     0.39261   0.61929   0.14462   0.00000  Uiso   1.00
H364   H     0.63104   0.49997   0.24611   0.00000  Uiso   1.00
H365   H     0.36896   0.50003   0.08722   0.00000  Uiso   1.00
H366   H     0.39261   0.38072   0.14463   0.00000  Uiso   1.00
H367   H     0.34377   0.40871   0.07897   0.00000  Uiso   1.00
H368   H     0.36913   0.42607   0.32886   0.00000  Uiso   1.00
H369   H     0.44211   0.41120   0.31015   0.00000  Uiso   1.00
H370   H     0.49078   0.38041   0.04164   0.00000  Uiso   1.00
N371   N     0.50000   0.61736   0.16667   0.00000  Uiso   1.00
N372   N     0.50000   0.38264   0.16667   0.00000  Uiso   1.00
O373   O     0.43988   0.53958   0.16666   0.00000  Uiso   1.00
O374   O     0.56012   0.46042   0.16667   0.00000  Uiso   1.00
O375   O     0.56012   0.53958   0.16667   0.00000  Uiso   1.00
O376   O     0.43988   0.46042   0.16666   0.00000  Uiso   1.00
O377   O     0.50000   0.53959   0.09613   0.00000  Uiso   1.00
O378   O     0.50000   0.46041   0.23720   0.00000  Uiso   1.00
O379   O     0.50000   0.53959   0.23720   0.00000  Uiso   1.00
O380   O     0.50000   0.46041   0.09613   0.00000  Uiso   1.00
C381   C     0.75426   0.50000   0.16661   0.00000  Uiso   1.00
C382   C     0.68674   0.50002   0.12191   0.00000  Uiso   1.00
C383   C     0.95706   0.50000   0.16663   0.00000  Uiso   1.00
C384   C     0.70961   0.50000   0.16670   0.00000  Uiso   1.00
C385   C     0.80727   0.35800   0.13507   0.00000  Uiso   1.00
C386   C     0.85939   0.64200   0.19826   0.00000  Uiso   1.00
C387   C     0.85939   0.35800   0.19826   0.00000  Uiso   1.00
C388   C     0.80727   0.64200   0.13507   0.00000  Uiso   1.00
C389   C     0.77935   0.38169   0.09862   0.00000  Uiso   1.00
C390   C     0.73729   0.38839   0.10847   0.00000  Uiso   1.00
C391   C     0.70950   0.40385   0.07123   0.00000  Uiso   1.00
C392   C     0.91241   0.50000   0.16672   0.00000  Uiso   1.00
C393   C     0.72356   0.41312   0.02415   0.00000  Uiso   1.00
C394   C     0.76494   0.40505   0.01363   0.00000  Uiso   1.00
C395   C     0.79249   0.38836   0.05041   0.00000  Uiso   1.00
C396   C     0.88731   0.61831   0.23471   0.00000  Uiso   1.00
C397   C     0.87418   0.61163   0.28292   0.00000  Uiso   1.00
C398   C     0.90173   0.59495   0.31970   0.00000  Uiso   1.00
C399   C     0.94311   0.58688   0.30919   0.00000  Uiso   1.00
C400   C     0.95716   0.59615   0.26210   0.00000  Uiso   1.00
C401   C     0.92937   0.61161   0.22486   0.00000  Uiso   1.00
C402   C     0.88731   0.38169   0.23471   0.00000  Uiso   1.00
C403   C     0.83330   0.50000   0.07373   0.00000  Uiso   1.00
C404   C     0.92937   0.38837   0.22488   0.00000  Uiso   1.00
C405   C     0.95716   0.40382   0.26212   0.00000  Uiso   1.00
C406   C     0.94311   0.41308   0.30920   0.00000  Uiso   1.00
C407   C     0.90172   0.40502   0.31971   0.00000  Uiso   1.00
C408   C     0.87417   0.38835   0.28292   0.00000  Uiso   1.00
C409   C     0.77935   0.61831   0.09862   0.00000  Uiso   1.00
C410   C     0.79249   0.61165   0.05041   0.00000  Uiso   1.00
C411   C     0.76495   0.59498   0.01362   0.00000  Uiso   1.00
C412   C     0.72356   0.58692   0.02413   0.00000  Uiso   1.00
C413   C     0.70950   0.59618   0.07121   0.00000  Uiso   1.00
C414   C     0.83337   0.50000   0.25961   0.00000  Uiso   1.00
C415   C     0.73729   0.61162   0.10846   0.00000  Uiso   1.00
C416   C     0.83333   0.50000   0.02191   0.00000  Uiso   1.00
C417   C     0.83333   0.50000   0.31143   0.00000  Uiso   1.00
C418   C     0.68971   0.49998   0.21153   0.00000  Uiso   1.00
C419   C     0.97696   0.50002   0.12180   0.00000  Uiso   1.00
C420   C     0.97993   0.49998   0.21143   0.00000  Uiso   1.00
Cu421  Cu    0.83333   0.54689   0.16667   0.00000  Uiso   1.00
Cu422  Cu    0.83333   0.45311   0.16667   0.00000  Uiso   1.00
H423   H     0.70747   0.49996   0.24628   0.00000  Uiso   1.00
H424   H     0.84255   0.61959   0.29169   0.00000  Uiso   1.00
H425   H     0.89123   0.58880   0.02318   0.00000  Uiso   1.00
H426   H     0.96421   0.57393   0.00447   0.00000  Uiso   1.00
H427   H     0.98956   0.59129   0.25436   0.00000  Uiso   1.00
H428   H     0.94072   0.61928   0.18870   0.00000  Uiso   1.00
H429   H     0.94072   0.38071   0.18872   0.00000  Uiso   1.00
H430   H     0.98957   0.40867   0.25439   0.00000  Uiso   1.00
H431   H     0.96420   0.42601   0.00450   0.00000  Uiso   1.00
H432   H     0.89122   0.41117   0.02319   0.00000  Uiso   1.00
H433   H     0.84254   0.38040   0.29169   0.00000  Uiso   1.00
H434   H     0.95920   0.50004   0.08706   0.00000  Uiso   1.00
H435   H     0.82412   0.61960   0.04165   0.00000  Uiso   1.00
H436   H     0.77545   0.58883   0.31014   0.00000  Uiso   1.00
H437   H     0.70247   0.57399   0.32884   0.00000  Uiso   1.00
H438   H     0.67710   0.59133   0.07894   0.00000  Uiso   1.00
H439   H     0.72594   0.61929   0.14462   0.00000  Uiso   1.00
H440   H     0.96437   0.49997   0.24611   0.00000  Uiso   1.00
H441   H     0.70230   0.50003   0.08722   0.00000  Uiso   1.00
H442   H     0.72594   0.38072   0.14463   0.00000  Uiso   1.00
H443   H     0.67710   0.40871   0.07897   0.00000  Uiso   1.00
H444   H     0.70246   0.42607   0.32886   0.00000  Uiso   1.00
H445   H     0.77544   0.41120   0.31015   0.00000  Uiso   1.00
H446   H     0.82411   0.38041   0.04164   0.00000  Uiso   1.00
N447   N     0.83333   0.61736   0.16667   0.00000  Uiso   1.00
N448   N     0.83333   0.38264   0.16667   0.00000  Uiso   1.00
O449   O     0.77321   0.53958   0.16666   0.00000  Uiso   1.00
O450   O     0.89345   0.46042   0.16667   0.00000  Uiso   1.00
O451   O     0.89345   0.53958   0.16667   0.00000  Uiso   1.00
O452   O     0.77321   0.46042   0.16666   0.00000  Uiso   1.00
O453   O     0.83333   0.53959   0.09613   0.00000  Uiso   1.00
O454   O     0.83333   0.46041   0.23720   0.00000  Uiso   1.00
O455   O     0.83333   0.53959   0.23720   0.00000  Uiso   1.00
O456   O     0.83333   0.46041   0.09613   0.00000  Uiso   1.00
C457   C     0.08759   0.83333   0.16661   0.00000  Uiso   1.00
C458   C     0.02007   0.83335   0.12191   0.00000  Uiso   1.00
C459   C     0.29039   0.83333   0.16663   0.00000  Uiso   1.00
C460   C     0.04294   0.83333   0.16670   0.00000  Uiso   1.00
C461   C     0.14061   0.69133   0.13507   0.00000  Uiso   1.00
C462   C     0.19273   0.97533   0.19826   0.00000  Uiso   1.00
C463   C     0.19273   0.69133   0.19826   0.00000  Uiso   1.00
C464   C     0.14061   0.97534   0.13507   0.00000  Uiso   1.00
C465   C     0.11268   0.71503   0.09862   0.00000  Uiso   1.00
C466   C     0.07063   0.72172   0.10847   0.00000  Uiso   1.00
C467   C     0.04284   0.73718   0.07123   0.00000  Uiso   1.00
C468   C     0.24574   0.83333   0.16672   0.00000  Uiso   1.00
C469   C     0.05689   0.74645   0.02415   0.00000  Uiso   1.00
C470   C     0.09827   0.73838   0.01363   0.00000  Uiso   1.00
C471   C     0.12582   0.72170   0.05041   0.00000  Uiso   1.00
C472   C     0.22065   0.95164   0.23471   0.00000  Uiso   1.00
C473   C     0.20751   0.94497   0.28292   0.00000  Uiso   1.00
C474   C     0.23506   0.92829   0.31970   0.00000  Uiso   1.00
C475   C     0.27644   0.92021   0.30919   0.00000  Uiso   1.00
C476   C     0.29050   0.92949   0.26210   0.00000  Uiso   1.00
C477   C     0.26271   0.94494   0.22486   0.00000  Uiso   1.00
C478   C     0.22064   0.71502   0.23471   0.00000  Uiso   1.00
C479   C     0.16663   0.83333   0.07373   0.00000  Uiso   1.00
C480   C     0.26271   0.72171   0.22488   0.00000  Uiso   1.00
C481   C     0.29050   0.73715   0.26212   0.00000  Uiso   1.00
C482   C     0.27644   0.74642   0.30920   0.00000  Uiso   1.00
C483   C     0.23505   0.73835   0.31971   0.00000  Uiso   1.00
C484   C     0.20751   0.72169   0.28292   0.00000  Uiso   1.00
C485   C     0.11269   0.95165   0.09862   0.00000  Uiso   1.00
C486   C     0.12583   0.94498   0.05041   0.00000  Uiso   1.00
C487   C     0.09828   0.92831   0.01362   0.00000  Uiso   1.00
C488   C     0.05689   0.92025   0.02413   0.00000  Uiso   1.00
C489   C     0.04284   0.92952   0.07121   0.00000  Uiso   1.00
C490   C     0.16670   0.83333   0.25961   0.00000  Uiso   1.00
C491   C     0.07063   0.94496   0.10846   0.00000  Uiso   1.00
C492   C     0.16667   0.83333   0.02191   0.00000  Uiso   1.00
C493   C     0.16667   0.83333   0.31143   0.00000  Uiso   1.00
C494   C     0.02304   0.83331   0.21153   0.00000  Uiso   1.00
C495   C     0.31029   0.83335   0.12180   0.00000  Uiso   1.00
C496   C     0.31326   0.83331   0.21143   0.00000  Uiso   1.00
Cu497  Cu    0.16667   0.88022   0.16667   0.00000  Uiso   1.00
Cu498  Cu    0.16667   0.78645   0.16667   0.00000  Uiso   1.00
H499   H     0.04080   0.83330   0.24628   0.00000  Uiso   1.00
H500   H     0.17589   0.95293   0.29169   0.00000  Uiso   1.00
H501   H     0.22456   0.92214   0.02318   0.00000  Uiso   1.00
H502   H     0.29754   0.90727   0.00447   0.00000  Uiso   1.00
H503   H     0.32290   0.92462   0.25436   0.00000  Uiso   1.00
H504   H     0.27406   0.95261   0.18870   0.00000  Uiso   1.00
H505   H     0.27406   0.71404   0.18872   0.00000  Uiso   1.00
H506   H     0.32290   0.74200   0.25439   0.00000  Uiso   1.00
H507   H     0.29753   0.75934   0.00450   0.00000  Uiso   1.00
H508   H     0.22455   0.74450   0.02319   0.00000  Uiso   1.00
H509   H     0.17588   0.71374   0.29169   0.00000  Uiso   1.00
H510   H     0.29253   0.83337   0.08706   0.00000  Uiso   1.00
H511   H     0.15746   0.95293   0.04165   0.00000  Uiso   1.00
H512   H     0.10878   0.92217   0.31014   0.00000  Uiso   1.00
H513   H     0.03580   0.90732   0.32884   0.00000  Uiso   1.00
H514   H     0.01043   0.92466   0.07894   0.00000  Uiso   1.00
H515   H     0.05928   0.95262   0.14462   0.00000  Uiso   1.00
H516   H     0.29770   0.83330   0.24611   0.00000  Uiso   1.00
H517   H     0.03563   0.83337   0.08722   0.00000  Uiso   1.00
H518   H     0.05928   0.71405   0.14463   0.00000  Uiso   1.00
H519   H     0.01044   0.74204   0.07897   0.00000  Uiso   1.00
H520   H     0.03579   0.75940   0.32886   0.00000  Uiso   1.00
H521   H     0.10877   0.74453   0.31015   0.00000  Uiso   1.00
H522   H     0.15745   0.71374   0.04164   0.00000  Uiso   1.00
N523   N     0.16667   0.95069   0.16667   0.00000  Uiso   1.00
N524   N     0.16667   0.71598   0.16667   0.00000  Uiso   1.00
O525   O     0.10655   0.87291   0.16666   0.00000  Uiso   1.00
O526   O     0.22679   0.79375   0.16667   0.00000  Uiso   1.00
O527   O     0.22679   0.87291   0.16667   0.00000  Uiso   1.00
O528   O     0.10655   0.79375   0.16666   0.00000  Uiso   1.00
O529   O     0.16667   0.87292   0.09613   0.00000  Uiso   1.00
O530   O     0.16667   0.79375   0.23720   0.00000  Uiso   1.00
O531   O     0.16667   0.87292   0.23720   0.00000  Uiso   1.00
O532   O     0.16667   0.79375   0.09613   0.00000  Uiso   1.00
C533   C     0.42092   0.83333   0.16661   0.00000  Uiso   1.00
C534   C     0.35340   0.83335   0.12191   0.00000  Uiso   1.00
C535   C     0.62372   0.83333   0.16663   0.00000  Uiso   1.00
C536   C     0.37627   0.83333   0.16670   0.00000  Uiso   1.00
C537   C     0.47394   0.69133   0.13507   0.00000  Uiso   1.00
C538   C     0.52606   0.97533   0.19826   0.00000  Uiso   1.00
C539   C     0.52606   0.69133   0.19826   0.00000  Uiso   1.00
C540   C     0.47394   0.97534   0.13507   0.00000  Uiso   1.00
C541   C     0.44602   0.71503   0.09862   0.00000  Uiso   1.00
C542   C     0.40396   0.72172   0.10847   0.00000  Uiso   1.00
C543   C     0.37617   0.73718   0.07123   0.00000  Uiso   1.00
C544   C     0.57908   0.83333   0.16672   0.00000  Uiso   1.00
C545   C     0.39022   0.74645   0.02415   0.00000  Uiso   1.00
C546   C     0.43160   0.73838   0.01363   0.00000  Uiso   1.00
C547   C     0.45915   0.72170   0.05041   0.00000  Uiso   1.00
C548   C     0.55398   0.95164   0.23471   0.00000  Uiso   1.00
C549   C     0.54085   0.94497   0.28292   0.00000  Uiso   1.00
C550   C     0.56840   0.92829   0.31970   0.00000  Uiso   1.00
C551   C     0.60978   0.92021   0.30919   0.00000  Uiso   1.00
C552   C     0.62383   0.92949   0.26210   0.00000  Uiso   1.00
C553   C     0.59604   0.94494   0.22486   0.00000  Uiso   1.00
C554   C     0.55398   0.71502   0.23471   0.00000  Uiso   1.00
C555   C     0.49996   0.83333   0.07373   0.00000  Uiso   1.00
C556   C     0.59604   0.72171   0.22488   0.00000  Uiso   1.00
C557   C     0.62383   0.73715   0.26212   0.00000  Uiso   1.00
C558   C     0.60977   0.74642   0.30920   0.00000  Uiso   1.00
C559   C     0.56839   0.73835   0.31971   0.00000  Uiso   1.00
C560   C     0.54084   0.72169   0.28292   0.00000  Uiso   1.00
C561   C     0.44602   0.95165   0.09862   0.00000  Uiso   1.00
C562   C     0.45916   0.94498   0.05041   0.00000  Uiso   1.00
C563   C     0.43161   0.92831   0.01362   0.00000  Uiso   1.00
C564   C     0.39023   0.92025   0.02413   0.00000  Uiso   1.00
C565   C     0.37617   0.92952   0.07121   0.00000  Uiso   1.00
C566   C     0.50004   0.83333   0.25961   0.00000  Uiso   1.00
C567   C     0.40396   0.94496   0.10846   0.00000  Uiso   1.00
C568   C     0.50000   0.83333   0.02191   0.00000  Uiso   1.00
C569   C     0.50000   0.83333   0.31143   0.00000  Uiso   1.00
C570   C     0.35638   0.83331   0.21153   0.00000  Uiso   1.00
C571   C     0.64362   0.83335   0.12180   0.00000  Uiso   1.00
C572   C     0.64659   0.83331   0.21143   0.00000  Uiso   1.00
Cu573  Cu    0.50000   0.88022   0.16667   0.00000  Uiso   1.00
Cu574  Cu    0.50000   0.78645   0.16667   0.00000  Uiso   1.00
H575   H     0.37414   0.83330   0.24628   0.00000  Uiso   1.00
H576   H     0.50922   0.95293   0.29169   0.00000  Uiso   1.00
H577   H     0.55789   0.92214   0.02318   0.00000  Uiso   1.00
H578   H     0.63087   0.90727   0.00447   0.00000  Uiso   1.00
H579   H     0.65623   0.92462   0.25436   0.00000  Uiso   1.00
H580   H     0.60739   0.95261   0.18870   0.00000  Uiso   1.00
H581   H     0.60739   0.71404   0.18872   0.00000  Uiso   1.00
H582   H     0.65623   0.74200   0.25439   0.00000  Uiso   1.00
H583   H     0.63087   0.75934   0.00450   0.00000  Uiso   1.00
H584   H     0.55788   0.74450   0.02319   0.00000  Uiso   1.00
H585   H     0.50921   0.71374   0.29169   0.00000  Uiso   1.00
H586   H     0.62586   0.83337   0.08706   0.00000  Uiso   1.00
H587   H     0.49079   0.95293   0.04165   0.00000  Uiso   1.00
H588   H     0.44212   0.92217   0.31014   0.00000  Uiso   1.00
H589   H     0.36913   0.90732   0.32884   0.00000  Uiso   1.00
H590   H     0.34377   0.92466   0.07894   0.00000  Uiso   1.00
H591   H     0.39261   0.95262   0.14462   0.00000  Uiso   1.00
H592   H     0.63104   0.83330   0.24611   0.00000  Uiso   1.00
H593   H     0.36896   0.83337   0.08722   0.00000  Uiso   1.00
H594   H     0.39261   0.71405   0.14463   0.00000  Uiso   1.00
H595   H     0.34377   0.74204   0.07897   0.00000  Uiso   1.00
H596   H     0.36913   0.75940   0.32886   0.00000  Uiso   1.00
H597   H     0.44211   0.74453   0.31015   0.00000  Uiso   1.00
H598   H     0.49078   0.71374   0.04164   0.00000  Uiso   1.00
N599   N     0.50000   0.95069   0.16667   0.00000  Uiso   1.00
N600   N     0.50000   0.71598   0.16667   0.00000  Uiso   1.00
O601   O     0.43988   0.87291   0.16666   0.00000  Uiso   1.00
O602   O     0.56012   0.79375   0.16667   0.00000  Uiso   1.00
O603   O     0.56012   0.87291   0.16667   0.00000  Uiso   1.00
O604   O     0.43988   0.79375   0.16666   0.00000  Uiso   1.00
O605   O     0.50000   0.87292   0.09613   0.00000  Uiso   1.00
O606   O     0.50000   0.79375   0.23720   0.00000  Uiso   1.00
O607   O     0.50000   0.87292   0.23720   0.00000  Uiso   1.00
O608   O     0.50000   0.79375   0.09613   0.00000  Uiso   1.00
C609   C     0.75426   0.83333   0.16661   0.00000  Uiso   1.00
C610   C     0.68674   0.83335   0.12191   0.00000  Uiso   1.00
C611   C     0.95706   0.83333   0.16663   0.00000  Uiso   1.00
C612   C     0.70961   0.83333   0.16670   0.00000  Uiso   1.00
C613   C     0.80727   0.69133   0.13507   0.00000  Uiso   1.00
C614   C     0.85939   0.97533   0.19826   0.00000  Uiso   1.00
C615   C     0.85939   0.69133   0.19826   0.00000  Uiso   1.00
C616   C     0.80727   0.97534   0.13507   0.00000  Uiso   1.00
C617   C     0.77935   0.71503   0.09862   0.00000  Uiso   1.00
C618   C     0.73729   0.72172   0.10847   0.00000  Uiso   1.00
C619   C     0.70950   0.73718   0.07123   0.00000  Uiso   1.00
C620   C     0.91241   0.83333   0.16672   0.00000  Uiso   1.00
C621   C     0.72356   0.74645   0.02415   0.00000  Uiso   1.00
C622   C     0.76494   0.73838   0.01363   0.00000  Uiso   1.00
C623   C     0.79249   0.72170   0.05041   0.00000  Uiso   1.00
C624   C     0.88731   0.95164   0.23471   0.00000  Uiso   1.00
C625   C     0.87418   0.94497   0.28292   0.00000  Uiso   1.00
C626   C     0.90173   0.92829   0.31970   0.00000  Uiso   1.00
C627   C     0.94311   0.92021   0.30919   0.00000  Uiso   1.00
C628   C     0.95716   0.92949   0.26210   0.00000  Uiso   1.00
C629   C     0.92937   0.94494   0.22486   0.00000  Uiso   1.00
C630   C     0.88731   0.71502   0.23471   0.00000  Uiso   1.00
C631   C     0.83330   0.83333   0.07373   0.00000  Uiso   1.00
C632   C     0.92937   0.72171   0.22488   0.00000  Uiso   1.00
C633   C     0.95716   0.73715   0.26212   0.00000  Uiso   1.00
C634   C     0.94311   0.74642   0.30920   0.00000  Uiso   1.00
C635   C     0.90172   0.73835   0.31971   0.00000  Uiso   1.00
C636   C     0.87417   0.72169   0.28292   0.00000  Uiso   1.00
C637   C     0.77935   0.95165   0.09862   0.00000  Uiso   1.00
C638   C     0.79249   0.94498   0.05041   0.00000  Uiso   1.00
C639   C     0.76495   0.92831   0.01362   0.00000  Uiso   1.00
C640   C     0.72356   0.92025   0.02413   0.00000  Uiso   1.00
C641   C     0.70950   0.92952   0.07121   0.00000  Uiso   1.00
C642   C     0.83337   0.83333   0.25961   0.00000  Uiso   1.00
C643   C     0.73729   0.94496   0.10846   0.00000  Uiso   1.00
C644   C     0.83333   0.83333   0.02191   0.00000  Uiso   1.00
C645   C     0.83333   0.83333   0.31143   0.00000  Uiso   1.00
C646   C     0.68971   0.83331   0.21153   0.00000  Uiso   1.00
C647   C     0.97696   0.83335   0.12180   0.00000  Uiso   1.00
C648   C     0.97993   0.83331   0.21143   0.00000  Uiso   1.00
Cu649  Cu    0.83333   0.88022   0.16667   0.00000  Uiso   1.00
Cu650  Cu    0.83333   0.78645   0.16667   0.00000  Uiso   1.00
H651   H     0.70747   0.83330   0.24628   0.00000  Uiso   1.00
H652   H     0.84255   0.95293   0.29169   0.00000  Uiso   1.00
H653   H     0.89123   0.92214   0.02318   0.00000  Uiso   1.00
H654   H     0.96421   0.90727   0.00447   0.00000  Uiso   1.00
H655   H     0.98956   0.92462   0.25436   0.00000  Uiso   1.00
H656   H     0.94072   0.95261   0.18870   0.00000  Uiso   1.00
H657   H     0.94072   0.71404   0.18872   0.00000  Uiso   1.00
H658   H     0.98957   0.74200   0.25439   0.00000  Uiso   1.00
H659   H     0.96420   0.75934   0.00450   0.00000  Uiso   1.00
H660   H     0.89122   0.74450   0.02319   0.00000  Uiso   1.00
H661   H     0.84254   0.71374   0.29169   0.00000  Uiso   1.00
H662   H     0.95920   0.83337   0.08706   0.00000  Uiso   1.00
H663   H     0.82412   0.95293   0.04165   0.00000  Uiso   1.00
H664   H     0.77545   0.92217   0.31014   0.00000  Uiso   1.00
H665   H     0.70247   0.90732   0.32884   0.00000  Uiso   1.00
H666   H     0.67710   0.92466   0.07894   0.00000  Uiso   1.00
H667   H     0.72594   0.95262   0.14462   0.00000  Uiso   1.00
H668   H     0.96437   0.83330   0.24611   0.00000  Uiso   1.00
H669   H     0.70230   0.83337   0.08722   0.00000  Uiso   1.00
H670   H     0.72594   0.71405   0.14463   0.00000  Uiso   1.00
H671   H     0.67710   0.74204   0.07897   0.00000  Uiso   1.00
H672   H     0.70246   0.75940   0.32886   0.00000  Uiso   1.00
H673   H     0.77544   0.74453   0.31015   0.00000  Uiso   1.00
H674   H     0.82411   0.71374   0.04164   0.00000  Uiso   1.00
N675   N     0.83333   0.95069   0.16667   0.00000  Uiso   1.00
N676   N     0.83333   0.71598   0.16667   0.00000  Uiso   1.00
O677   O     0.77321   0.87291   0.16666   0.00000  Uiso   1.00
O678   O     0.89345   0.79375   0.16667   0.00000  Uiso   1.00
O679   O     0.89345   0.87291   0.16667   0.00000  Uiso   1.00
O680   O     0.77321   0.79375   0.16666   0.00000  Uiso   1.00
O681   O     0.83333   0.87292   0.09613   0.00000  Uiso   1.00
O682   O     0.83333   0.79375   0.23720   0.00000  Uiso   1.00
O683   O     0.83333   0.87292   0.23720   0.00000  Uiso   1.00
O684   O     0.83333   0.79375   0.09613   0.00000  Uiso   1.00
C685   C     0.08759   0.16667   0.49994   0.00000  Uiso   1.00
C686   C     0.02007   0.16669   0.45524   0.00000  Uiso   1.00
C687   C     0.29039   0.16667   0.49997   0.00000  Uiso   1.00
C688   C     0.04294   0.16667   0.50003   0.00000  Uiso   1.00
C689   C     0.14061   0.02466   0.46840   0.00000  Uiso   1.00
C690   C     0.19273   0.30867   0.53160   0.00000  Uiso   1.00
C691   C     0.19273   0.02466   0.53160   0.00000  Uiso   1.00
C692   C     0.14061   0.30867   0.46840   0.00000  Uiso   1.00
C693   C     0.11268   0.04836   0.43196   0.00000  Uiso   1.00
C694   C     0.07063   0.05506   0.44180   0.00000  Uiso   1.00
C695   C     0.04284   0.07051   0.40456   0.00000  Uiso   1.00
C696   C     0.24574   0.16667   0.50006   0.00000  Uiso   1.00
C697   C     0.05689   0.07979   0.35748   0.00000  Uiso   1.00
C698   C     0.09827   0.07171   0.34697   0.00000  Uiso   1.00
C699   C     0.12582   0.05503   0.38375   0.00000  Uiso   1.00
C700   C     0.22065   0.28497   0.56804   0.00000  Uiso   1.00
C701   C     0.20751   0.27830   0.61625   0.00000  Uiso   1.00
C702   C     0.23506   0.26162   0.65303   0.00000  Uiso   1.00
C703   C     0.27644   0.25355   0.64252   0.00000  Uiso   1.00
C704   C     0.29050   0.26282   0.59544   0.00000  Uiso   1.00
C705   C     0.26271   0.27828   0.55820   0.00000  Uiso   1.00
C706   C     0.22064   0.04835   0.56805   0.00000  Uiso   1.00
C707   C     0.16663   0.16667   0.40706   0.00000  Uiso   1.00
C708   C     0.26271   0.05504   0.55821   0.00000  Uiso   1.00
C709   C     0.29050   0.07048   0.59546   0.00000  Uiso   1.00
C710   C     0.27644   0.07975   0.64254   0.00000  Uiso   1.00
C711   C     0.23505   0.07169   0.65304   0.00000  Uiso   1.00
C712   C     0.20751   0.05502   0.61626   0.00000  Uiso   1.00
C713   C     0.11269   0.28498   0.43195   0.00000  Uiso   1.00
C714   C     0.12583   0.27831   0.38374   0.00000  Uiso   1.00
C715   C     0.09828   0.26165   0.34696   0.00000  Uiso   1.00
C716   C     0.05689   0.25358   0.35746   0.00000  Uiso   1.00
C717   C     0.04284   0.26285   0.40454   0.00000  Uiso   1.00
C718   C     0.16670   0.16667   0.59294   0.00000  Uiso   1.00
C719   C     0.07063   0.27829   0.44179   0.00000  Uiso   1.00
C720   C     0.16667   0.16667   0.35524   0.00000  Uiso   1.00
C721   C     0.16667   0.16667   0.64476   0.00000  Uiso   1.00
C722   C     0.02304   0.16665   0.54486   0.00000  Uiso   1.00
C723   C     0.31029   0.16669   0.45514   0.00000  Uiso   1.00
C724   C     0.31326   0.16665   0.54476   0.00000  Uiso   1.00
Cu725  Cu    0.16667   0.21355   0.50000   0.00000  Uiso   1.00
Cu726  Cu    0.16667   0.11978   0.50000   0.00000  Uiso   1.00
H727   H     0.04080   0.16663   0.57961   0.00000  Uiso   1.00
H728   H     0.17589   0.28626   0.62502   0.00000  Uiso   1.00
H729   H     0.22456   0.25547   0.35652   0.00000  Uiso   1.00
H730   H     0.29754   0.24060   0.33780   0.00000  Uiso   1.00
H731   H     0.32290   0.25796   0.58770   0.00000  Uiso   1.00
H732   H     0.27406   0.28595   0.52204   0.00000  Uiso   1.00
H733   H     0.27406   0.04738   0.52205   0.00000  Uiso   1.00
H734   H     0.32290   0.07534   0.58772   0.00000  Uiso   1.00
H735   H     0.29753   0.09268   0.33783   0.00000  Uiso   1.00
H736   H     0.22455   0.07783   0.35652   0.00000  Uiso   1.00
H737   H     0.17588   0.04707   0.62502   0.00000  Uiso   1.00
H738   H     0.29253   0.16670   0.42039   0.00000  Uiso   1.00
H739   H     0.15746   0.28626   0.37498   0.00000  Uiso   1.00
H740   H     0.10878   0.25550   0.64348   0.00000  Uiso   1.00
H741   H     0.03580   0.24066   0.66217   0.00000  Uiso   1.00
H742   H     0.01043   0.25800   0.41228   0.00000  Uiso   1.00
H743   H     0.05928   0.28596   0.47795   0.00000  Uiso   1.00
H744   H     0.29770   0.16663   0.57944   0.00000  Uiso   1.00
H745   H     0.03563   0.16670   0.42056   0.00000  Uiso   1.00
H746   H     0.05928   0.04739   0.47796   0.00000  Uiso   1.00
H747   H     0.01044   0.07538   0.41230   0.00000  Uiso   1.00
H748   H     0.03579   0.09273   0.66220   0.00000  Uiso   1.00
H749   H     0.10877   0.07786   0.64348   0.00000  Uiso   1.00
H750   H     0.15745   0.04707   0.37498   0.00000  Uiso   1.00
N751   N     0.16667   0.28402   0.50000   0.00000  Uiso   1.00
N752   N     0.16667   0.04931   0.50000   0.00000  Uiso   1.00
O753   O     0.10655   0.20625   0.50000   0.00000  Uiso   1.00
O754   O     0.22679   0.12709   0.50000   0.00000  Uiso   1.00
O755   O     0.22679   0.20625   0.50000   0.00000  Uiso   1.00
O756   O     0.10655   0.12709   0.50000   0.00000  Uiso   1.00
O757   O     0.16667   0.20625   0.42946   0.00000  Uiso   1.00
O758   O     0.16667   0.12708   0.57054   0.00000  Uiso   1.00
O759   O     0.16667   0.20625   0.57054   0.00000  Uiso   1.00
O760   O     0.16667   0.12708   0.42946   0.00000  Uiso   1.00
C761   C     0.42092   0.16667   0.49994   0.00000  Uiso   1.00
C762   C     0.35340   0.16669   0.45524   0.00000  Uiso   1.00
C763   C     0.62372   0.16667   0.49997   0.00000  Uiso   1.00
C764   C     0.37627   0.16667   0.50003   0.00000  Uiso   1.00
C765   C     0.47394   0.02466   0.46840   0.00000  Uiso   1.00
C766   C     0.52606   0.30867   0.53160   0.00000  Uiso   1.00
C767   C     0.52606   0.02466   0.53160   0.00000  Uiso   1.00
C768   C     0.47394   0.30867   0.46840   0.00000  Uiso   1.00
C769   C     0.44602   0.04836   0.43196   0.00000  Uiso   1.00
C770   C     0.40396   0.05506   0.44180   0.00000  Uiso   1.00
C771   C     0.37617   0.07051   0.40456   0.00000  Uiso   1.00
C772   C     0.57908   0.16667   0.50006   0.00000  Uiso   1.00
C773   C     0.39022   0.07979   0.35748   0.00000  Uiso   1.00
C774   C     0.43160   0.07171   0.34697   0.00000  Uiso   1.00
C775   C     0.45915   0.05503   0.38375   0.00000  Uiso   1.00
C776   C     0.55398   0.28497   0.56804   0.00000  Uiso   1.00
C777   C     0.54085   0.27830   0.61625   0.00000  Uiso   1.00
C778   C     0.56840   0.26162   0.65303   0.00000  Uiso   1.00
C779   C     0.60978   0.25355   0.64252   0.00000  Uiso   1.00
C780   C     0.62383   0.26282   0.59544   0.00000  Uiso   1.00
C781   C     0.59604   0.27828   0.55820   0.00000  Uiso   1.00
C782   C     0.55398   0.04835   0.56805   0.00000  Uiso   1.00
C783   C     0.49996   0.16667   0.40706   0.00000  Uiso   1.00
C784   C     0.59604   0.05504   0.55821   0.00000  Uiso   1.00
C785   C     0.62383   0.07048   0.59546   0.00000  Uiso   1.00
C786   C     0.60977   0.07975   0.64254   0.00000  Uiso   1.00
C787   C     0.56839   0.07169   0.65304   0.00000  Uiso   1.00
C788   C     0.54084   0.05502   0.61626   0.00000  Uiso   1.00
C789   C     0.44602   0.28498   0.43195   0.00000  Uiso   1.00
C790   C     0.45916   0.27831   0.38374   0.00000  Uiso   1.00
C791   C     0.43161   0.26165   0.34696   0.00000  Uiso   1.00
C792   C     0.39023   0.25358   0.35746   0.00000  Uiso   1.00
C793   C     0.37617   0.26285   0.40454   0.00000  Uiso   1.00
C794   C     0.50004   0.16667   0.59294   0.00000  Uiso   1.00
C795   C     0.40396   0.27829   0.44179   0.00000  Uiso   1.00
C796   C     0.50000   0.16667   0.35524   0.00000  Uiso   1.00
C797   C     0.50000   0.16667   0.64476   0.00000  Uiso   1.00
C798   C     0.35638   0.16665   0.54486   0.00000  Uiso   1.00
C799   C     0.64362   0.16669   0.45514   0.00000  Uiso   1.00
C800   C     0.64659   0.16665   0.54476   0.00000  Uiso   1.00
Cu801  Cu    0.50000   0.21355   0.50000   0.00000  Uiso   1.00
Cu802  Cu    0.50000   0.11978   0.50000   0.00000  Uiso   1.00
H803   H     0.37414   0.16663   0.57961   0.00000  Uiso   1.00
H804   H     0.50922   0.28626   0.62502   0.00000  Uiso   1.00
H805   H     0.55789   0.25547   0.35652   0.00000  Uiso   1.00
H806   H     0.63087   0.24060   0.33780   0.00000  Uiso   1.00
H807   H     0.65623   0.25796   0.58770   0.00000  Uiso   1.00
H808   H     0.60739   0.28595   0.52204   0.00000  Uiso   1.00
H809   H     0.60739   0.04738   0.52205   0.00000  Uiso   1.00
H810   H     0.65623   0.07534   0.58772   0.00000  Uiso   1.00
H811   H     0.63087   0.09268   0.33783   0.00000  Uiso   1.00
H812   H     0.55788   0.07783   0.35652   0.00000  Uiso   1.00
H813   H     0.50921   0.04707   0.62502   0.00000  Uiso   1.00
H814   H     0.62586   0.16670   0.42039   0.00000  Uiso   1.00
H815   H     0.49079   0.28626   0.37498   0.00000  Uiso   1.00
H816   H     0.44212   0.25550   0.64348   0.00000  Uiso   1.00
H817   H     0.36913   0.24066   0.66217   0.00000  Uiso   1.00
H818   H     0.34377   0.25800   0.41228   0.00000  Uiso   1.00
H819   H     0.39261   0.28596   0.47795   0.00000  Uiso   1.00
H820   H     0.63104   0.16663   0.57944   0.00000  Uiso   1.00
H821   H     0.36896   0.16670   0.42056   0.00000  Uiso   1.00
H822   H     0.39261   0.04739   0.47796   0.00000  Uiso   1.00
H823   H     0.34377   0.07538   0.41230   0.00000  Uiso   1.00
H824   H     0.36913   0.09273   0.66220   0.00000  Uiso   1.00
H825   H     0.44211   0.07786   0.64348   0.00000  Uiso   1.00
H826   H     0.49078   0.04707   0.37498   0.00000  Uiso   1.00
N827   N     0.50000   0.28402   0.50000   0.00000  Uiso   1.00
N828   N     0.50000   0.04931   0.50000   0.00000  Uiso   1.00
O829   O     0.43988   0.20625   0.50000   0.00000  Uiso   1.00
O830   O     0.56012   0.12709   0.50000   0.00000  Uiso   1.00
O831   O     0.56012   0.20625   0.50000   0.00000  Uiso   1.00
O832   O     0.43988   0.12709   0.50000   0.00000  Uiso   1.00
O833   O     0.50000   0.20625   0.42946   0.00000  Uiso   1.00
O834   O     0.50000   0.12708   0.57054   0.00000  Uiso   1.00
O835   O     0.50000   0.20625   0.57054   0.00000  Uiso   1.00
O836   O     0.50000   0.12708   0.42946   0.00000  Uiso   1.00
C837   C     0.75426   0.16667   0.49994   0.00000  Uiso   1.00
C838   C     0.68674   0.16669   0.45524   0.00000  Uiso   1.00
C839   C     0.95706   0.16667   0.49997   0.00000  Uiso   1.00
C840   C     0.70961   0.16667   0.50003   0.00000  Uiso   1.00
C841   C     0.80727   0.02466   0.46840   0.00000  Uiso   1.00
C842   C     0.85939   0.30867   0.53160   0.00000  Uiso   1.00
C843   C     0.85939   0.02466   0.53160   0.00000  Uiso   1.00
C844   C     0.80727   0.30867   0.46840   0.00000  Uiso   1.00
C845   C     0.77935   0.04836   0.43196   0.00000  Uiso   1.00
C846   C     0.73729   0.05506   0.44180   0.00000  Uiso   1.00
C847   C     0.70950   0.07051   0.40456   0.00000  Uiso   1.00
C848   C     0.91241   0.16667   0.50006   0.00000  Uiso   1.00
C849   C     0.72356   0.07979   0.35748   0.00000  Uiso   1.00
C850   C     0.76494   0.07171   0.34697   0.00000  Uiso   1.00
C851   C     0.79249   0.05503   0.38375   0.00000  Uiso   1.00
C852   C     0.88731   0.28497   0.56804   0.00000  Uiso   1.00
C853   C     0.87418   0.27830   0.61625   0.00000  Uiso   1.00
C854   C     0.90173   0.26162   0.65303   0.00000  Uiso   1.00
C855   C     0.94311   0.25355   0.64252   0.00000  Uiso   1.00
C856   C     0.95716   0.26282   0.59544   0.00000  Uiso   1.00
C857   C     0.92937   0.27828   0.55820   0.00000  Uiso   1.00
C858   C     0.88731   0.04835   0.56805   0.00000  Uiso   1.00
C859   C     0.83330   0.16667   0.40706   0.00000  Uiso   1.00
C860   C     0.92937   0.05504   0.55821   0.00000  Uiso   1.00
C861   C     0.95716   0.07048   0.59546   0.00000  Uiso   1.00
C862   C     0.94311   0.07975   0.64254   0.00000  Uiso   1.00
C863   C     0.90172   0.07169   0.65304   0.00000  Uiso   1.00
C864   C     0.87417   0.05502   0.61626   0.00000  Uiso   1.00
C865   C     0.77935   0.28498   0.43195   0.00000  Uiso   1.00
C866   C     0.79249   0.27831   0.38374   0.00000  Uiso   1.00
C867   C     0.76495   0.26165   0.34696   0.00000  Uiso   1.00
C868   C     0.72356   0.25358   0.35746   0.00000  Uiso   1.00
C869   C     0.70950   0.26285   0.40454   0.00000  Uiso   1.00
C870   C     0.83337   0.16667   0.59294   0.00000  Uiso   1.00
C871   C     0.73729   0.27829   0.44179   0.00000  Uiso   1.00
C872   C     0.83333   0.16667   0.35524   0.00000  Uiso   1.00
C873   C     0.83333   0.16667   0.64476   0.00000  Uiso   1.00
C874   C     0.68971   0.16665   0.54486   0.00000  Uiso   1.00
C875   C     0.97696   0.16669   0.45514   0.00000  Uiso   1.00
C876   C     0.97993   0.16665   0.54476   0.00000  Uiso   1.00
Cu877  Cu    0.83333   0.21355   0.50000   0.00000  Uiso   1.00
Cu878  Cu    0.83333   0.11978   0.50000   0.00000  Uiso   1.00
H879   H     0.70747   0.16663   0.57961   0.00000  Uiso   1.00
H880   H     0.84255   0.28626   0.62502   0.00000  Uiso   1.00
H881   H     0.89123   0.25547   0.35652   0.00000  Uiso   1.00
H882   H     0.96421   0.24060   0.33780   0.00000  Uiso   1.00
H883   H     0.98956   0.25796   0.58770   0.00000  Uiso   1.00
H884   H     0.94072   0.28595   0.52204   0.00000  Uiso   1.00
H885   H     0.94072   0.04738   0.52205   0.00000  Uiso   1.00
H886   H     0.98957   0.07534   0.58772   0.00000  Uiso   1.00
H887   H     0.96420   0.09268   0.33783   0.00000  Uiso   1.00
H888   H     0.89122   0.07783   0.35652   0.00000  Uiso   1.00
H889   H     0.84254   0.04707   0.62502   0.00000  Uiso   1.00
H890   H     0.95920   0.16670   0.42039   0.00000  Uiso   1.00
H891   H     0.82412   0.28626   0.37498   0.00000  Uiso   1.00
H892   H     0.77545   0.25550   0.64348   0.00000  Uiso   1.00
H893   H     0.70247   0.24066   0.66217   0.00000  Uiso   1.00
H894   H     0.67710   0.25800   0.41228   0.00000  Uiso   1.00
H895   H     0.72594   0.28596   0.47795   0.00000  Uiso   1.00
H896   H     0.96437   0.16663   0.57944   0.00000  Uiso   1.00
H897   H     0.70230   0.16670   0.42056   0.00000  Uiso   1.00
H898   H     0.72594   0.04739   0.47796   0.00000  Uiso   1.00
H899   H     0.67710   0.07538   0.41230   0.00000  Uiso   1.00
H900   H     0.70246   0.09273   0.66220   0.00000  Uiso   1.00
H901   H     0.77544   0.07786   0.64348   0.00000  Uiso   1.00
H902   H     0.82411   0.04707   0.37498   0.00000  Uiso   1.00
N903   N     0.83333   0.28402   0.50000   0.00000  Uiso   1.00
N904   N     0.83333   0.04931   0.50000   0.00000  Uiso   1.00
O905   O     0.77321   0.20625   0.50000   0.00000  Uiso   1.00
O906   O     0.89345   0.12709   0.50000   0.00000  Uiso   1.00
O907   O     0.89345   0.20625   0.50000   0.00000  Uiso   1.00
O908   O     0.77321   0.12709   0.50000   0.00000  Uiso   1.00
O909   O     0.83333   0.20625   0.42946   0.00000  Uiso   1.00
O910   O     0.83333   0.12708   0.57054   0.00000  Uiso   1.00
O911   O     0.83333   0.20625   0.57054   0.00000  Uiso   1.00
O912   O     0.83333   0.12708   0.42946   0.00000  Uiso   1.00
C913   C     0.08759   0.50000   0.49994   0.00000  Uiso   1.00
C914   C     0.02007   0.50002   0.45524   0.00000  Uiso   1.00
C915   C     0.29039   0.50000   0.49997   0.00000  Uiso   1.00
C916   C     0.04294   0.50000   0.50003   0.00000  Uiso   1.00
C917   C     0.14061   0.35800   0.46840   0.00000  Uiso   1.00
C918   C     0.19273   0.64200   0.53160   0.00000  Uiso   1.00
C919   C     0.19273   0.35800   0.53160   0.00000  Uiso   1.00
C920   C     0.14061   0.64200   0.46840   0.00000  Uiso   1.00
C921   C     0.11268   0.38169   0.43196   0.00000  Uiso   1.00
C922   C     0.07063   0.38839   0.44180   0.00000  Uiso   1.00
C923   C     0.04284   0.40385   0.40456   0.00000  Uiso   1.00
C924   C     0.24574   0.50000   0.50006   0.00000  Uiso   1.00
C925   C     0.05689   0.41312   0.35748   0.00000  Uiso   1.00
C926   C     0.09827   0.40505   0.34697   0.00000  Uiso   1.00
C927   C     0.12582   0.38836   0.38375   0.00000  Uiso   1.00
C928   C     0.22065   0.61831   0.56804   0.00000  Uiso   1.00
C929   C     0.20751   0.61163   0.61625   0.00000  Uiso   1.00
C930   C     0.23506   0.59495   0.65303   0.00000  Uiso   1.00
C931   C     0.27644   0.58688   0.64252   0.00000  Uiso   1.00
C932   C     0.29050   0.59615   0.59544   0.00000  Uiso   1.00
C933   C     0.26271   0.61161   0.55820   0.00000  Uiso   1.00
C934   C     0.22064   0.38169   0.56805   0.00000  Uiso   1.00
C935   C     0.16663   0.50000   0.40706   0.00000  Uiso   1.00
C936   C     0.26271   0.38837   0.55821   0.00000  Uiso   1.00
C937   C     0.29050   0.40382   0.59546   0.00000  Uiso   1.00
C938   C     0.27644   0.41308   0.64254   0.00000  Uiso   1.00
C939   C     0.23505   0.40502   0.65304   0.00000  Uiso   1.00
C940   C     0.20751   0.38835   0.61626   0.00000  Uiso   1.00
C941   C     0.11269   0.61831   0.43195   0.00000  Uiso   1.00
C942   C     0.12583   0.61165   0.38374   0.00000  Uiso   1.00
C943   C     0.09828   0.59498   0.34696   0.00000  Uiso   1.00
C944   C     0.05689   0.58692   0.35746   0.00000  Uiso   1.00
C945   C     0.04284   0.59618   0.40454   0.00000  Uiso   1.00
C946   C     0.16670   0.50000   0.59294   0.00000  Uiso   1.00
C947   C     0.07063   0.61162   0.44179   0.00000  Uiso   1.00
C948   C     0.16667   0.50000   0.35524   0.00000  Uiso   1.00
C949   C     0.16667   0.50000   0.64476   0.00000  Uiso   1.00
C950   C     0.02304   0.49998   0.54486   0.00000  Uiso   1.00
C951   C     0.31029   0.50002   0.45514   0.00000  Uiso   1.00
C952   C     0.31326   0.49998   0.54476   0.00000  Uiso   1.00
Cu953  Cu    0.16667   0.54689   0.50000   0.00000  Uiso   1.00
Cu954  Cu    0.16667   0.45311   0.50000   0.00000  Uiso   1.00
H955   H     0.04080   0.49996   0.57961   0.00000  Uiso   1.00
H956   H     0.17589   0.61959   0.62502   0.00000  Uiso   1.00
H957   H     0.22456   0.58880   0.35652   0.00000  Uiso   1.00
H958   H     0.29754   0.57393   0.33780   0.00000  Uiso   1.00
H959   H     0.32290   0.59129   0.58770   0.00000  Uiso   1.00
H960   H     0.27406   0.61928   0.52204   0.00000  Uiso   1.00
H961   H     0.27406   0.38071   0.52205   0.00000  Uiso   1.00
H962   H     0.32290   0.40867   0.58772   0.00000  Uiso   1.00
H963   H     0.29753   0.42601   0.33783   0.00000  Uiso   1.00
H964   H     0.22455   0.41117   0.35652   0.00000  Uiso   1.00
H965   H     0.17588   0.38040   0.62502   0.00000  Uiso   1.00
H966   H     0.29253   0.50004   0.42039   0.00000  Uiso   1.00
H967   H     0.15746   0.61960   0.37498   0.00000  Uiso   1.00
H968   H     0.10878   0.58883   0.64348   0.00000  Uiso   1.00
H969   H     0.03580   0.57399   0.66217   0.00000  Uiso   1.00
H970   H     0.01043   0.59133   0.41228   0.00000  Uiso   1.00
H971   H     0.05928   0.61929   0.47795   0.00000  Uiso   1.00
H972   H     0.29770   0.49997   0.57944   0.00000  Uiso   1.00
H973   H     0.03563   0.50003   0.42056   0.00000  Uiso   1.00
H974   H     0.05928   0.38072   0.47796   0.00000  Uiso   1.00
H975   H     0.01044   0.40871   0.41230   0.00000  Uiso   1.00
H976   H     0.03579   0.42607   0.66220   0.00000  Uiso   1.00
H977   H     0.10877   0.41120   0.64348   0.00000  Uiso   1.00
H978   H     0.15745   0.38041   0.37498   0.00000  Uiso   1.00
N979   N     0.16667   0.61736   0.50000   0.00000  Uiso   1.00
N980   N     0.16667   0.38264   0.50000   0.00000  Uiso   1.00
O981   O     0.10655   0.53958   0.50000   0.00000  Uiso   1.00
O982   O     0.22679   0.46042   0.50000   0.00000  Uiso   1.00
O983   O     0.22679   0.53958   0.50000   0.00000  Uiso   1.00
O984   O     0.10655   0.46042   0.50000   0.00000  Uiso   1.00
O985   O     0.16667   0.53959   0.42946   0.00000  Uiso   1.00
O986   O     0.16667   0.46041   0.57054   0.00000  Uiso   1.00
O987   O     0.16667   0.53959   0.57054   0.00000  Uiso   1.00
O988   O     0.16667   0.46041   0.42946   0.00000  Uiso   1.00
C989   C     0.42092   0.50000   0.49994   0.00000  Uiso   1.00
C990   C     0.35340   0.50002   0.45524   0.00000  Uiso   1.00
C991   C     0.62372   0.50000   0.49997   0.00000  Uiso   1.00
C992   C     0.37627   0.50000   0.50003   0.00000  Uiso   1.00
C993   C     0.47394   0.35800   0.46840   0.00000  Uiso   1.00
C994   C     0.52606   0.64200   0.53160   0.00000  Uiso   1.00
C995   C     0.52606   0.35800   0.53160   0.00000  Uiso   1.00
C996   C     0.47394   0.64200   0.46840   0.00000  Uiso   1.00
C997   C     0.44602   0.38169   0.43196   0.00000  Uiso   1.00
C998   C     0.40396   0.38839   0.44180   0.00000  Uiso   1.00
C999   C     0.37617   0.40385   0.40456   0.00000  Uiso   1.00
C1000  C     0.57908   0.50000   0.50006   0.00000  Uiso   1.00
C1001  C     0.39022   0.41312   0.35748   0.00000  Uiso   1.00
C1002  C     0.43160   0.40505   0.34697   0.00000  Uiso   1.00
C1003  C     0.45915   0.38836   0.38375   0.00000  Uiso   1.00
C1004  C     0.55398   0.61831   0.56804   0.00000  Uiso   1.00
C1005  C     0.54085   0.61163   0.61625   0.00000  Uiso   1.00
C1006  C     0.56840   0.59495   0.65303   0.00000  Uiso   1.00
C1007  C     0.60978   0.58688   0.64252   0.00000  Uiso   1.00
C1008  C     0.62383   0.59615   0.59544   0.00000  Uiso   1.00
C1009  C     0.59604   0.61161   0.55820   0.00000  Uiso   1.00
C1010  C     0.55398   0.38169   0.56805   0.00000  Uiso   1.00
C1011  C     0.49996   0.50000   0.40706   0.00000  Uiso   1.00
C1012  C     0.59604   0.38837   0.55821   0.00000  Uiso   1.00
C1013  C     0.62383   0.40382   0.59546   0.00000  Uiso   1.00
C1014  C     0.60977   0.41308   0.64254   0.00000  Uiso   1.00
C1015  C     0.56839   0.40502   0.65304   0.00000  Uiso   1.00
C1016  C     0.54084   0.38835   0.61626   0.00000  Uiso   1.00
C1017  C     0.44602   0.61831   0.43195   0.00000  Uiso   1.00
C1018  C     0.45916   0.61165   0.38374   0.00000  Uiso   1.00
C1019  C     0.43161   0.59498   0.34696   0.00000  Uiso   1.00
C1020  C     0.39023   0.58692   0.35746   0.00000  Uiso   1.00
C1021  C     0.37617   0.59618   0.40454   0.00000  Uiso   1.00
C1022  C     0.50004   0.50000   0.59294   0.00000  Uiso   1.00
C1023  C     0.40396   0.61162   0.44179   0.00000  Uiso   1.00
C1024  C     0.50000   0.50000   0.35524   0.00000  Uiso   1.00
C1025  C     0.50000   0.50000   0.64476   0.00000  Uiso   1.00
C1026  C     0.35638   0.49998   0.54486   0.00000  Uiso   1.00
C1027  C     0.64362   0.50002   0.45514   0.00000  Uiso   1.00
C1028  C     0.64659   0.49998   0.54476   0.00000  Uiso   1.00
Cu1029 Cu    0.50000   0.54689   0.50000   0.00000  Uiso   1.00
Cu1030 Cu    0.50000   0.45311   0.50000   0.00000  Uiso   1.00
H1031  H     0.37414   0.49996   0.57961   0.00000  Uiso   1.00
H1032  H     0.50922   0.61959   0.62502   0.00000  Uiso   1.00
H1033  H     0.55789   0.58880   0.35652   0.00000  Uiso   1.00
H1034  H     0.63087   0.57393   0.33780   0.00000  Uiso   1.00
H1035  H     0.65623   0.59129   0.58770   0.00000  Uiso   1.00
H1036  H     0.60739   0.61928   0.52204   0.00000  Uiso   1.00
H1037  H     0.60739   0.38071   0.52205   0.00000  Uiso   1.00
H1038  H     0.65623   0.40867   0.58772   0.00000  Uiso   1.00
H1039  H     0.63087   0.42601   0.33783   0.00000  Uiso   1.00
H1040  H     0.55788   0.41117   0.35652   0.00000  Uiso   1.00
H1041  H     0.50921   0.38040   0.62502   0.00000  Uiso   1.00
H1042  H     0.62586   0.50004   0.42039   0.00000  Uiso   1.00
H1043  H     0.49079   0.61960   0.37498   0.00000  Uiso   1.00
H1044  H     0.44212   0.58883   0.64348   0.00000  Uiso   1.00
H1045  H     0.36913   0.57399   0.66217   0.00000  Uiso   1.00
H1046  H     0.34377   0.59133   0.41228   0.00000  Uiso   1.00
H1047  H     0.39261   0.61929   0.47795   0.00000  Uiso   1.00
H1048  H     0.63104   0.49997   0.57944   0.00000  Uiso   1.00
H1049  H     0.36896   0.50003   0.42056   0.00000  Uiso   1.00
H1050  H     0.39261   0.38072   0.47796   0.00000  Uiso   1.00
H1051  H     0.34377   0.40871   0.41230   0.00000  Uiso   1.00
H1052  H     0.36913   0.42607   0.66220   0.00000  Uiso   1.00
H1053  H     0.44211   0.41120   0.64348   0.00000  Uiso   1.00
H1054  H     0.49078   0.38041   0.37498   0.00000  Uiso   1.00
N1055  N     0.50000   0.61736   0.50000   0.00000  Uiso   1.00
N1056  N     0.50000   0.38264   0.50000   0.00000  Uiso   1.00
O1057  O     0.43988   0.53958   0.50000   0.00000  Uiso   1.00
O1058  O     0.56012   0.46042   0.50000   0.00000  Uiso   1.00
O1059  O     0.56012   0.53958   0.50000   0.00000  Uiso   1.00
O1060  O     0.43988   0.46042   0.50000   0.00000  Uiso   1.00
O1061  O     0.50000   0.53959   0.42946   0.00000  Uiso   1.00
O1062  O     0.50000   0.46041   0.57054   0.00000  Uiso   1.00
O1063  O     0.50000   0.53959   0.57054   0.00000  Uiso   1.00
O1064  O     0.50000   0.46041   0.42946   0.00000  Uiso   1.00
C1065  C     0.75426   0.50000   0.49994   0.00000  Uiso   1.00
C1066  C     0.68674   0.50002   0.45524   0.00000  Uiso   1.00
C1067  C     0.95706   0.50000   0.49997   0.00000  Uiso   1.00
C1068  C     0.70961   0.50000   0.50003   0.00000  Uiso   1.00
C1069  C     0.80727   0.35800   0.46840   0.00000  Uiso   1.00
C1070  C     0.85939   0.64200   0.53160   0.00000  Uiso   1.00
C1071  C     0.85939   0.35800   0.53160   0.00000  Uiso   1.00
C1072  C     0.80727   0.64200   0.46840   0.00000  Uiso   1.00
C1073  C     0.77935   0.38169   0.43196   0.00000  Uiso   1.00
C1074  C     0.73729   0.38839   0.44180   0.00000  Uiso   1.00
C1075  C     0.70950   0.40385   0.40456   0.00000  Uiso   1.00
C1076  C     0.91241   0.50000   0.50006   0.00000  Uiso   1.00
C1077  C     0.72356   0.41312   0.35748   0.00000  Uiso   1.00
C1078  C     0.76494   0.40505   0.34697   0.00000  Uiso   1.00
C1079  C     0.79249   0.38836   0.38375   0.00000  Uiso   1.00
C1080  C     0.88731   0.61831   0.56804   0.00000  Uiso   1.00
C1081  C     0.87418   0.61163   0.61625   0.00000  Uiso   1.00
C1082  C     0.90173   0.59495   0.65303   0.00000  Uiso   1.00
C1083  C     0.94311   0.58688   0.64252   0.00000  Uiso   1.00
C1084  C     0.95716   0.59615   0.59544   0.00000  Uiso   1.00
C1085  C     0.92937   0.61161   0.55820   0.00000  Uiso   1.00
C1086  C     0.88731   0.38169   0.56805   0.00000  Uiso   1.00
C1087  C     0.83330   0.50000   0.40706   0.00000  Uiso   1.00
C1088  C     0.92937   0.38837   0.55821   0.00000  Uiso   1.00
C1089  C     0.95716   0.40382   0.59546   0.00000  Uiso   1.00
C1090  C     0.94311   0.41308   0.64254   0.00000  Uiso   1.00
C1091  C     0.90172   0.40502   0.65304   0.00000  Uiso   1.00
C1092  C     0.87417   0.38835   0.61626   0.00000  Uiso   1.00
C1093  C     0.77935   0.61831   0.43195   0.00000  Uiso   1.00
C1094  C     0.79249   0.61165   0.38374   0.00000  Uiso   1.00
C1095  C     0.76495   0.59498   0.34696   0.00000  Uiso   1.00
C1096  C     0.72356   0.58692   0.35746   0.00000  Uiso   1.00
C1097  C     0.70950   0.59618   0.40454   0.00000  Uiso   1.00
C1098  C     0.83337   0.50000   0.59294   0.00000  Uiso   1.00
C1099  C     0.73729   0.61162   0.44179   0.00000  Uiso   1.00
C1100  C     0.83333   0.50000   0.35524   0.00000  Uiso   1.00
C1101  C     0.83333   0.50000   0.64476   0.00000  Uiso   1.00
C1102  C     0.68971   0.49998   0.54486   0.00000  Uiso   1.00
C1103  C     0.97696   0.50002   0.45514   0.00000  Uiso   1.00
C1104  C     0.97993   0.49998   0.54476   0.00000  Uiso   1.00
Cu1105 Cu    0.83333   0.54689   0.50000   0.00000  Uiso   1.00
Cu1106 Cu    0.83333   0.45311   0.50000   0.00000  Uiso   1.00
H1107  H     0.70747   0.49996   0.57961   0.00000  Uiso   1.00
H1108  H     0.84255   0.61959   0.62502   0.00000  Uiso   1.00
H1109  H     0.89123   0.58880   0.35652   0.00000  Uiso   1.00
H1110  H     0.96421   0.57393   0.33780   0.00000  Uiso   1.00
H1111  H     0.98956   0.59129   0.58770   0.00000  Uiso   1.00
H1112  H     0.94072   0.61928   0.52204   0.00000  Uiso   1.00
H1113  H     0.94072   0.38071   0.52205   0.00000  Uiso   1.00
H1114  H     0.98957   0.40867   0.58772   0.00000  Uiso   1.00
H1115  H     0.96420   0.42601   0.33783   0.00000  Uiso   1.00
H1116  H     0.89122   0.41117   0.35652   0.00000  Uiso   1.00
H1117  H     0.84254   0.38040   0.62502   0.00000  Uiso   1.00
H1118  H     0.95920   0.50004   0.42039   0.00000  Uiso   1.00
H1119  H     0.82412   0.61960   0.37498   0.00000  Uiso   1.00
H1120  H     0.77545   0.58883   0.64348   0.00000  Uiso   1.00
H1121  H     0.70247   0.57399   0.66217   0.00000  Uiso   1.00
H1122  H     0.67710   0.59133   0.41228   0.00000  Uiso   1.00
H1123  H     0.72594   0.61929   0.47795   0.00000  Uiso   1.00
H1124  H     0.96437   0.49997   0.57944   0.00000  Uiso   1.00
H1125  H     0.70230   0.50003   0.42056   0.00000  Uiso   1.00
H1126  H     0.72594   0.38072   0.47796   0.00000  Uiso   1.00
H1127  H     0.67710   0.40871   0.41230   0.00000  Uiso   1.00
H1128  H     0.70246   0.42607   0.66220   0.00000  Uiso   1.00
H1129  H     0.77544   0.41120   0.64348   0.00000  Uiso   1.00
H1130  H     0.82411   0.38041   0.37498   0.00000  Uiso   1.00
N1131  N     0.83333   0.61736   0.50000   0.00000  Uiso   1.00
N1132  N     0.83333   0.38264   0.50000   0.00000  Uiso   1.00
O1133  O     0.77321   0.53958   0.50000   0.00000  Uiso   1.00
O1134  O     0.89345   0.46042   0.50000   0.00000  Uiso   1.00
O1135  O     0.89345   0.53958   0.50000   0.00000  Uiso   1.00
O1136  O     0.77321   0.46042   0.50000   0.00000  Uiso   1.00
O1137  O     0.83333   0.53959   0.42946   0.00000  Uiso   1.00
O1138  O     0.83333   0.46041   0.57054   0.00000  Uiso   1.00
O1139  O     0.83333   0.53959   0.57054   0.00000  Uiso   1.00
O1140  O     0.83333   0.46041   0.42946   0.00000  Uiso   1.00
C1141  C     0.08759   0.83333   0.49994   0.00000  Uiso   1.00
C1142  C     0.02007   0.83335   0.45524   0.00000  Uiso   1.00
C1143  C     0.29039   0.83333   0.49997   0.00000  Uiso   1.00
C1144  C     0.04294   0.83333   0.50003   0.00000  Uiso   1.00
C1145  C     0.14061   0.69133   0.46840   0.00000  Uiso   1.00
C1146  C     0.19273   0.97533   0.53160   0.00000  Uiso   1.00
C1147  C     0.19273   0.69133   0.53160   0.00000  Uiso   1.00
C1148  C     0.14061   0.97534   0.46840   0.00000  Uiso   1.00
C1149  C     0.11268   0.71503   0.43196   0.00000  Uiso   1.00
C1150  C     0.07063   0.72172   0.44180   0.00000  Uiso   1.00
C1151  C     0.04284   0.73718   0.40456   0.00000  Uiso   1.00
C1152  C     0.24574   0.83333   0.50006   0.00000  Uiso   1.00
C1153  C     0.05689   0.74645   0.35748   0.00000  Uiso   1.00
C1154  C     0.09827   0.73838   0.34697   0.00000  Uiso   1.00
C1155  C     0.12582   0.72170   0.38375   0.00000  Uiso   1.00
C1156  C     0.22065   0.95164   0.56804   0.00000  Uiso   1.00
C1157  C     0.20751   0.94497   0.61625   0.00000  Uiso   1.00
C1158  C     0.23506   0.92829   0.65303   0.00000  Uiso   1.00
C1159  C     0.27644   0.92021   0.64252   0.00000  Uiso   1.00
C1160  C     0.29050   0.92949   0.59544   0.00000  Uiso   1.00
C1161  C     0.26271   0.94494   0.55820   0.00000  Uiso   1.00
C1162  C     0.22064   0.71502   0.56805   0.00000  Uiso   1.00
C1163  C     0.16663   0.83333   0.40706   0.00000  Uiso   1.00
C1164  C     0.26271   0.72171   0.55821   0.00000  Uiso   1.00
C1165  C     0.29050   0.73715   0.59546   0.00000  Uiso   1.00
C1166  C     0.27644   0.74642   0.64254   0.00000  Uiso   1.00
C1167  C     0.23505   0.73835   0.65304   0.00000  Uiso   1.00
C1168  C     0.20751   0.72169   0.61626   0.00000  Uiso   1.00
C1169  C     0.11269   0.95165   0.43195   0.00000  Uiso   1.00
C1170  C     0.12583   0.94498   0.38374   0.00000  Uiso   1.00
C1171  C     0.09828   0.92831   0.34696   0.00000  Uiso   1.00
C1172  C     0.05689   0.92025   0.35746   0.00000  Uiso   1.00
C1173  C     0.04284   0.92952   0.40454   0.00000  Uiso   1.00
C1174  C     0.16670   0.83333   0.59294   0.00000  Uiso   1.00
C1175  C     0.07063   0.94496   0.44179   0.00000  Uiso   1.00
C1176  C     0.16667   0.83333   0.35524   0.00000  Uiso   1.00
C1177  C     0.16667   0.83333   0.64476   0.00000  Uiso   1.00
C1178  C     0.02304   0.83331   0.54486   0.00000  Uiso   1.00
C1179  C     0.31029   0.83335   0.45514   0.00000  Uiso   1.00
C1180  C     0.31326   0.83331   0.54476   0.00000  Uiso   1.00
Cu1181 Cu    0.16667   0.88022   0.50000   0.00000  Uiso   1.00
Cu1182 Cu    0.16667   0.78645   0.50000   0.00000  Uiso   1.00
H1183  H     0.04080   0.83330   0.57961   0.00000  Uiso   1.00
H1184  H     0.17589   0.95293   0.62502   0.00000  Uiso   1.00
H1185  H     0.22456   0.92214   0.35652   0.00000  Uiso   1.00
H1186  H     0.29754   0.90727   0.33780   0.00000  Uiso   1.00
H1187  H     0.32290   0.92462   0.58770   0.00000  Uiso   1.00
H1188  H     0.27406   0.95261   0.52204   0.00000  Uiso   1.00
H1189  H     0.27406   0.71404   0.52205   0.00000  Uiso   1.00
H1190  H     0.32290   0.74200   0.58772   0.00000  Uiso   1.00
H1191  H     0.29753   0.75934   0.33783   0.00000  Uiso   1.00
H1192  H     0.22455   0.74450   0.35652   0.00000  Uiso   1.00
H1193  H     0.17588   0.71374   0.62502   0.00000  Uiso   1.00
H1194  H     0.29253   0.83337   0.42039   0.00000  Uiso   1.00
H1195  H     0.15746   0.95293   0.37498   0.00000  Uiso   1.00
H1196  H     0.10878   0.92217   0.64348   0.00000  Uiso   1.00
H1197  H     0.03580   0.90732   0.66217   0.00000  Uiso   1.00
H1198  H     0.01043   0.92466   0.41228   0.00000  Uiso   1.00
H1199  H     0.05928   0.95262   0.47795   0.00000  Uiso   1.00
H1200  H     0.29770   0.83330   0.57944   0.00000  Uiso   1.00
H1201  H     0.03563   0.83337   0.42056   0.00000  Uiso   1.00
H1202  H     0.05928   0.71405   0.47796   0.00000  Uiso   1.00
H1203  H     0.01044   0.74204   0.41230   0.00000  Uiso   1.00
H1204  H     0.03579   0.75940   0.66220   0.00000  Uiso   1.00
H1205  H     0.10877   0.74453   0.64348   0.00000  Uiso   1.00
H1206  H     0.15745   0.71374   0.37498   0.00000  Uiso   1.00
N1207  N     0.16667   0.95069   0.50000   0.00000  Uiso   1.00
N1208  N     0.16667   0.71598   0.50000   0.00000  Uiso   1.00
O1209  O     0.10655   0.87291   0.50000   0.00000  Uiso   1.00
O1210  O     0.22679   0.79375   0.50000   0.00000  Uiso   1.00
O1211  O     0.22679   0.87291   0.50000   0.00000  Uiso   1.00
O1212  O     0.10655   0.79375   0.50000   0.00000  Uiso   1.00
O1213  O     0.16667   0.87292   0.42946   0.00000  Uiso   1.00
O1214  O     0.16667   0.79375   0.57054   0.00000  Uiso   1.00
O1215  O     0.16667   0.87292   0.57054   0.00000  Uiso   1.00
O1216  O     0.16667   0.79375   0.42946   0.00000  Uiso   1.00
C1217  C     0.42092   0.83333   0.49994   0.00000  Uiso   1.00
C1218  C     0.35340   0.83335   0.45524   0.00000  Uiso   1.00
C1219  C     0.62372   0.83333   0.49997   0.00000  Uiso   1.00
C1220  C     0.37627   0.83333   0.50003   0.00000  Uiso   1.00
C1221  C     0.47394   0.69133   0.46840   0.00000  Uiso   1.00
C1222  C     0.52606   0.97533   0.53160   0.00000  Uiso   1.00
C1223  C     0.52606   0.69133   0.53160   0.00000  Uiso   1.00
C1224  C     0.47394   0.97534   0.46840   0.00000  Uiso   1.00
C1225  C     0.44602   0.71503   0.43196   0.00000  Uiso   1.00
C1226  C     0.40396   0.72172   0.44180   0.00000  Uiso   1.00
C1227  C     0.37617   0.73718   0.40456   0.00000  Uiso   1.00
C1228  C     0.57908   0.83333   0.50006   0.00000  Uiso   1.00
C1229  C     0.39022   0.74645   0.35748   0.00000  Uiso   1.00
C1230  C     0.43160   0.73838   0.34697   0.00000  Uiso   1.00
C1231  C     0.45915   0.72170   0.38375   0.00000  Uiso   1.00
C1232  C     0.55398   0.95164   0.56804   0.00000  Uiso   1.00
C1233  C     0.54085   0.94497   0.61625   0.00000  Uiso   1.00
C1234  C     0.56840   0.92829   0.65303   0.00000  Uiso   1.00
C1235  C     0.60978   0.92021   0.64252   0.00000  Uiso   1.00
C1236  C     0.62383   0.92949   0.59544   0.00000  Uiso   1.00
C1237  C     0.59604   0.94494   0.55820   0.00000  Uiso   1.00
C1238  C     0.55398   0.71502   0.56805   0.00000  Uiso   1.00
C1239  C     0.49996   0.83333   0.40706   0.00000  Uiso   1.00
C1240  C     0.59604   0.72171   0.55821   0.00000  Uiso   1.00
C1241  C     0.62383   0.73715   0.59546   0.00000  Uiso   1.00
C1242  C     0.60977   0.74642   0.64254   0.00000  Uiso   1.00
C1243  C     0.56839   0.73835   0.65304   0.00000  Uiso   1.00
C1244  C     0.54084   0.72169   0.61626   0.00000  Uiso   1.00
C1245  C     0.44602   0.95165   0.43195   0.00000  Uiso   1.00
C1246  C     0.45916   0.94498   0.38374   0.00000  Uiso   1.00
C1247  C     0.43161   0.92831   0.34696   0.00000  Uiso   1.00
C1248  C     0.39023   0.92025   0.35746   0.00000  Uiso   1.00
C1249  C     0.37617   0.92952   0.40454   0.00000  Uiso   1.00
C1250  C     0.50004   0.83333   0.59294   0.00000  Uiso   1.00
C1251  C     0.40396   0.94496   0.44179   0.00000  Uiso   1.00
C1252  C     0.50000   0.83333   0.35524   0.00000  Uiso   1.00
C1253  C     0.50000   0.83333   0.64476   0.00000  Uiso   1.00
C1254  C     0.35638   0.83331   0.54486   0.00000  Uiso   1.00
C1255  C     0.64362   0.83335   0.45514   0.00000  Uiso   1.00
C1256  C     0.64659   0.83331   0.54476   0.00000  Uiso   1.00
Cu1257 Cu    0.50000   0.88022   0.50000   0.00000  Uiso   1.00
Cu1258 Cu    0.50000   0.78645   0.50000   0.00000  Uiso   1.00
H1259  H     0.37414   0.83330   0.57961   0.00000  Uiso   1.00
H1260  H     0.50922   0.95293   0.62502   0.00000  Uiso   1.00
H1261  H     0.55789   0.92214   0.35652   0.00000  Uiso   1.00
H1262  H     0.63087   0.90727   0.33780   0.00000  Uiso   1.00
H1263  H     0.65623   0.92462   0.58770   0.00000  Uiso   1.00
H1264  H     0.60739   0.95261   0.52204   0.00000  Uiso   1.00
H1265  H     0.60739   0.71404   0.52205   0.00000  Uiso   1.00
H1266  H     0.65623   0.74200   0.58772   0.00000  Uiso   1.00
H1267  H     0.63087   0.75934   0.33783   0.00000  Uiso   1.00
H1268  H     0.55788   0.74450   0.35652   0.00000  Uiso   1.00
H1269  H     0.50921   0.71374   0.62502   0.00000  Uiso   1.00
H1270  H     0.62586   0.83337   0.42039   0.00000  Uiso   1.00
H1271  H     0.49079   0.95293   0.37498   0.00000  Uiso   1.00
H1272  H     0.44212   0.92217   0.64348   0.00000  Uiso   1.00
H1273  H     0.36913   0.90732   0.66217   0.00000  Uiso   1.00
H1274  H     0.34377   0.92466   0.41228   0.00000  Uiso   1.00
H1275  H     0.39261   0.95262   0.47795   0.00000  Uiso   1.00
H1276  H     0.63104   0.83330   0.57944   0.00000  Uiso   1.00
H1277  H     0.36896   0.83337   0.42056   0.00000  Uiso   1.00
H1278  H     0.39261   0.71405   0.47796   0.00000  Uiso   1.00
H1279  H     0.34377   0.74204   0.41230   0.00000  Uiso   1.00
H1280  H     0.36913   0.75940   0.66220   0.00000  Uiso   1.00
H1281  H     0.44211   0.74453   0.64348   0.00000  Uiso   1.00
H1282  H     0.49078   0.71374   0.37498   0.00000  Uiso   1.00
N1283  N     0.50000   0.95069   0.50000   0.00000  Uiso   1.00
N1284  N     0.50000   0.71598   0.50000   0.00000  Uiso   1.00
O1285  O     0.43988   0.87291   0.50000   0.00000  Uiso   1.00
O1286  O     0.56012   0.79375   0.50000   0.00000  Uiso   1.00
O1287  O     0.56012   0.87291   0.50000   0.00000  Uiso   1.00
O1288  O     0.43988   0.79375   0.50000   0.00000  Uiso   1.00
O1289  O     0.50000   0.87292   0.42946   0.00000  Uiso   1.00
O1290  O     0.50000   0.79375   0.57054   0.00000  Uiso   1.00
O1291  O     0.50000   0.87292   0.57054   0.00000  Uiso   1.00
O1292  O     0.50000   0.79375   0.42946   0.00000  Uiso   1.00
C1293  C     0.75426   0.83333   0.49994   0.00000  Uiso   1.00
C1294  C     0.68674   0.83335   0.45524   0.00000  Uiso   1.00
C1295  C     0.95706   0.83333   0.49997   0.00000  Uiso   1.00
C1296  C     0.70961   0.83333   0.50003   0.00000  Uiso   1.00
C1297  C     0.80727   0.69133   0.46840   0.00000  Uiso   1.00
C1298  C     0.85939   0.97533   0.53160   0.00000  Uiso   1.00
C1299  C     0.85939   0.69133   0.53160   0.00000  Uiso   1.00
C1300  C     0.80727   0.97534   0.46840   0.00000  Uiso   1.00
C1301  C     0.77935   0.71503   0.43196   0.00000  Uiso   1.00
C1302  C     0.73729   0.72172   0.44180   0.00000  Uiso   1.00
C1303  C     0.70950   0.73718   0.40456   0.00000  Uiso   1.00
C1304  C     0.91241   0.83333   0.50006   0.00000  Uiso   1.00
C1305  C     0.72356   0.74645   0.35748   0.00000  Uiso   1.00
C1306  C     0.76494   0.73838   0.34697   0.00000  Uiso   1.00
C1307  C     0.79249   0.72170   0.38375   0.00000  Uiso   1.00
C1308  C     0.88731   0.95164   0.56804   0.00000  Uiso   1.00
C1309  C     0.87418   0.94497   0.61625   0.00000  Uiso   1.00
C1310  C     0.90173   0.92829   0.65303   0.00000  Uiso   1.00
C1311  C     0.94311   0.92021   0.64252   0.00000  Uiso   1.00
C1312  C     0.95716   0.92949   0.59544   0.00000  Uiso   1.00
C1313  C     0.92937   0.94494   0.55820   0.00000  Uiso   1.00
C1314  C     0.88731   0.71502   0.56805   0.00000  Uiso   1.00
C1315  C     0.83330   0.83333   0.40706   0.00000  Uiso   1.00
C1316  C     0.92937   0.72171   0.55821   0.00000  Uiso   1.00
C1317  C     0.95716   0.73715   0.59546   0.00000  Uiso   1.00
C1318  C     0.94311   0.74642   0.64254   0.00000  Uiso   1.00
C1319  C     0.90172   0.73835   0.65304   0.00000  Uiso   1.00
C1320  C     0.87417   0.72169   0.61626   0.00000  Uiso   1.00
C1321  C     0.77935   0.95165   0.43195   0.00000  Uiso   1.00
C1322  C     0.79249   0.94498   0.38374   0.00000  Uiso   1.00
C1323  C     0.76495   0.92831   0.34696   0.00000  Uiso   1.00
C1324  C     0.72356   0.92025   0.35746   0.00000  Uiso   1.00
C1325  C     0.70950   0.92952   0.40454   0.00000  Uiso   1.00
C1326  C     0.83337   0.83333   0.59294   0.00000  Uiso   1.00
C1327  C     0.73729   0.94496   0.44179   0.00000  Uiso   1.00
C1328  C     0.83333   0.83333   0.35524   0.00000  Uiso   1.00
C1329  C     0.83333   0.83333   0.64476   0.00000  Uiso   1.00
C1330  C     0.68971   0.83331   0.54486   0.00000  Uiso   1.00
C1331  C     0.97696   0.83335   0.45514   0.00000  Uiso   1.00
C1332  C     0.97993   0.83331   0.54476   0.00000  Uiso   1.00
Cu1333 Cu    0.83333   0.88022   0.50000   0.00000  Uiso   1.00
Cu1334 Cu    0.83333   0.78645   0.50000   0.00000  Uiso   1.00
H1335  H     0.70747   0.83330   0.57961   0.00000  Uiso   1.00
H1336  H     0.84255   0.95293   0.62502   0.00000  Uiso   1.00
H1337  H     0.89123   0.92214   0.35652   0.00000  Uiso   1.00
H1338  H     0.96421   0.90727   0.33780   0.00000  Uiso   1.00
H1339  H     0.98956   0.92462   0.58770   0.00000  Uiso   1.00
H1340  H     0.94072   0.95261   0.52204   0.00000  Uiso   1.00
H1341  H     0.94072   0.71404   0.52205   0.00000  Uiso   1.00
H1342  H     0.98957   0.74200   0.58772   0.00000  Uiso   1.00
H1343  H     0.96420   0.75934   0.33783   0.00000  Uiso   1.00
H1344  H     0.89122   0.74450   0.35652   0.00000  Uiso   1.00
H1345  H     0.84254   0.71374   0.62502   0.00000  Uiso   1.00
H1346  H     0.95920   0.83337   0.42039   0.00000  Uiso   1.00
H1347  H     0.82412   0.95293   0.37498   0.00000  Uiso   1.00
H1348  H     0.77545   0.92217   0.64348   0.00000  Uiso   1.00
H1349  H     0.70247   0.90732   0.66217   0.00000  Uiso   1.00
H1350  H     0.67710   0.92466   0.41228   0.00000  Uiso   1.00
H1351  H     0.72594   0.95262   0.47795   0.00000  Uiso   1.00
H1352  H     0.96437   0.83330   0.57944   0.00000  Uiso   1.00
H1353  H     0.70230   0.83337   0.42056   0.00000  Uiso   1.00
H1354  H     0.72594   0.71405   0.47796   0.00000  Uiso   1.00
H1355  H     0.67710   0.74204   0.41230   0.00000  Uiso   1.00
H1356  H     0.70246   0.75940   0.66220   0.00000  Uiso   1.00
H1357  H     0.77544   0.74453   0.64348   0.00000  Uiso   1.00
H1358  H     0.82411   0.71374   0.37498   0.00000  Uiso   1.00
N1359  N     0.83333   0.95069   0.50000   0.00000  Uiso   1.00
N1360  N     0.83333   0.71598   0.50000   0.00000  Uiso   1.00
O1361  O     0.77321   0.87291   0.50000   0.00000  Uiso   1.00
O1362  O     0.89345   0.79375   0.50000   0.00000  Uiso   1.00
O1363  O     0.89345   0.87291   0.50000   0.00000  Uiso   1.00
O1364  O     0.77321   0.79375   0.50000   0.00000  Uiso   1.00
O1365  O     0.83333   0.87292   0.42946   0.00000  Uiso   1.00
O1366  O     0.83333   0.79375   0.57054   0.00000  Uiso   1.00
O1367  O     0.83333   0.87292   0.57054   0.00000  Uiso   1.00
O1368  O     0.83333   0.79375   0.42946   0.00000  Uiso   1.00
C1369  C     0.08759   0.16667   0.83328   0.00000  Uiso   1.00
C1370  C     0.02007   0.16669   0.78857   0.00000  Uiso   1.00
C1371  C     0.29039   0.16667   0.83330   0.00000  Uiso   1.00
C1372  C     0.04294   0.16667   0.83337   0.00000  Uiso   1.00
C1373  C     0.14061   0.02466   0.80174   0.00000  Uiso   1.00
C1374  C     0.19273   0.30867   0.86493   0.00000  Uiso   1.00
C1375  C     0.19273   0.02466   0.86493   0.00000  Uiso   1.00
C1376  C     0.14061   0.30867   0.80174   0.00000  Uiso   1.00
C1377  C     0.11268   0.04836   0.76529   0.00000  Uiso   1.00
C1378  C     0.07063   0.05506   0.77513   0.00000  Uiso   1.00
C1379  C     0.04284   0.07051   0.73790   0.00000  Uiso   1.00
C1380  C     0.24574   0.16667   0.83339   0.00000  Uiso   1.00
C1381  C     0.05689   0.07979   0.69081   0.00000  Uiso   1.00
C1382  C     0.09827   0.07171   0.68030   0.00000  Uiso   1.00
C1383  C     0.12582   0.05503   0.71708   0.00000  Uiso   1.00
C1384  C     0.22065   0.28497   0.90138   0.00000  Uiso   1.00
C1385  C     0.20751   0.27830   0.94959   0.00000  Uiso   1.00
C1386  C     0.23506   0.26162   0.98637   0.00000  Uiso   1.00
C1387  C     0.27644   0.25355   0.97585   0.00000  Uiso   1.00
C1388  C     0.29050   0.26282   0.92877   0.00000  Uiso   1.00
C1389  C     0.26271   0.27828   0.89153   0.00000  Uiso   1.00
C1390  C     0.22064   0.04835   0.90138   0.00000  Uiso   1.00
C1391  C     0.16663   0.16667   0.74039   0.00000  Uiso   1.00
C1392  C     0.26271   0.05504   0.89154   0.00000  Uiso   1.00
C1393  C     0.29050   0.07048   0.92879   0.00000  Uiso   1.00
C1394  C     0.27644   0.07975   0.97587   0.00000  Uiso   1.00
C1395  C     0.23505   0.07169   0.98638   0.00000  Uiso   1.00
C1396  C     0.20751   0.05502   0.94959   0.00000  Uiso   1.00
C1397  C     0.11269   0.28498   0.76529   0.00000  Uiso   1.00
C1398  C     0.12583   0.27831   0.71708   0.00000  Uiso   1.00
C1399  C     0.09828   0.26165   0.68029   0.00000  Uiso   1.00
C1400  C     0.05689   0.25358   0.69080   0.00000  Uiso   1.00
C1401  C     0.04284   0.26285   0.73788   0.00000  Uiso   1.00
C1402  C     0.16670   0.16667   0.92627   0.00000  Uiso   1.00
C1403  C     0.07063   0.27829   0.77512   0.00000  Uiso   1.00
C1404  C     0.16667   0.16667   0.68857   0.00000  Uiso   1.00
C1405  C     0.16667   0.16667   0.97809   0.00000  Uiso   1.00
C1406  C     0.02304   0.16665   0.87820   0.00000  Uiso   1.00
C1407  C     0.31029   0.16669   0.78847   0.00000  Uiso   1.00
C1408  C     0.31326   0.16665   0.87809   0.00000  Uiso   1.00
Cu1409 Cu    0.16667   0.21355   0.83333   0.00000  Uiso   1.00
Cu1410 Cu    0.16667   0.11978   0.83333   0.00000  Uiso   1.00
H1411  H     0.04080   0.16663   0.91294   0.00000  Uiso   1.00
H1412  H     0.17589   0.28626   0.95836   0.00000  Uiso   1.00
H1413  H     0.22456   0.25547   0.68985   0.00000  Uiso   1.00
H1414  H     0.29754   0.24060   0.67114   0.00000  Uiso   1.00
H1415  H     0.32290   0.25796   0.92103   0.00000  Uiso   1.00
H1416  H     0.27406   0.28595   0.85537   0.00000  Uiso   1.00
H1417  H     0.27406   0.04738   0.85538   0.00000  Uiso   1.00
H1418  H     0.32290   0.07534   0.92106   0.00000  Uiso   1.00
H1419  H     0.29753   0.09268   0.67116   0.00000  Uiso   1.00
H1420  H     0.22455   0.07783   0.68986   0.00000  Uiso   1.00
H1421  H     0.17588   0.04707   0.95835   0.00000  Uiso   1.00
H1422  H     0.29253   0.16670   0.75372   0.00000  Uiso   1.00
H1423  H     0.15746   0.28626   0.70831   0.00000  Uiso   1.00
H1424  H     0.10878   0.25550   0.97681   0.00000  Uiso   1.00
H1425  H     0.03580   0.24066   0.99550   0.00000  Uiso   1.00
H1426  H     0.01043   0.25800   0.74561   0.00000  Uiso   1.00
H1427  H     0.05928   0.28596   0.81128   0.00000  Uiso   1.00
H1428  H     0.29770   0.16663   0.91278   0.00000  Uiso   1.00
H1429  H     0.03563   0.16670   0.75389   0.00000  Uiso   1.00
H1430  H     0.05928   0.04739   0.81130   0.00000  Uiso   1.00
H1431  H     0.01044   0.07538   0.74564   0.00000  Uiso   1.00
H1432  H     0.03579   0.09273   0.99553   0.00000  Uiso   1.00
H1433  H     0.10877   0.07786   0.97682   0.00000  Uiso   1.00
H1434  H     0.15745   0.04707   0.70831   0.00000  Uiso   1.00
N1435  N     0.16667   0.28402   0.83333   0.00000  Uiso   1.00
N1436  N     0.16667   0.04931   0.83333   0.00000  Uiso   1.00
O1437  O     0.10655   0.20625   0.83333   0.00000  Uiso   1.00
O1438  O     0.22679   0.12709   0.83334   0.00000  Uiso   1.00
O1439  O     0.22679   0.20625   0.83334   0.00000  Uiso   1.00
O1440  O     0.10655   0.12709   0.83333   0.00000  Uiso   1.00
O1441  O     0.16667   0.20625   0.76280   0.00000  Uiso   1.00
O1442  O     0.16667   0.12708   0.90387   0.00000  Uiso   1.00
O1443  O     0.16667   0.20625   0.90387   0.00000  Uiso   1.00
O1444  O     0.16667   0.12708   0.76280   0.00000  Uiso   1.00
C1445  C     0.42092   0.16667   0.83328   0.00000  Uiso   1.00
C1446  C     0.35340   0.16669   0.78857   0.00000  Uiso   1.00
C1447  C     0.62372   0.16667   0.83330   0.00000  Uiso   1.00
C1448  C     0.37627   0.16667   0.83337   0.00000  Uiso   1.00
C1449  C     0.47394   0.02466   0.80174   0.00000  Uiso   1.00
C1450  C     0.52606   0.30867   0.86493   0.00000  Uiso   1.00
C1451  C     0.52606   0.02466   0.86493   0.00000  Uiso   1.00
C1452  C     0.47394   0.30867   0.80174   0.00000  Uiso   1.00
C1453  C     0.44602   0.04836   0.76529   0.00000  Uiso   1.00
C1454  C     0.40396   0.05506   0.77513   0.00000  Uiso   1.00
C1455  C     0.37617   0.07051   0.73790   0.00000  Uiso   1.00
C1456  C     0.57908   0.16667   0.83339   0.00000  Uiso   1.00
C1457  C     0.39022   0.07979   0.69081   0.00000  Uiso   1.00
C1458  C     0.43160   0.07171   0.68030   0.00000  Uiso   1.00
C1459  C     0.45915   0.05503   0.71708   0.00000  Uiso   1.00
C1460  C     0.55398   0.28497   0.90138   0.00000  Uiso   1.00
C1461  C     0.54085   0.27830   0.94959   0.00000  Uiso   1.00
C1462  C     0.56840   0.26162   0.98637   0.00000  Uiso   1.00
C1463  C     0.60978   0.25355   0.97585   0.00000  Uiso   1.00
C1464  C     0.62383   0.26282   0.92877   0.00000  Uiso   1.00
C1465  C     0.59604   0.27828   0.89153   0.00000  Uiso   1.00
C1466  C     0.55398   0.04835   0.90138   0.00000  Uiso   1.00
C1467  C     0.49996   0.16667   0.74039   0.00000  Uiso   1.00
C1468  C     0.59604   0.05504   0.89154   0.00000  Uiso   1.00
C1469  C     0.62383   0.07048   0.92879   0.00000  Uiso   1.00
C1470  C     0.60977   0.07975   0.97587   0.00000  Uiso   1.00
C1471  C     0.56839   0.07169   0.98638   0.00000  Uiso   1.00
C1472  C     0.54084   0.05502   0.94959   0.00000  Uiso   1.00
C1473  C     0.44602   0.28498   0.76529   0.00000  Uiso   1.00
C1474  C     0.45916   0.27831   0.71708   0.00000  Uiso   1.00
C1475  C     0.43161   0.26165   0.68029   0.00000  Uiso   1.00
C1476  C     0.39023   0.25358   0.69080   0.00000  Uiso   1.00
C1477  C     0.37617   0.26285   0.73788   0.00000  Uiso   1.00
C1478  C     0.50004   0.16667   0.92627   0.00000  Uiso   1.00
C1479  C     0.40396   0.27829   0.77512   0.00000  Uiso   1.00
C1480  C     0.50000   0.16667   0.68857   0.00000  Uiso   1.00
C1481  C     0.50000   0.16667   0.97809   0.00000  Uiso   1.00
C1482  C     0.35638   0.16665   0.87820   0.00000  Uiso   1.00
C1483  C     0.64362   0.16669   0.78847   0.00000  Uiso   1.00
C1484  C     0.64659   0.16665   0.87809   0.00000  Uiso   1.00
Cu1485 Cu    0.50000   0.21355   0.83333   0.00000  Uiso   1.00
Cu1486 Cu    0.50000   0.11978   0.83333   0.00000  Uiso   1.00
H1487  H     0.37414   0.16663   0.91294   0.00000  Uiso   1.00
H1488  H     0.50922   0.28626   0.95836   0.00000  Uiso   1.00
H1489  H     0.55789   0.25547   0.68985   0.00000  Uiso   1.00
H1490  H     0.63087   0.24060   0.67114   0.00000  Uiso   1.00
H1491  H     0.65623   0.25796   0.92103   0.00000  Uiso   1.00
H1492  H     0.60739   0.28595   0.85537   0.00000  Uiso   1.00
H1493  H     0.60739   0.04738   0.85538   0.00000  Uiso   1.00
H1494  H     0.65623   0.07534   0.92106   0.00000  Uiso   1.00
H1495  H     0.63087   0.09268   0.67116   0.00000  Uiso   1.00
H1496  H     0.55788   0.07783   0.68986   0.00000  Uiso   1.00
H1497  H     0.50921   0.04707   0.95835   0.00000  Uiso   1.00
H1498  H     0.62586   0.16670   0.75372   0.00000  Uiso   1.00
H1499  H     0.49079   0.28626   0.70831   0.00000  Uiso   1.00
H1500  H     0.44212   0.25550   0.97681   0.00000  Uiso   1.00
H1501  H     0.36913   0.24066   0.99550   0.00000  Uiso   1.00
H1502  H     0.34377   0.25800   0.74561   0.00000  Uiso   1.00
H1503  H     0.39261   0.28596   0.81128   0.00000  Uiso   1.00
H1504  H     0.63104   0.16663   0.91278   0.00000  Uiso   1.00
H1505  H     0.36896   0.16670   0.75389   0.00000  Uiso   1.00
H1506  H     0.39261   0.04739   0.81130   0.00000  Uiso   1.00
H1507  H     0.34377   0.07538   0.74564   0.00000  Uiso   1.00
H1508  H     0.36913   0.09273   0.99553   0.00000  Uiso   1.00
H1509  H     0.44211   0.07786   0.97682   0.00000  Uiso   1.00
H1510  H     0.49078   0.04707   0.70831   0.00000  Uiso   1.00
N1511  N     0.50000   0.28402   0.83333   0.00000  Uiso   1.00
N1512  N     0.50000   0.04931   0.83333   0.00000  Uiso   1.00
O1513  O     0.43988   0.20625   0.83333   0.00000  Uiso   1.00
O1514  O     0.56012   0.12709   0.83334   0.00000  Uiso   1.00
O1515  O     0.56012   0.20625   0.83334   0.00000  Uiso   1.00
O1516  O     0.43988   0.12709   0.83333   0.00000  Uiso   1.00
O1517  O     0.50000   0.20625   0.76280   0.00000  Uiso   1.00
O1518  O     0.50000   0.12708   0.90387   0.00000  Uiso   1.00
O1519  O     0.50000   0.20625   0.90387   0.00000  Uiso   1.00
O1520  O     0.50000   0.12708   0.76280   0.00000  Uiso   1.00
C1521  C     0.75426   0.16667   0.83328   0.00000  Uiso   1.00
C1522  C     0.68674   0.16669   0.78857   0.00000  Uiso   1.00
C1523  C     0.95706   0.16667   0.83330   0.00000  Uiso   1.00
C1524  C     0.70961   0.16667   0.83337   0.00000  Uiso   1.00
C1525  C     0.80727   0.02466   0.80174   0.00000  Uiso   1.00
C1526  C     0.85939   0.30867   0.86493   0.00000  Uiso   1.00
C1527  C     0.85939   0.02466   0.86493   0.00000  Uiso   1.00
C1528  C     0.80727   0.30867   0.80174   0.00000  Uiso   1.00
C1529  C     0.77935   0.04836   0.76529   0.00000  Uiso   1.00
C1530  C     0.73729   0.05506   0.77513   0.00000  Uiso   1.00
C1531  C     0.70950   0.07051   0.73790   0.00000  Uiso   1.00
C1532  C     0.91241   0.16667   0.83339   0.00000  Uiso   1.00
C1533  C     0.72356   0.07979   0.69081   0.00000  Uiso   1.00
C1534  C     0.76494   0.07171   0.68030   0.00000  Uiso   1.00
C1535  C     0.79249   0.05503   0.71708   0.00000  Uiso   1.00
C1536  C     0.88731   0.28497   0.90138   0.00000  Uiso   1.00
C1537  C     0.87418   0.27830   0.94959   0.00000  Uiso   1.00
C1538  C     0.90173   0.26162   0.98637   0.00000  Uiso   1.00
C1539  C     0.94311   0.25355   0.97585   0.00000  Uiso   1.00
C1540  C     0.95716   0.26282   0.92877   0.00000  Uiso   1.00
C1541  C     0.92937   0.27828   0.89153   0.00000  Uiso   1.00
C1542  C     0.88731   0.04835   0.90138   0.00000  Uiso   1.00
C1543  C     0.83330   0.16667   0.74039   0.00000  Uiso   1.00
C1544  C     0.92937   0.05504   0.89154   0.00000  Uiso   1.00
C1545  C     0.95716   0.07048   0.92879   0.00000  Uiso   1.00
C1546  C     0.94311   0.07975   0.97587   0.00000  Uiso   1.00
C1547  C     0.90172   0.07169   0.98638   0.00000  Uiso   1.00
C1548  C     0.87417   0.05502   0.94959   0.00000  Uiso   1.00
C1549  C     0.77935   0.28498   0.76529   0.00000  Uiso   1.00
C1550  C     0.79249   0.27831   0.71708   0.00000  Uiso   1.00
C1551  C     0.76495   0.26165   0.68029   0.00000  Uiso   1.00
C1552  C     0.72356   0.25358   0.69080   0.00000  Uiso   1.00
C1553  C     0.70950   0.26285   0.73788   0.00000  Uiso   1.00
C1554  C     0.83337   0.16667   0.92627   0.00000  Uiso   1.00
C1555  C     0.73729   0.27829   0.77512   0.00000  Uiso   1.00
C1556  C     0.83333   0.16667   0.68857   0.00000  Uiso   1.00
C1557  C     0.83333   0.16667   0.97809   0.00000  Uiso   1.00
C1558  C     0.68971   0.16665   0.87820   0.00000  Uiso   1.00
C1559  C     0.97696   0.16669   0.78847   0.00000  Uiso   1.00
C1560  C     0.97993   0.16665   0.87809   0.00000  Uiso   1.00
Cu1561 Cu    0.83333   0.21355   0.83333   0.00000  Uiso   1.00
Cu1562 Cu    0.83333   0.11978   0.83333   0.00000  Uiso   1.00
H1563  H     0.70747   0.16663   0.91294   0.00000  Uiso   1.00
H1564  H     0.84255   0.28626   0.95836   0.00000  Uiso   1.00
H1565  H     0.89123   0.25547   0.68985   0.00000  Uiso   1.00
H1566  H     0.96421   0.24060   0.67114   0.00000  Uiso   1.00
H1567  H     0.98956   0.25796   0.92103   0.00000  Uiso   1.00
H1568  H     0.94072   0.28595   0.85537   0.00000  Uiso   1.00
H1569  H     0.94072   0.04738   0.85538   0.00000  Uiso   1.00
H1570  H     0.98957   0.07534   0.92106   0.00000  Uiso   1.00
H1571  H     0.96420   0.09268   0.67116   0.00000  Uiso   1.00
H1572  H     0.89122   0.07783   0.68986   0.00000  Uiso   1.00
H1573  H     0.84254   0.04707   0.95835   0.00000  Uiso   1.00
H1574  H     0.95920   0.16670   0.75372   0.00000  Uiso   1.00
H1575  H     0.82412   0.28626   0.70831   0.00000  Uiso   1.00
H1576  H     0.77545   0.25550   0.97681   0.00000  Uiso   1.00
H1577  H     0.70247   0.24066   0.99550   0.00000  Uiso   1.00
H1578  H     0.67710   0.25800   0.74561   0.00000  Uiso   1.00
H1579  H     0.72594   0.28596   0.81128   0.00000  Uiso   1.00
H1580  H     0.96437   0.16663   0.91278   0.00000  Uiso   1.00
H1581  H     0.70230   0.16670   0.75389   0.00000  Uiso   1.00
H1582  H     0.72594   0.04739   0.81130   0.00000  Uiso   1.00
H1583  H     0.67710   0.07538   0.74564   0.00000  Uiso   1.00
H1584  H     0.70246   0.09273   0.99553   0.00000  Uiso   1.00
H1585  H     0.77544   0.07786   0.97682   0.00000  Uiso   1.00
H1586  H     0.82411   0.04707   0.70831   0.00000  Uiso   1.00
N1587  N     0.83333   0.28402   0.83333   0.00000  Uiso   1.00
N1588  N     0.83333   0.04931   0.83333   0.00000  Uiso   1.00
O1589  O     0.77321   0.20625   0.83333   0.00000  Uiso   1.00
O1590  O     0.89345   0.12709   0.83334   0.00000  Uiso   1.00
O1591  O     0.89345   0.20625   0.83334   0.00000  Uiso   1.00
O1592  O     0.77321   0.12709   0.83333   0.00000  Uiso   1.00
O1593  O     0.83333   0.20625   0.76280   0.00000  Uiso   1.00
O1594  O     0.83333   0.12708   0.90387   0.00000  Uiso   1.00
O1595  O     0.83333   0.20625   0.90387   0.00000  Uiso   1.00
O1596  O     0.83333   0.12708   0.76280   0.00000  Uiso   1.00
C1597  C     0.08759   0.50000   0.83328   0.00000  Uiso   1.00
C1598  C     0.02007   0.50002   0.78857   0.00000  Uiso   1.00
C1599  C     0.29039   0.50000   0.83330   0.00000  Uiso   1.00
C1600  C     0.04294   0.50000   0.83337   0.00000  Uiso   1.00
C1601  C     0.14061   0.35800   0.80174   0.00000  Uiso   1.00
C1602  C     0.19273   0.64200   0.86493   0.00000  Uiso   1.00
C1603  C     0.19273   0.35800   0.86493   0.00000  Uiso   1.00
C1604  C     0.14061   0.64200   0.80174   0.00000  Uiso   1.00
C1605  C     0.11268   0.38169   0.76529   0.00000  Uiso   1.00
C1606  C     0.07063   0.38839   0.77513   0.00000  Uiso   1.00
C1607  C     0.04284   0.40385   0.73790   0.00000  Uiso   1.00
C1608  C     0.24574   0.50000   0.83339   0.00000  Uiso   1.00
C1609  C     0.05689   0.41312   0.69081   0.00000  Uiso   1.00
C1610  C     0.09827   0.40505   0.68030   0.00000  Uiso   1.00
C1611  C     0.12582   0.38836   0.71708   0.00000  Uiso   1.00
C1612  C     0.22065   0.61831   0.90138   0.00000  Uiso   1.00
C1613  C     0.20751   0.61163   0.94959   0.00000  Uiso   1.00
C1614  C     0.23506   0.59495   0.98637   0.00000  Uiso   1.00
C1615  C     0.27644   0.58688   0.97585   0.00000  Uiso   1.00
C1616  C     0.29050   0.59615   0.92877   0.00000  Uiso   1.00
C1617  C     0.26271   0.61161   0.89153   0.00000  Uiso   1.00
C1618  C     0.22064   0.38169   0.90138   0.00000  Uiso   1.00
C1619  C     0.16663   0.50000   0.74039   0.00000  Uiso   1.00
C1620  C     0.26271   0.38837   0.89154   0.00000  Uiso   1.00
C1621  C     0.29050   0.40382   0.92879   0.00000  Uiso   1.00
C1622  C     0.27644   0.41308   0.97587   0.00000  Uiso   1.00
C1623  C     0.23505   0.40502   0.98638   0.00000  Uiso   1.00
C1624  C     0.20751   0.38835   0.94959   0.00000  Uiso   1.00
C1625  C     0.11269   0.61831   0.76529   0.00000  Uiso   1.00
C1626  C     0.12583   0.61165   0.71708   0.00000  Uiso   1.00
C1627  C     0.09828   0.59498   0.68029   0.00000  Uiso   1.00
C1628  C     0.05689   0.58692   0.69080   0.00000  Uiso   1.00
C1629  C     0.04284   0.59618   0.73788   0.00000  Uiso   1.00
C1630  C     0.16670   0.50000   0.92627   0.00000  Uiso   1.00
C1631  C     0.07063   0.61162   0.77512   0.00000  Uiso   1.00
C1632  C     0.16667   0.50000   0.68857   0.00000  Uiso   1.00
C1633  C     0.16667   0.50000   0.97809   0.00000  Uiso   1.00
C1634  C     0.02304   0.49998   0.87820   0.00000  Uiso   1.00
C1635  C     0.31029   0.50002   0.78847   0.00000  Uiso   1.00
C1636  C     0.31326   0.49998   0.87809   0.00000  Uiso   1.00
Cu1637 Cu    0.16667   0.54689   0.83333   0.00000  Uiso   1.00
Cu1638 Cu    0.16667   0.45311   0.83333   0.00000  Uiso   1.00
H1639  H     0.04080   0.49996   0.91294   0.00000  Uiso   1.00
H1640  H     0.17589   0.61959   0.95836   0.00000  Uiso   1.00
H1641  H     0.22456   0.58880   0.68985   0.00000  Uiso   1.00
H1642  H     0.29754   0.57393   0.67114   0.00000  Uiso   1.00
H1643  H     0.32290   0.59129   0.92103   0.00000  Uiso   1.00
H1644  H     0.27406   0.61928   0.85537   0.00000  Uiso   1.00
H1645  H     0.27406   0.38071   0.85538   0.00000  Uiso   1.00
H1646  H     0.32290   0.40867   0.92106   0.00000  Uiso   1.00
H1647  H     0.29753   0.42601   0.67116   0.00000  Uiso   1.00
H1648  H     0.22455   0.41117   0.68986   0.00000  Uiso   1.00
H1649  H     0.17588   0.38040   0.95835   0.00000  Uiso   1.00
H1650  H     0.29253   0.50004   0.75372   0.00000  Uiso   1.00
H1651  H     0.15746   0.61960   0.70831   0.00000  Uiso   1.00
H1652  H     0.10878   0.58883   0.97681   0.00000  Uiso   1.00
H1653  H     0.03580   0.57399   0.99550   0.00000  Uiso   1.00
H1654  H     0.01043   0.59133   0.74561   0.00000  Uiso   1.00
H1655  H     0.05928   0.61929   0.81128   0.00000  Uiso   1.00
H1656  H     0.29770   0.49997   0.91278   0.00000  Uiso   1.00
H1657  H     0.03563   0.50003   0.75389   0.00000  Uiso   1.00
H1658  H     0.05928   0.38072   0.81130   0.00000  Uiso   1.00
H1659  H     0.01044   0.40871   0.74564   0.00000  Uiso   1.00
H1660  H     0.03579   0.42607   0.99553   0.00000  Uiso   1.00
H1661  H     0.10877   0.41120   0.97682   0.00000  Uiso   1.00
H1662  H     0.15745   0.38041   0.70831   0.00000  Uiso   1.00
N1663  N     0.16667   0.61736   0.83333   0.00000  Uiso   1.00
N1664  N     0.16667   0.38264   0.83333   0.00000  Uiso   1.00
O1665  O     0.10655   0.53958   0.83333   0.00000  Uiso   1.00
O1666  O     0.22679   0.46042   0.83334   0.00000  Uiso   1.00
O1667  O     0.22679   0.53958   0.83334   0.00000  Uiso   1.00
O1668  O     0.10655   0.46042   0.83333   0.00000  Uiso   1.00
O1669  O     0.16667   0.53959   0.76280   0.00000  Uiso   1.00
O1670  O     0.16667   0.46041   0.90387   0.00000  Uiso   1.00
O1671  O     0.16667   0.53959   0.90387   0.00000  Uiso   1.00
O1672  O     0.16667   0.46041   0.76280   0.00000  Uiso   1.00
C1673  C     0.42092   0.50000   0.83328   0.00000  Uiso   1.00
C1674  C     0.35340   0.50002   0.78857   0.00000  Uiso   1.00
C1675  C     0.62372   0.50000   0.83330   0.00000  Uiso   1.00
C1676  C     0.37627   0.50000   0.83337   0.00000  Uiso   1.00
C1677  C     0.47394   0.35800   0.80174   0.00000  Uiso   1.00
C1678  C     0.52606   0.64200   0.86493   0.00000  Uiso   1.00
C1679  C     0.52606   0.35800   0.86493   0.00000  Uiso   1.00
C1680  C     0.47394   0.64200   0.80174   0.00000  Uiso   1.00
C1681  C     0.44602   0.38169   0.76529   0.00000  Uiso   1.00
C1682  C     0.40396   0.38839   0.77513   0.00000  Uiso   1.00
C1683  C     0.37617   0.40385   0.73790   0.00000  Uiso   1.00
C1684  C     0.57908   0.50000   0.83339   0.00000  Uiso   1.00
C1685  C     0.39022   0.41312   0.69081   0.00000  Uiso   1.00
C1686  C     0.43160   0.40505   0.68030   0.00000  Uiso   1.00
C1687  C     0.45915   0.38836   0.71708   0.00000  Uiso   1.00
C1688  C     0.55398   0.61831   0.90138   0.00000  Uiso   1.00
C1689  C     0.54085   0.61163   0.94959   0.00000  Uiso   1.00
C1690  C     0.56840   0.59495   0.98637   0.00000  Uiso   1.00
C1691  C     0.60978   0.58688   0.97585   0.00000  Uiso   1.00
C1692  C     0.62383   0.59615   0.92877   0.00000  Uiso   1.00
C1693  C     0.59604   0.61161   0.89153   0.00000  Uiso   1.00
C1694  C     0.55398   0.38169   0.90138   0.00000  Uiso   1.00
C1695  C     0.49996   0.50000   0.74039   0.00000  Uiso   1.00
C1696  C     0.59604   0.38837   0.89154   0.00000  Uiso   1.00
C1697  C     0.62383   0.40382   0.92879   0.00000  Uiso   1.00
C1698  C     0.60977   0.41308   0.97587   0.00000  Uiso   1.00
C1699  C     0.56839   0.40502   0.98638   0.00000  Uiso   1.00
C1700  C     0.54084   0.38835   0.94959   0.00000  Uiso   1.00
C1701  C     0.44602   0.61831   0.76529   0.00000  Uiso   1.00
C1702  C     0.45916   0.61165   0.71708   0.00000  Uiso   1.00
C1703  C     0.43161   0.59498   0.68029   0.00000  Uiso   1.00
C1704  C     0.39023   0.58692   0.69080   0.00000  Uiso   1.00
C1705  C     0.37617   0.59618   0.73788   0.00000  Uiso   1.00
C1706  C     0.50004   0.50000   0.92627   0.00000  Uiso   1.00
C1707  C     0.40396   0.61162   0.77512   0.00000  Uiso   1.00
C1708  C     0.50000   0.50000   0.68857   0.00000  Uiso   1.00
C1709  C     0.50000   0.50000   0.97809   0.00000  Uiso   1.00
C1710  C     0.35638   0.49998   0.87820   0.00000  Uiso   1.00
C1711  C     0.64362   0.50002   0.78847   0.00000  Uiso   1.00
C1712  C     0.64659   0.49998   0.87809   0.00000  Uiso   1.00
Cu1713 Cu    0.50000   0.54689   0.83333   0.00000  Uiso   1.00
Cu1714 Cu    0.50000   0.45311   0.83333   0.00000  Uiso   1.00
H1715  H     0.37414   0.49996   0.91294   0.00000  Uiso   1.00
H1716  H     0.50922   0.61959   0.95836   0.00000  Uiso   1.00
H1717  H     0.55789   0.58880   0.68985   0.00000  Uiso   1.00
H1718  H     0.63087   0.57393   0.67114   0.00000  Uiso   1.00
H1719  H     0.65623   0.59129   0.92103   0.00000  Uiso   1.00
H1720  H     0.60739   0.61928   0.85537   0.00000  Uiso   1.00
H1721  H     0.60739   0.38071   0.85538   0.00000  Uiso   1.00
H1722  H     0.65623   0.40867   0.92106   0.00000  Uiso   1.00
H1723  H     0.63087   0.42601   0.67116   0.00000  Uiso   1.00
H1724  H     0.55788   0.41117   0.68986   0.00000  Uiso   1.00
H1725  H     0.50921   0.38040   0.95835   0.00000  Uiso   1.00
H1726  H     0.62586   0.50004   0.75372   0.00000  Uiso   1.00
H1727  H     0.49079   0.61960   0.70831   0.00000  Uiso   1.00
H1728  H     0.44212   0.58883   0.97681   0.00000  Uiso   1.00
H1729  H     0.36913   0.57399   0.99550   0.00000  Uiso   1.00
H1730  H     0.34377   0.59133   0.74561   0.00000  Uiso   1.00
H1731  H     0.39261   0.61929   0.81128   0.00000  Uiso   1.00
H1732  H     0.63104   0.49997   0.91278   0.00000  Uiso   1.00
H1733  H     0.36896   0.50003   0.75389   0.00000  Uiso   1.00
H1734  H     0.39261   0.38072   0.81130   0.00000  Uiso   1.00
H1735  H     0.34377   0.40871   0.74564   0.00000  Uiso   1.00
H1736  H     0.36913   0.42607   0.99553   0.00000  Uiso   1.00
H1737  H     0.44211   0.41120   0.97682   0.00000  Uiso   1.00
H1738  H     0.49078   0.38041   0.70831   0.00000  Uiso   1.00
N1739  N     0.50000   0.61736   0.83333   0.00000  Uiso   1.00
N1740  N     0.50000   0.38264   0.83333   0.00000  Uiso   1.00
O1741  O     0.43988   0.53958   0.83333   0.00000  Uiso   1.00
O1742  O     0.56012   0.46042   0.83334   0.00000  Uiso   1.00
O1743  O     0.56012   0.53958   0.83334   0.00000  Uiso   1.00
O1744  O     0.43988   0.46042   0.83333   0.00000  Uiso   1.00
O1745  O     0.50000   0.53959   0.76280   0.00000  Uiso   1.00
O1746  O     0.50000   0.46041   0.90387   0.00000  Uiso   1.00
O1747  O     0.50000   0.53959   0.90387   0.00000  Uiso   1.00
O1748  O     0.50000   0.46041   0.76280   0.00000  Uiso   1.00
C1749  C     0.75426   0.50000   0.83328   0.00000  Uiso   1.00
C1750  C     0.68674   0.50002   0.78857   0.00000  Uiso   1.00
C1751  C     0.95706   0.50000   0.83330   0.00000  Uiso   1.00
C1752  C     0.70961   0.50000   0.83337   0.00000  Uiso   1.00
C1753  C     0.80727   0.35800   0.80174   0.00000  Uiso   1.00
C1754  C     0.85939   0.64200   0.86493   0.00000  Uiso   1.00
C1755  C     0.85939   0.35800   0.86493   0.00000  Uiso   1.00
C1756  C     0.80727   0.64200   0.80174   0.00000  Uiso   1.00
C1757  C     0.77935   0.38169   0.76529   0.00000  Uiso   1.00
C1758  C     0.73729   0.38839   0.77513   0.00000  Uiso   1.00
C1759  C     0.70950   0.40385   0.73790   0.00000  Uiso   1.00
C1760  C     0.91241   0.50000   0.83339   0.00000  Uiso   1.00
C1761  C     0.72356   0.41312   0.69081   0.00000  Uiso   1.00
C1762  C     0.76494   0.40505   0.68030   0.00000  Uiso   1.00
C1763  C     0.79249   0.38836   0.71708   0.00000  Uiso   1.00
C1764  C     0.88731   0.61831   0.90138   0.00000  Uiso   1.00
C1765  C     0.87418   0.61163   0.94959   0.00000  Uiso   1.00
C1766  C     0.90173   0.59495   0.98637   0.00000  Uiso   1.00
C1767  C     0.94311   0.58688   0.97585   0.00000  Uiso   1.00
C1768  C     0.95716   0.59615   0.92877   0.00000  Uiso   1.00
C1769  C     0.92937   0.61161   0.89153   0.00000  Uiso   1.00
C1770  C     0.88731   0.38169   0.90138   0.00000  Uiso   1.00
C1771  C     0.83330   0.50000   0.74039   0.00000  Uiso   1.00
C1772  C     0.92937   0.38837   0.89154   0.00000  Uiso   1.00
C1773  C     0.95716   0.40382   0.92879   0.00000  Uiso   1.00
C1774  C     0.94311   0.41308   0.97587   0.00000  Uiso   1.00
C1775  C     0.90172   0.40502   0.98638   0.00000  Uiso   1.00
C1776  C     0.87417   0.38835   0.94959   0.00000  Uiso   1.00
C1777  C     0.77935   0.61831   0.76529   0.00000  Uiso   1.00
C1778  C     0.79249   0.61165   0.71708   0.00000  Uiso   1.00
C1779  C     0.76495   0.59498   0.68029   0.00000  Uiso   1.00
C1780  C     0.72356   0.58692   0.69080   0.00000  Uiso   1.00
C1781  C     0.70950   0.59618   0.73788   0.00000  Uiso   1.00
C1782  C     0.83337   0.50000   0.92627   0.00000  Uiso   1.00
C1783  C     0.73729   0.61162   0.77512   0.00000  Uiso   1.00
C1784  C     0.83333   0.50000   0.68857   0.00000  Uiso   1.00
C1785  C     0.83333   0.50000   0.97809   0.00000  Uiso   1.00
C1786  C     0.68971   0.49998   0.87820   0.00000  Uiso   1.00
C1787  C     0.97696   0.50002   0.78847   0.00000  Uiso   1.00
C1788  C     0.97993   0.49998   0.87809   0.00000  Uiso   1.00
Cu1789 Cu    0.83333   0.54689   0.83333   0.00000  Uiso   1.00
Cu1790 Cu    0.83333   0.45311   0.83333   0.00000  Uiso   1.00
H1791  H     0.70747   0.49996   0.91294   0.00000  Uiso   1.00
H1792  H     0.84255   0.61959   0.95836   0.00000  Uiso   1.00
H1793  H     0.89123   0.58880   0.68985   0.00000  Uiso   1.00
H1794  H     0.96421   0.57393   0.67114   0.00000  Uiso   1.00
H1795  H     0.98956   0.59129   0.92103   0.00000  Uiso   1.00
H1796  H     0.94072   0.61928   0.85537   0.00000  Uiso   1.00
H1797  H     0.94072   0.38071   0.85538   0.00000  Uiso   1.00
H1798  H     0.98957   0.40867   0.92106   0.00000  Uiso   1.00
H1799  H     0.96420   0.42601   0.67116   0.00000  Uiso   1.00
H1800  H     0.89122   0.41117   0.68986   0.00000  Uiso   1.00
H1801  H     0.84254   0.38040   0.95835   0.00000  Uiso   1.00
H1802  H     0.95920   0.50004   0.75372   0.00000  Uiso   1.00
H1803  H     0.82412   0.61960   0.70831   0.00000  Uiso   1.00
H1804  H     0.77545   0.58883   0.97681   0.00000  Uiso   1.00
H1805  H     0.70247   0.57399   0.99550   0.00000  Uiso   1.00
H1806  H     0.67710   0.59133   0.74561   0.00000  Uiso   1.00
H1807  H     0.72594   0.61929   0.81128   0.00000  Uiso   1.00
H1808  H     0.96437   0.49997   0.91278   0.00000  Uiso   1.00
H1809  H     0.70230   0.50003   0.75389   0.00000  Uiso   1.00
H1810  H     0.72594   0.38072   0.81130   0.00000  Uiso   1.00
H1811  H     0.67710   0.40871   0.74564   0.00000  Uiso   1.00
H1812  H     0.70246   0.42607   0.99553   0.00000  Uiso   1.00
H1813  H     0.77544   0.41120   0.97682   0.00000  Uiso   1.00
H1814  H     0.82411   0.38041   0.70831   0.00000  Uiso   1.00
N1815  N     0.83333   0.61736   0.83333   0.00000  Uiso   1.00
N1816  N     0.83333   0.38264   0.83333   0.00000  Uiso   1.00
O1817  O     0.77321   0.53958   0.83333   0.00000  Uiso   1.00
O1818  O     0.89345   0.46042   0.83334   0.00000  Uiso   1.00
O1819  O     0.89345   0.53958   0.83334   0.00000  Uiso   1.00
O1820  O     0.77321   0.46042   0.83333   0.00000  Uiso   1.00
O1821  O     0.83333   0.53959   0.76280   0.00000  Uiso   1.00
O1822  O     0.83333   0.46041   0.90387   0.00000  Uiso   1.00
O1823  O     0.83333   0.53959   0.90387   0.00000  Uiso   1.00
O1824  O     0.83333   0.46041   0.76280   0.00000  Uiso   1.00
C1825  C     0.08759   0.83333   0.83328   0.00000  Uiso   1.00
C1826  C     0.02007   0.83335   0.78857   0.00000  Uiso   1.00
C1827  C     0.29039   0.83333   0.83330   0.00000  Uiso   1.00
C1828  C     0.04294   0.83333   0.83337   0.00000  Uiso   1.00
C1829  C     0.14061   0.69133   0.80174   0.00000  Uiso   1.00
C1830  C     0.19273   0.97533   0.86493   0.00000  Uiso   1.00
C1831  C     0.19273   0.69133   0.86493   0.00000  Uiso   1.00
C1832  C     0.14061   0.97534   0.80174   0.00000  Uiso   1.00
C1833  C     0.11268   0.71503   0.76529   0.00000  Uiso   1.00
C1834  C     0.07063   0.72172   0.77513   0.00000  Uiso   1.00
C1835  C     0.04284   0.73718   0.73790   0.00000  Uiso   1.00
C1836  C     0.24574   0.83333   0.83339   0.00000  Uiso   1.00
C1837  C     0.05689   0.74645   0.69081   0.00000  Uiso   1.00
C1838  C     0.09827   0.73838   0.68030   0.00000  Uiso   1.00
C1839  C     0.12582   0.72170   0.71708   0.00000  Uiso   1.00
C1840  C     0.22065   0.95164   0.90138   0.00000  Uiso   1.00
C1841  C     0.20751   0.94497   0.94959   0.00000  Uiso   1.00
C1842  C     0.23506   0.92829   0.98637   0.00000  Uiso   1.00
C1843  C     0.27644   0.92021   0.97585   0.00000  Uiso   1.00
C1844  C     0.29050   0.92949   0.92877   0.00000  Uiso   1.00
C1845  C     0.26271   0.94494   0.89153   0.00000  Uiso   1.00
C1846  C     0.22064   0.71502   0.90138   0.00000  Uiso   1.00
C1847  C     0.16663   0.83333   0.74039   0.00000  Uiso   1.00
C1848  C     0.26271   0.72171   0.89154   0.00000  Uiso   1.00
C1849  C     0.29050   0.73715   0.92879   0.00000  Uiso   1.00
C1850  C     0.27644   0.74642   0.97587   0.00000  Uiso   1.00
C1851  C     0.23505   0.73835   0.98638   0.00000  Uiso   1.00
C1852  C     0.20751   0.72169   0.94959   0.00000  Uiso   1.00
C1853  C     0.11269   0.95165   0.76529   0.00000  Uiso   1.00
C1854  C     0.12583   0.94498   0.71708   0.00000  Uiso   1.00
C1855  C     0.09828   0.92831   0.68029   0.00000  Uiso   1.00
C1856  C     0.05689   0.92025   0.69080   0.00000  Uiso   1.00
C1857  C     0.04284   0.92952   0.73788   0.00000  Uiso   1.00
C1858  C     0.16670   0.83333   0.92627   0.00000  Uiso   1.00
C1859  C     0.07063   0.94496   0.77512   0.00000  Uiso   1.00
C1860  C     0.16667   0.83333   0.68857   0.00000  Uiso   1.00
C1861  C     0.16667   0.83333   0.97809   0.00000  Uiso   1.00
C1862  C     0.02304   0.83331   0.87820   0.00000  Uiso   1.00
C1863  C     0.31029   0.83335   0.78847   0.00000  Uiso   1.00
C1864  C     0.31326   0.83331   0.87809   0.00000  Uiso   1.00
Cu1865 Cu    0.16667   0.88022   0.83333   0.00000  Uiso   1.00
Cu1866 Cu    0.16667   0.78645   0.83333   0.00000  Uiso   1.00
H1867  H     0.04080   0.83330   0.91294   0.00000  Uiso   1.00
H1868  H     0.17589   0.95293   0.95836   0.00000  Uiso   1.00
H1869  H     0.22456   0.92214   0.68985   0.00000  Uiso   1.00
H1870  H     0.29754   0.90727   0.67114   0.00000  Uiso   1.00
H1871  H     0.32290   0.92462   0.92103   0.00000  Uiso   1.00
H1872  H     0.27406   0.95261   0.85537   0.00000  Uiso   1.00
H1873  H     0.27406   0.71404   0.85538   0.00000  Uiso   1.00
H1874  H     0.32290   0.74200   0.92106   0.00000  Uiso   1.00
H1875  H     0.29753   0.75934   0.67116   0.00000  Uiso   1.00
H1876  H     0.22455   0.74450   0.68986   0.00000  Uiso   1.00
H1877  H     0.17588   0.71374   0.95835   0.00000  Uiso   1.00
H1878  H     0.29253   0.83337   0.75372   0.00000  Uiso   1.00
H1879  H     0.15746   0.95293   0.70831   0.00000  Uiso   1.00
H1880  H     0.10878   0.92217   0.97681   0.00000  Uiso   1.00
H1881  H     0.03580   0.90732   0.99550   0.00000  Uiso   1.00
H1882  H     0.01043   0.92466   0.74561   0.00000  Uiso   1.00
H1883  H     0.05928   0.95262   0.81128   0.00000  Uiso   1.00
H1884  H     0.29770   0.83330   0.91278   0.00000  Uiso   1.00
H1885  H     0.03563   0.83337   0.75389   0.00000  Uiso   1.00
H1886  H     0.05928   0.71405   0.81130   0.00000  Uiso   1.00
H1887  H     0.01044   0.74204   0.74564   0.00000  Uiso   1.00
H1888  H     0.03579   0.75940   0.99553   0.00000  Uiso   1.00
H1889  H     0.10877   0.74453   0.97682   0.00000  Uiso   1.00
H1890  H     0.15745   0.71374   0.70831   0.00000  Uiso   1.00
N1891  N     0.16667   0.95069   0.83333   0.00000  Uiso   1.00
N1892  N     0.16667   0.71598   0.83333   0.00000  Uiso   1.00
O1893  O     0.10655   0.87291   0.83333   0.00000  Uiso   1.00
O1894  O     0.22679   0.79375   0.83334   0.00000  Uiso   1.00
O1895  O     0.22679   0.87291   0.83334   0.00000  Uiso   1.00
O1896  O     0.10655   0.79375   0.83333   0.00000  Uiso   1.00
O1897  O     0.16667   0.87292   0.76280   0.00000  Uiso   1.00
O1898  O     0.16667   0.79375   0.90387   0.00000  Uiso   1.00
O1899  O     0.16667   0.87292   0.90387   0.00000  Uiso   1.00
O1900  O     0.16667   0.79375   0.76280   0.00000  Uiso   1.00
C1901  C     0.42092   0.83333   0.83328   0.00000  Uiso   1.00
C1902  C     0.35340   0.83335   0.78857   0.00000  Uiso   1.00
C1903  C     0.62372   0.83333   0.83330   0.00000  Uiso   1.00
C1904  C     0.37627   0.83333   0.83337   0.00000  Uiso   1.00
C1905  C     0.47394   0.69133   0.80174   0.00000  Uiso   1.00
C1906  C     0.52606   0.97533   0.86493   0.00000  Uiso   1.00
C1907  C     0.52606   0.69133   0.86493   0.00000  Uiso   1.00
C1908  C     0.47394   0.97534   0.80174   0.00000  Uiso   1.00
C1909  C     0.44602   0.71503   0.76529   0.00000  Uiso   1.00
C1910  C     0.40396   0.72172   0.77513   0.00000  Uiso   1.00
C1911  C     0.37617   0.73718   0.73790   0.00000  Uiso   1.00
C1912  C     0.57908   0.83333   0.83339   0.00000  Uiso   1.00
C1913  C     0.39022   0.74645   0.69081   0.00000  Uiso   1.00
C1914  C     0.43160   0.73838   0.68030   0.00000  Uiso   1.00
C1915  C     0.45915   0.72170   0.71708   0.00000  Uiso   1.00
C1916  C     0.55398   0.95164   0.90138   0.00000  Uiso   1.00
C1917  C     0.54085   0.94497   0.94959   0.00000  Uiso   1.00
C1918  C     0.56840   0.92829   0.98637   0.00000  Uiso   1.00
C1919  C     0.60978   0.92021   0.97585   0.00000  Uiso   1.00
C1920  C     0.62383   0.92949   0.92877   0.00000  Uiso   1.00
C1921  C     0.59604   0.94494   0.89153   0.00000  Uiso   1.00
C1922  C     0.55398   0.71502   0.90138   0.00000  Uiso   1.00
C1923  C     0.49996   0.83333   0.74039   0.00000  Uiso   1.00
C1924  C     0.59604   0.72171   0.89154   0.00000  Uiso   1.00
C1925  C     0.62383   0.73715   0.92879   0.00000  Uiso   1.00
C1926  C     0.60977   0.74642   0.97587   0.00000  Uiso   1.00
C1927  C     0.56839   0.73835   0.98638   0.00000  Uiso   1.00
C1928  C     0.54084   0.72169   0.94959   0.00000  Uiso   1.00
C1929  C     0.44602   0.95165   0.76529   0.00000  Uiso   1.00
C1930  C     0.45916   0.94498   0.71708   0.00000  Uiso   1.00
C1931  C     0.43161   0.92831   0.68029   0.00000  Uiso   1.00
C1932  C     0.39023   0.92025   0.69080   0.00000  Uiso   1.00
C1933  C     0.37617   0.92952   0.73788   0.00000  Uiso   1.00
C1934  C     0.50004   0.83333   0.92627   0.00000  Uiso   1.00
C1935  C     0.40396   0.94496   0.77512   0.00000  Uiso   1.00
C1936  C     0.50000   0.83333   0.68857   0.00000  Uiso   1.00
C1937  C     0.50000   0.83333   0.97809   0.00000  Uiso   1.00
C1938  C     0.35638   0.83331   0.87820   0.00000  Uiso   1.00
C1939  C     0.64362   0.83335   0.78847   0.00000  Uiso   1.00
C1940  C     0.64659   0.83331   0.87809   0.00000  Uiso   1.00
Cu1941 Cu    0.50000   0.88022   0.83333   0.00000  Uiso   1.00
Cu1942 Cu    0.50000   0.78645   0.83333   0.00000  Uiso   1.00
H1943  H     0.37414   0.83330   0.91294   0.00000  Uiso   1.00
H1944  H     0.50922   0.95293   0.95836   0.00000  Uiso   1.00
H1945  H     0.55789   0.92214   0.68985   0.00000  Uiso   1.00
H1946  H     0.63087   0.90727   0.67114   0.00000  Uiso   1.00
H1947  H     0.65623   0.92462   0.92103   0.00000  Uiso   1.00
H1948  H     0.60739   0.95261   0.85537   0.00000  Uiso   1.00
H1949  H     0.60739   0.71404   0.85538   0.00000  Uiso   1.00
H1950  H     0.65623   0.74200   0.92106   0.00000  Uiso   1.00
H1951  H     0.63087   0.75934   0.67116   0.00000  Uiso   1.00
H1952  H     0.55788   0.74450   0.68986   0.00000  Uiso   1.00
H1953  H     0.50921   0.71374   0.95835   0.00000  Uiso   1.00
H1954  H     0.62586   0.83337   0.75372   0.00000  Uiso   1.00
H1955  H     0.49079   0.95293   0.70831   0.00000  Uiso   1.00
H1956  H     0.44212   0.92217   0.97681   0.00000  Uiso   1.00
H1957  H     0.36913   0.90732   0.99550   0.00000  Uiso   1.00
H1958  H     0.34377   0.92466   0.74561   0.00000  Uiso   1.00
H1959  H     0.39261   0.95262   0.81128   0.00000  Uiso   1.00
H1960  H     0.63104   0.83330   0.91278   0.00000  Uiso   1.00
H1961  H     0.36896   0.83337   0.75389   0.00000  Uiso   1.00
H1962  H     0.39261   0.71405   0.81130   0.00000  Uiso   1.00
H1963  H     0.34377   0.74204   0.74564   0.00000  Uiso   1.00
H1964  H     0.36913   0.75940   0.99553   0.00000  Uiso   1.00
H1965  H     0.44211   0.74453   0.97682   0.00000  Uiso   1.00
H1966  H     0.49078   0.71374   0.70831   0.00000  Uiso   1.00
N1967  N     0.50000   0.95069   0.83333   0.00000  Uiso   1.00
N1968  N     0.50000   0.71598   0.83333   0.00000  Uiso   1.00
O1969  O     0.43988   0.87291   0.83333   0.00000  Uiso   1.00
O1970  O     0.56012   0.79375   0.83334   0.00000  Uiso   1.00
O1971  O     0.56012   0.87291   0.83334   0.00000  Uiso   1.00
O1972  O     0.43988   0.79375   0.83333   0.00000  Uiso   1.00
O1973  O     0.50000   0.87292   0.76280   0.00000  Uiso   1.00
O1974  O     0.50000   0.79375   0.90387   0.00000  Uiso   1.00
O1975  O     0.50000   0.87292   0.90387   0.00000  Uiso   1.00
O1976  O     0.50000   0.79375   0.76280   0.00000  Uiso   1.00
C1977  C     0.75426   0.83333   0.83328   0.00000  Uiso   1.00
C1978  C     0.68674   0.83335   0.78857   0.00000  Uiso   1.00
C1979  C     0.95706   0.83333   0.83330   0.00000  Uiso   1.00
C1980  C     0.70961   0.83333   0.83337   0.00000  Uiso   1.00
C1981  C     0.80727   0.69133   0.80174   0.00000  Uiso   1.00
C1982  C     0.85939   0.97533   0.86493   0.00000  Uiso   1.00
C1983  C     0.85939   0.69133   0.86493   0.00000  Uiso   1.00
C1984  C     0.80727   0.97534   0.80174   0.00000  Uiso   1.00
C1985  C     0.77935   0.71503   0.76529   0.00000  Uiso   1.00
C1986  C     0.73729   0.72172   0.77513   0.00000  Uiso   1.00
C1987  C     0.70950   0.73718   0.73790   0.00000  Uiso   1.00
C1988  C     0.91241   0.83333   0.83339   0.00000  Uiso   1.00
C1989  C     0.72356   0.74645   0.69081   0.00000  Uiso   1.00
C1990  C     0.76494   0.73838   0.68030   0.00000  Uiso   1.00
C1991  C     0.79249   0.72170   0.71708   0.00000  Uiso   1.00
C1992  C     0.88731   0.95164   0.90138   0.00000  Uiso   1.00
C1993  C     0.87418   0.94497   0.94959   0.00000  Uiso   1.00
C1994  C     0.90173   0.92829   0.98637   0.00000  Uiso   1.00
C1995  C     0.94311   0.92021   0.97585   0.00000  Uiso   1.00
C1996  C     0.95716   0.92949   0.92877   0.00000  Uiso   1.00
C1997  C     0.92937   0.94494   0.89153   0.00000  Uiso   1.00
C1998  C     0.88731   0.71502   0.90138   0.00000  Uiso   1.00
C1999  C     0.83330   0.83333   0.74039   0.00000  Uiso   1.00
C2000  C     0.92937   0.72171   0.89154   0.00000  Uiso   1.00
C2001  C     0.95716   0.73715   0.92879   0.00000  Uiso   1.00
C2002  C     0.94311   0.74642   0.97587   0.00000  Uiso   1.00
C2003  C     0.90172   0.73835   0.98638   0.00000  Uiso   1.00
C2004  C     0.87417   0.72169   0.94959   0.00000  Uiso   1.00
C2005  C     0.77935   0.95165   0.76529   0.00000  Uiso   1.00
C2006  C     0.79249   0.94498   0.71708   0.00000  Uiso   1.00
C2007  C     0.76495   0.92831   0.68029   0.00000  Uiso   1.00
C2008  C     0.72356   0.92025   0.69080   0.00000  Uiso   1.00
C2009  C     0.70950   0.92952   0.73788   0.00000  Uiso   1.00
C2010  C     0.83337   0.83333   0.92627   0.00000  Uiso   1.00
C2011  C     0.73729   0.94496   0.77512   0.00000  Uiso   1.00
C2012  C     0.83333   0.83333   0.68857   0.00000  Uiso   1.00
C2013  C     0.83333   0.83333   0.97809   0.00000  Uiso   1.00
C2014  C     0.68971   0.83331   0.87820   0.00000  Uiso   1.00
C2015  C     0.97696   0.83335   0.78847   0.00000  Uiso   1.00
C2016  C     0.97993   0.83331   0.87809   0.00000  Uiso   1.00
Cu2017 Cu    0.83333   0.88022   0.83333   0.00000  Uiso   1.00
Cu2018 Cu    0.83333   0.78645   0.83333   0.00000  Uiso   1.00
H2019  H     0.70747   0.83330   0.91294   0.00000  Uiso   1.00
H2020  H     0.84255   0.95293   0.95836   0.00000  Uiso   1.00
H2021  H     0.89123   0.92214   0.68985   0.00000  Uiso   1.00
H2022  H     0.96421   0.90727   0.67114   0.00000  Uiso   1.00
H2023  H     0.98956   0.92462   0.92103   0.00000  Uiso   1.00
H2024  H     0.94072   0.95261   0.85537   0.00000  Uiso   1.00
H2025  H     0.94072   0.71404   0.85538   0.00000  Uiso   1.00
H2026  H     0.98957   0.74200   0.92106   0.00000  Uiso   1.00
H2027  H     0.96420   0.75934   0.67116   0.00000  Uiso   1.00
H2028  H     0.89122   0.74450   0.68986   0.00000  Uiso   1.00
H2029  H     0.84254   0.71374   0.95835   0.00000  Uiso   1.00
H2030  H     0.95920   0.83337   0.75372   0.00000  Uiso   1.00
H2031  H     0.82412   0.95293   0.70831   0.00000  Uiso   1.00
H2032  H     0.77545   0.92217   0.97681   0.00000  Uiso   1.00
H2033  H     0.70247   0.90732   0.99550   0.00000  Uiso   1.00
H2034  H     0.67710   0.92466   0.74561   0.00000  Uiso   1.00
H2035  H     0.72594   0.95262   0.81128   0.00000  Uiso   1.00
H2036  H     0.96437   0.83330   0.91278   0.00000  Uiso   1.00
H2037  H     0.70230   0.83337   0.75389   0.00000  Uiso   1.00
H2038  H     0.72594   0.71405   0.81130   0.00000  Uiso   1.00
H2039  H     0.67710   0.74204   0.74564   0.00000  Uiso   1.00
H2040  H     0.70246   0.75940   0.99553   0.00000  Uiso   1.00
H2041  H     0.77544   0.74453   0.97682   0.00000  Uiso   1.00
H2042  H     0.82411   0.71374   0.70831   0.00000  Uiso   1.00
N2043  N     0.83333   0.95069   0.83333   0.00000  Uiso   1.00
N2044  N     0.83333   0.71598   0.83333   0.00000  Uiso   1.00
O2045  O     0.77321   0.87291   0.83333   0.00000  Uiso   1.00
O2046  O     0.89345   0.79375   0.83334   0.00000  Uiso   1.00
O2047  O     0.89345   0.87291   0.83334   0.00000  Uiso   1.00
O2048  O     0.77321   0.79375   0.83333   0.00000  Uiso   1.00
O2049  O     0.83333   0.87292   0.76280   0.00000  Uiso   1.00
O2050  O     0.83333   0.79375   0.90387   0.00000  Uiso   1.00
O2051  O     0.83333   0.87292   0.90387   0.00000  Uiso   1.00
O2052  O     0.83333   0.79375   0.76280   0.00000  Uiso   1.00
loop_
_geom_bond_atom_site_label_1
_geom_bond_atom_site_label_2
_geom_bond_distance
_geom_bond_site_symmetry_2
_ccdc_geom_bond_type
C1     O72     1.303   .     A
C1     O69     1.303   .     A
C1     C4      1.438   .     S
C2     H61     1.083   .     S
C2     C4      1.397   .     A
C2     C191    1.389   1_455 S
C3     C12     1.438   .     S
C3     C39     1.396   .     A
C3     C40     1.397   .     A
C4     C38     1.396   .     A
C5     N68     1.378   .     A
C5     C9      1.481   .     S
C5     C464    1.434   1_545 S
C6     N67     1.378   .     A
C6     C16     1.481   .     S
C6     C235    1.434   .     S
C7     N68     1.378   .     A
C7     C22     1.481   .     S
C7     C462    1.434   1_545 S
C8     C29     1.481   .     S
C8     N67     1.378   .     A
C8     C233    1.434   .     S
C9     C10     1.405   .     A
C9     C15     1.404   .     A
C10    H62     1.083   .     S
C10    C11     1.398   .     A
C11    H63     1.082   .     S
C11    C13     1.398   .     A
C12    O71     1.303   .     A
C12    O70     1.303   .     A
C13    C14     1.394   .     A
C13    H1432   1.080   1_554 S
C14    C15     1.397   .     A
C14    H1433   1.082   1_554 S
C15    H66     1.080   .     S
C16    C21     1.405   .     A
C16    C17     1.404   .     A
C17    C18     1.397   .     A
C17    H44     1.080   .     S
C18    C19     1.394   .     A
C18    H729    1.082   .     S
C19    C20     1.398   .     A
C19    H730    1.080   .     S
C20    H47     1.082   .     S
C20    C21     1.398   .     A
C21    H48     1.083   .     S
C22    C28     1.404   .     A
C22    C24     1.405   .     A
C23    O76     1.301   .     A
C23    O73     1.302   .     A
C23    C36     1.406   .     S
C24    C25     1.398   .     A
C24    H49     1.083   .     S
C25    H50     1.082   .     S
C25    C26     1.398   .     A
C26    C27     1.394   .     A
C26    H735    1.080   .     S
C27    C28     1.397   .     A
C27    H736    1.082   .     S
C28    H53     1.080   .     S
C29    C30     1.404   .     A
C29    C35     1.405   .     A
C30    C31     1.397   .     A
C30    H55     1.080   .     S
C31    C32     1.394   .     A
C31    H1424   1.082   1_554 S
C32    C33     1.398   .     A
C32    H1425   1.080   1_554 S
C33    H58     1.082   .     S
C33    C35     1.398   .     A
C34    C37     1.406   .     S
C34    O75     1.301   .     A
C34    O74     1.302   .     A
C35    H59     1.083   .     S
C36    C1405   1.189   1_554 S
C37    C720    1.189   .     S
C38    H43     1.084   .     S
C38    C192    1.389   1_455 S
C39    H54     1.084   .     S
C39    C78     1.389   .     S
C40    H60     1.083   .     S
C40    C114    1.389   .     S
Cu41   Cu42    2.726   .     S
Cu41   N67     2.049   .     S
Cu41   O71     1.948   .     S
Cu41   O73     1.926   .     S
Cu41   O75     1.926   .     S
Cu41   O69     1.948   .     S
Cu42   O70     1.948   .     S
Cu42   N68     2.049   .     S
Cu42   O74     1.926   .     S
Cu42   O72     1.948   .     S
Cu42   O76     1.926   .     S
H45    C1386   1.082   1_554 S
H46    C1387   1.080   1_554 S
H51    C1394   1.080   1_554 S
H52    C1395   1.082   1_554 S
H56    C715    1.082   .     S
H57    C716    1.080   .     S
H64    C697    1.080   .     S
H65    C698    1.082   .     S
C77    O148    1.303   .     A
C77    O145    1.303   .     A
C77    C80     1.438   .     S
C78    H137    1.083   .     S
C78    C80     1.397   .     A
C79    C88     1.438   .     S
C79    C115    1.396   .     A
C79    C116    1.397   .     A
C80    C114    1.396   .     A
C81    N144    1.378   .     A
C81    C85     1.481   .     S
C81    C540    1.434   1_545 S
C82    N143    1.378   .     A
C82    C92     1.481   .     S
C82    C311    1.434   .     S
C83    N144    1.378   .     A
C83    C98     1.481   .     S
C83    C538    1.434   1_545 S
C84    C105    1.481   .     S
C84    N143    1.378   .     A
C84    C309    1.434   .     S
C85    C86     1.405   .     A
C85    C91     1.404   .     A
C86    H138    1.083   .     S
C86    C87     1.398   .     A
C87    H139    1.082   .     S
C87    C89     1.398   .     A
C88    O147    1.303   .     A
C88    O146    1.303   .     A
C89    C90     1.394   .     A
C89    H1508   1.080   1_554 S
C90    C91     1.397   .     A
C90    H1509   1.082   1_554 S
C91    H142    1.080   .     S
C92    C97     1.405   .     A
C92    C93     1.404   .     A
C93    C94     1.397   .     A
C93    H120    1.080   .     S
C94    C95     1.394   .     A
C94    H805    1.082   .     S
C95    C96     1.398   .     A
C95    H806    1.080   .     S
C96    H123    1.082   .     S
C96    C97     1.398   .     A
C97    H124    1.083   .     S
C98    C104    1.404   .     A
C98    C100    1.405   .     A
C99    O152    1.301   .     A
C99    O149    1.302   .     A
C99    C112    1.406   .     S
C100   C101    1.398   .     A
C100   H125    1.083   .     S
C101   H126    1.082   .     S
C101   C102    1.398   .     A
C102   C103    1.394   .     A
C102   H811    1.080   .     S
C103   C104    1.397   .     A
C103   H812    1.082   .     S
C104   H129    1.080   .     S
C105   C106    1.404   .     A
C105   C111    1.405   .     A
C106   C107    1.397   .     A
C106   H131    1.080   .     S
C107   C108    1.394   .     A
C107   H1500   1.082   1_554 S
C108   C109    1.398   .     A
C108   H1501   1.080   1_554 S
C109   H134    1.082   .     S
C109   C111    1.398   .     A
C110   C113    1.406   .     S
C110   O151    1.301   .     A
C110   O150    1.302   .     A
C111   H135    1.083   .     S
C112   C1481   1.189   1_554 S
C113   C796    1.189   .     S
C114   H119    1.084   .     S
C115   H130    1.084   .     S
C115   C154    1.389   .     S
C116   H136    1.083   .     S
C116   C190    1.389   .     S
Cu117  Cu118   2.726   .     S
Cu117  N143    2.049   .     S
Cu117  O147    1.948   .     S
Cu117  O149    1.926   .     S
Cu117  O151    1.926   .     S
Cu117  O145    1.948   .     S
Cu118  O146    1.948   .     S
Cu118  N144    2.049   .     S
Cu118  O150    1.926   .     S
Cu118  O148    1.948   .     S
Cu118  O152    1.926   .     S
H121   C1462   1.082   1_554 S
H122   C1463   1.080   1_554 S
H127   C1470   1.080   1_554 S
H128   C1471   1.082   1_554 S
H132   C791    1.082   .     S
H133   C792    1.080   .     S
H140   C773    1.080   .     S
H141   C774    1.082   .     S
C153   O224    1.303   .     A
C153   O221    1.303   .     A
C153   C156    1.438   .     S
C154   H213    1.083   .     S
C154   C156    1.397   .     A
C155   C164    1.438   .     S
C155   C191    1.396   .     A
C155   C192    1.397   .     A
C156   C190    1.396   .     A
C157   N220    1.378   .     A
C157   C161    1.481   .     S
C157   C616    1.434   1_545 S
C158   N219    1.378   .     A
C158   C168    1.481   .     S
C158   C387    1.434   .     S
C159   N220    1.378   .     A
C159   C174    1.481   .     S
C159   C614    1.434   1_545 S
C160   C181    1.481   .     S
C160   N219    1.378   .     A
C160   C385    1.434   .     S
C161   C162    1.405   .     A
C161   C167    1.404   .     A
C162   H214    1.083   .     S
C162   C163    1.398   .     A
C163   H215    1.082   .     S
C163   C165    1.398   .     A
C164   O223    1.303   .     A
C164   O222    1.303   .     A
C165   C166    1.394   .     A
C165   H1584   1.080   1_554 S
C166   C167    1.397   .     A
C166   H1585   1.082   1_554 S
C167   H218    1.080   .     S
C168   C173    1.405   .     A
C168   C169    1.404   .     A
C169   C170    1.397   .     A
C169   H196    1.080   .     S
C170   C171    1.394   .     A
C170   H881    1.082   .     S
C171   C172    1.398   .     A
C171   H882    1.080   .     S
C172   H199    1.082   .     S
C172   C173    1.398   .     A
C173   H200    1.083   .     S
C174   C180    1.404   .     A
C174   C176    1.405   .     A
C175   O228    1.301   .     A
C175   O225    1.302   .     A
C175   C188    1.406   .     S
C176   C177    1.398   .     A
C176   H201    1.083   .     S
C177   H202    1.082   .     S
C177   C178    1.398   .     A
C178   C179    1.394   .     A
C178   H887    1.080   .     S
C179   C180    1.397   .     A
C179   H888    1.082   .     S
C180   H205    1.080   .     S
C181   C182    1.404   .     A
C181   C187    1.405   .     A
C182   C183    1.397   .     A
C182   H207    1.080   .     S
C183   C184    1.394   .     A
C183   H1576   1.082   1_554 S
C184   C185    1.398   .     A
C184   H1577   1.080   1_554 S
C185   H210    1.082   .     S
C185   C187    1.398   .     A
C186   C189    1.406   .     S
C186   O227    1.301   .     A
C186   O226    1.302   .     A
C187   H211    1.083   .     S
C188   C1557   1.189   1_554 S
C189   C872    1.189   .     S
C190   H195    1.084   .     S
C191   H206    1.084   .     S
C191   C2      1.389   1_655 S
C192   H212    1.083   .     S
C192   C38     1.389   1_655 S
Cu193  Cu194   2.726   .     S
Cu193  N219    2.049   .     S
Cu193  O223    1.948   .     S
Cu193  O225    1.926   .     S
Cu193  O227    1.926   .     S
Cu193  O221    1.948   .     S
Cu194  O222    1.948   .     S
Cu194  N220    2.049   .     S
Cu194  O226    1.926   .     S
Cu194  O224    1.948   .     S
Cu194  O228    1.926   .     S
H197   C1538   1.082   1_554 S
H198   C1539   1.080   1_554 S
H203   C1546   1.080   1_554 S
H204   C1547   1.082   1_554 S
H208   C867    1.082   .     S
H209   C868    1.080   .     S
H216   C849    1.080   .     S
H217   C850    1.082   .     S
C229   O300    1.303   .     A
C229   O297    1.303   .     A
C229   C232    1.438   .     S
C230   H289    1.083   .     S
C230   C232    1.397   .     A
C230   C419    1.389   1_455 S
C231   C240    1.438   .     S
C231   C267    1.396   .     A
C231   C268    1.397   .     A
C232   C266    1.396   .     A
C233   N296    1.378   .     A
C233   C237    1.481   .     S
C234   N295    1.378   .     A
C234   C244    1.481   .     S
C234   C463    1.434   .     S
C235   N296    1.378   .     A
C235   C250    1.481   .     S
C236   C257    1.481   .     S
C236   N295    1.378   .     A
C236   C461    1.434   .     S
C237   C238    1.405   .     A
C237   C243    1.404   .     A
C238   H290    1.083   .     S
C238   C239    1.398   .     A
C239   H291    1.082   .     S
C239   C241    1.398   .     A
C240   O299    1.303   .     A
C240   O298    1.303   .     A
C241   C242    1.394   .     A
C241   H1660   1.080   1_554 S
C242   C243    1.397   .     A
C242   H1661   1.082   1_554 S
C243   H294    1.080   .     S
C244   C249    1.405   .     A
C244   C245    1.404   .     A
C245   C246    1.397   .     A
C245   H272    1.080   .     S
C246   C247    1.394   .     A
C246   H957    1.082   .     S
C247   C248    1.398   .     A
C247   H958    1.080   .     S
C248   H275    1.082   .     S
C248   C249    1.398   .     A
C249   H276    1.083   .     S
C250   C256    1.404   .     A
C250   C252    1.405   .     A
C251   O304    1.301   .     A
C251   O301    1.302   .     A
C251   C264    1.406   .     S
C252   C253    1.398   .     A
C252   H277    1.083   .     S
C253   H278    1.082   .     S
C253   C254    1.398   .     A
C254   C255    1.394   .     A
C254   H963    1.080   .     S
C255   C256    1.397   .     A
C255   H964    1.082   .     S
C256   H281    1.080   .     S
C257   C258    1.404   .     A
C257   C263    1.405   .     A
C258   C259    1.397   .     A
C258   H283    1.080   .     S
C259   C260    1.394   .     A
C259   H1652   1.082   1_554 S
C260   C261    1.398   .     A
C260   H1653   1.080   1_554 S
C261   H286    1.082   .     S
C261   C263    1.398   .     A
C262   C265    1.406   .     S
C262   O303    1.301   .     A
C262   O302    1.302   .     A
C263   H287    1.083   .     S
C264   C1633   1.189   1_554 S
C265   C948    1.189   .     S
C266   H271    1.084   .     S
C266   C420    1.389   1_455 S
C267   H282    1.084   .     S
C267   C306    1.389   .     S
C268   H288    1.083   .     S
C268   C342    1.389   .     S
Cu269  Cu270   2.726   .     S
Cu269  N295    2.049   .     S
Cu269  O299    1.948   .     S
Cu269  O301    1.926   .     S
Cu269  O303    1.926   .     S
Cu269  O297    1.948   .     S
Cu270  O298    1.948   .     S
Cu270  N296    2.049   .     S
Cu270  O302    1.926   .     S
Cu270  O300    1.948   .     S
Cu270  O304    1.926   .     S
H273   C1614   1.082   1_554 S
H274   C1615   1.080   1_554 S
H279   C1622   1.080   1_554 S
H280   C1623   1.082   1_554 S
H284   C943    1.082   .     S
H285   C944    1.080   .     S
H292   C925    1.080   .     S
H293   C926    1.082   .     S
C305   O376    1.303   .     A
C305   O373    1.303   .     A
C305   C308    1.438   .     S
C306   H365    1.083   .     S
C306   C308    1.397   .     A
C307   C316    1.438   .     S
C307   C343    1.396   .     A
C307   C344    1.397   .     A
C308   C342    1.396   .     A
C309   N372    1.378   .     A
C309   C313    1.481   .     S
C310   N371    1.378   .     A
C310   C320    1.481   .     S
C310   C539    1.434   .     S
C311   N372    1.378   .     A
C311   C326    1.481   .     S
C312   C333    1.481   .     S
C312   N371    1.378   .     A
C312   C537    1.434   .     S
C313   C314    1.405   .     A
C313   C319    1.404   .     A
C314   H366    1.083   .     S
C314   C315    1.398   .     A
C315   H367    1.082   .     S
C315   C317    1.398   .     A
C316   O375    1.303   .     A
C316   O374    1.303   .     A
C317   C318    1.394   .     A
C317   H1736   1.080   1_554 S
C318   C319    1.397   .     A
C318   H1737   1.082   1_554 S
C319   H370    1.080   .     S
C320   C325    1.405   .     A
C320   C321    1.404   .     A
C321   C322    1.397   .     A
C321   H348    1.080   .     S
C322   C323    1.394   .     A
C322   H1033   1.082   .     S
C323   C324    1.398   .     A
C323   H1034   1.080   .     S
C324   H351    1.082   .     S
C324   C325    1.398   .     A
C325   H352    1.083   .     S
C326   C332    1.404   .     A
C326   C328    1.405   .     A
C327   O380    1.301   .     A
C327   O377    1.302   .     A
C327   C340    1.406   .     S
C328   C329    1.398   .     A
C328   H353    1.083   .     S
C329   H354    1.082   .     S
C329   C330    1.398   .     A
C330   C331    1.394   .     A
C330   H1039   1.080   .     S
C331   C332    1.397   .     A
C331   H1040   1.082   .     S
C332   H357    1.080   .     S
C333   C334    1.404   .     A
C333   C339    1.405   .     A
C334   C335    1.397   .     A
C334   H359    1.080   .     S
C335   C336    1.394   .     A
C335   H1728   1.082   1_554 S
C336   C337    1.398   .     A
C336   H1729   1.080   1_554 S
C337   H362    1.082   .     S
C337   C339    1.398   .     A
C338   C341    1.406   .     S
C338   O379    1.301   .     A
C338   O378    1.302   .     A
C339   H363    1.083   .     S
C340   C1709   1.189   1_554 S
C341   C1024   1.189   .     S
C342   H347    1.084   .     S
C343   H358    1.084   .     S
C343   C382    1.389   .     S
C344   H364    1.083   .     S
C344   C418    1.389   .     S
Cu345  Cu346   2.726   .     S
Cu345  N371    2.049   .     S
Cu345  O375    1.948   .     S
Cu345  O377    1.926   .     S
Cu345  O379    1.926   .     S
Cu345  O373    1.948   .     S
Cu346  O374    1.948   .     S
Cu346  N372    2.049   .     S
Cu346  O378    1.926   .     S
Cu346  O376    1.948   .     S
Cu346  O380    1.926   .     S
H349   C1690   1.082   1_554 S
H350   C1691   1.080   1_554 S
H355   C1698   1.080   1_554 S
H356   C1699   1.082   1_554 S
H360   C1019   1.082   .     S
H361   C1020   1.080   .     S
H368   C1001   1.080   .     S
H369   C1002   1.082   .     S
C381   O452    1.303   .     A
C381   O449    1.303   .     A
C381   C384    1.438   .     S
C382   H441    1.083   .     S
C382   C384    1.397   .     A
C383   C392    1.438   .     S
C383   C419    1.396   .     A
C383   C420    1.397   .     A
C384   C418    1.396   .     A
C385   N448    1.378   .     A
C385   C389    1.481   .     S
C386   N447    1.378   .     A
C386   C396    1.481   .     S
C386   C615    1.434   .     S
C387   N448    1.378   .     A
C387   C402    1.481   .     S
C388   C409    1.481   .     S
C388   N447    1.378   .     A
C388   C613    1.434   .     S
C389   C390    1.405   .     A
C389   C395    1.404   .     A
C390   H442    1.083   .     S
C390   C391    1.398   .     A
C391   H443    1.082   .     S
C391   C393    1.398   .     A
C392   O451    1.303   .     A
C392   O450    1.303   .     A
C393   C394    1.394   .     A
C393   H1812   1.080   1_554 S
C394   C395    1.397   .     A
C394   H1813   1.082   1_554 S
C395   H446    1.080   .     S
C396   C401    1.405   .     A
C396   C397    1.404   .     A
C397   C398    1.397   .     A
C397   H424    1.080   .     S
C398   C399    1.394   .     A
C398   H1109   1.082   .     S
C399   C400    1.398   .     A
C399   H1110   1.080   .     S
C400   H427    1.082   .     S
C400   C401    1.398   .     A
C401   H428    1.083   .     S
C402   C408    1.404   .     A
C402   C404    1.405   .     A
C403   O456    1.301   .     A
C403   O453    1.302   .     A
C403   C416    1.406   .     S
C404   C405    1.398   .     A
C404   H429    1.083   .     S
C405   H430    1.082   .     S
C405   C406    1.398   .     A
C406   C407    1.394   .     A
C406   H1115   1.080   .     S
C407   C408    1.397   .     A
C407   H1116   1.082   .     S
C408   H433    1.080   .     S
C409   C410    1.404   .     A
C409   C415    1.405   .     A
C410   C411    1.397   .     A
C410   H435    1.080   .     S
C411   C412    1.394   .     A
C411   H1804   1.082   1_554 S
C412   C413    1.398   .     A
C412   H1805   1.080   1_554 S
C413   H438    1.082   .     S
C413   C415    1.398   .     A
C414   C417    1.406   .     S
C414   O455    1.301   .     A
C414   O454    1.302   .     A
C415   H439    1.083   .     S
C416   C1785   1.189   1_554 S
C417   C1100   1.189   .     S
C418   H423    1.084   .     S
C419   H434    1.084   .     S
C419   C230    1.389   1_655 S
C420   H440    1.083   .     S
C420   C266    1.389   1_655 S
Cu421  Cu422   2.726   .     S
Cu421  N447    2.049   .     S
Cu421  O451    1.948   .     S
Cu421  O453    1.926   .     S
Cu421  O455    1.926   .     S
Cu421  O449    1.948   .     S
Cu422  O450    1.948   .     S
Cu422  N448    2.049   .     S
Cu422  O454    1.926   .     S
Cu422  O452    1.948   .     S
Cu422  O456    1.926   .     S
H425   C1766   1.082   1_554 S
H426   C1767   1.080   1_554 S
H431   C1774   1.080   1_554 S
H432   C1775   1.082   1_554 S
H436   C1095   1.082   .     S
H437   C1096   1.080   .     S
H444   C1077   1.080   .     S
H445   C1078   1.082   .     S
C457   O528    1.303   .     A
C457   O525    1.303   .     A
C457   C460    1.438   .     S
C458   H517    1.083   .     S
C458   C460    1.397   .     A
C458   C647    1.389   1_455 S
C459   C468    1.438   .     S
C459   C495    1.396   .     A
C459   C496    1.397   .     A
C460   C494    1.396   .     A
C461   N524    1.378   .     A
C461   C465    1.481   .     S
C462   N523    1.378   .     A
C462   C472    1.481   .     S
C462   C7      1.434   1_565 S
C463   N524    1.378   .     A
C463   C478    1.481   .     S
C464   C485    1.481   .     S
C464   N523    1.378   .     A
C464   C5      1.434   1_565 S
C465   C466    1.405   .     A
C465   C471    1.404   .     A
C466   H518    1.083   .     S
C466   C467    1.398   .     A
C467   H519    1.082   .     S
C467   C469    1.398   .     A
C468   O527    1.303   .     A
C468   O526    1.303   .     A
C469   C470    1.394   .     A
C469   H1888   1.080   1_554 S
C470   C471    1.397   .     A
C470   H1889   1.082   1_554 S
C471   H522    1.080   .     S
C472   C477    1.405   .     A
C472   C473    1.404   .     A
C473   C474    1.397   .     A
C473   H500    1.080   .     S
C474   C475    1.394   .     A
C474   H1185   1.082   .     S
C475   C476    1.398   .     A
C475   H1186   1.080   .     S
C476   H503    1.082   .     S
C476   C477    1.398   .     A
C477   H504    1.083   .     S
C478   C484    1.404   .     A
C478   C480    1.405   .     A
C479   O532    1.301   .     A
C479   O529    1.302   .     A
C479   C492    1.406   .     S
C480   C481    1.398   .     A
C480   H505    1.083   .     S
C481   H506    1.082   .     S
C481   C482    1.398   .     A
C482   C483    1.394   .     A
C482   H1191   1.080   .     S
C483   C484    1.397   .     A
C483   H1192   1.082   .     S
C484   H509    1.080   .     S
C485   C486    1.404   .     A
C485   C491    1.405   .     A
C486   C487    1.397   .     A
C486   H511    1.080   .     S
C487   C488    1.394   .     A
C487   H1880   1.082   1_554 S
C488   C489    1.398   .     A
C488   H1881   1.080   1_554 S
C489   H514    1.082   .     S
C489   C491    1.398   .     A
C490   C493    1.406   .     S
C490   O531    1.301   .     A
C490   O530    1.302   .     A
C491   H515    1.083   .     S
C492   C1861   1.189   1_554 S
C493   C1176   1.189   .     S
C494   H499    1.084   .     S
C494   C648    1.389   1_455 S
C495   H510    1.084   .     S
C495   C534    1.389   .     S
C496   H516    1.083   .     S
C496   C570    1.389   .     S
Cu497  Cu498   2.726   .     S
Cu497  N523    2.049   .     S
Cu497  O527    1.948   .     S
Cu497  O529    1.926   .     S
Cu497  O531    1.926   .     S
Cu497  O525    1.948   .     S
Cu498  O526    1.948   .     S
Cu498  N524    2.049   .     S
Cu498  O530    1.926   .     S
Cu498  O528    1.948   .     S
Cu498  O532    1.926   .     S
H501   C1842   1.082   1_554 S
H502   C1843   1.080   1_554 S
H507   C1850   1.080   1_554 S
H508   C1851   1.082   1_554 S
H512   C1171   1.082   .     S
H513   C1172   1.080   .     S
H520   C1153   1.080   .     S
H521   C1154   1.082   .     S
C533   O604    1.303   .     A
C533   O601    1.303   .     A
C533   C536    1.438   .     S
C534   H593    1.083   .     S
C534   C536    1.397   .     A
C535   C544    1.438   .     S
C535   C571    1.396   .     A
C535   C572    1.397   .     A
C536   C570    1.396   .     A
C537   N600    1.378   .     A
C537   C541    1.481   .     S
C538   N599    1.378   .     A
C538   C548    1.481   .     S
C538   C83     1.434   1_565 S
C539   N600    1.378   .     A
C539   C554    1.481   .     S
C540   C561    1.481   .     S
C540   N599    1.378   .     A
C540   C81     1.434   1_565 S
C541   C542    1.405   .     A
C541   C547    1.404   .     A
C542   H594    1.083   .     S
C542   C543    1.398   .     A
C543   H595    1.082   .     S
C543   C545    1.398   .     A
C544   O603    1.303   .     A
C544   O602    1.303   .     A
C545   C546    1.394   .     A
C545   H1964   1.080   1_554 S
C546   C547    1.397   .     A
C546   H1965   1.082   1_554 S
C547   H598    1.080   .     S
C548   C553    1.405   .     A
C548   C549    1.404   .     A
C549   C550    1.397   .     A
C549   H576    1.080   .     S
C550   C551    1.394   .     A
C550   H1261   1.082   .     S
C551   C552    1.398   .     A
C551   H1262   1.080   .     S
C552   H579    1.082   .     S
C552   C553    1.398   .     A
C553   H580    1.083   .     S
C554   C560    1.404   .     A
C554   C556    1.405   .     A
C555   O608    1.301   .     A
C555   O605    1.302   .     A
C555   C568    1.406   .     S
C556   C557    1.398   .     A
C556   H581    1.083   .     S
C557   H582    1.082   .     S
C557   C558    1.398   .     A
C558   C559    1.394   .     A
C558   H1267   1.080   .     S
C559   C560    1.397   .     A
C559   H1268   1.082   .     S
C560   H585    1.080   .     S
C561   C562    1.404   .     A
C561   C567    1.405   .     A
C562   C563    1.397   .     A
C562   H587    1.080   .     S
C563   C564    1.394   .     A
C563   H1956   1.082   1_554 S
C564   C565    1.398   .     A
C564   H1957   1.080   1_554 S
C565   H590    1.082   .     S
C565   C567    1.398   .     A
C566   C569    1.406   .     S
C566   O607    1.301   .     A
C566   O606    1.302   .     A
C567   H591    1.083   .     S
C568   C1937   1.189   1_554 S
C569   C1252   1.189   .     S
C570   H575    1.084   .     S
C571   H586    1.084   .     S
C571   C610    1.389   .     S
C572   H592    1.083   .     S
C572   C646    1.389   .     S
Cu573  Cu574   2.726   .     S
Cu573  N599    2.049   .     S
Cu573  O603    1.948   .     S
Cu573  O605    1.926   .     S
Cu573  O607    1.926   .     S
Cu573  O601    1.948   .     S
Cu574  O602    1.948   .     S
Cu574  N600    2.049   .     S
Cu574  O606    1.926   .     S
Cu574  O604    1.948   .     S
Cu574  O608    1.926   .     S
H577   C1918   1.082   1_554 S
H578   C1919   1.080   1_554 S
H583   C1926   1.080   1_554 S
H584   C1927   1.082   1_554 S
H588   C1247   1.082   .     S
H589   C1248   1.080   .     S
H596   C1229   1.080   .     S
H597   C1230   1.082   .     S
C609   O680    1.303   .     A
C609   O677    1.303   .     A
C609   C612    1.438   .     S
C610   H669    1.083   .     S
C610   C612    1.397   .     A
C611   C620    1.438   .     S
C611   C647    1.396   .     A
C611   C648    1.397   .     A
C612   C646    1.396   .     A
C613   N676    1.378   .     A
C613   C617    1.481   .     S
C614   N675    1.378   .     A
C614   C624    1.481   .     S
C614   C159    1.434   1_565 S
C615   N676    1.378   .     A
C615   C630    1.481   .     S
C616   C637    1.481   .     S
C616   N675    1.378   .     A
C616   C157    1.434   1_565 S
C617   C618    1.405   .     A
C617   C623    1.404   .     A
C618   H670    1.083   .     S
C618   C619    1.398   .     A
C619   H671    1.082   .     S
C619   C621    1.398   .     A
C620   O679    1.303   .     A
C620   O678    1.303   .     A
C621   C622    1.394   .     A
C621   H2040   1.080   1_554 S
C622   C623    1.397   .     A
C622   H2041   1.082   1_554 S
C623   H674    1.080   .     S
C624   C629    1.405   .     A
C624   C625    1.404   .     A
C625   C626    1.397   .     A
C625   H652    1.080   .     S
C626   C627    1.394   .     A
C626   H1337   1.082   .     S
C627   C628    1.398   .     A
C627   H1338   1.080   .     S
C628   H655    1.082   .     S
C628   C629    1.398   .     A
C629   H656    1.083   .     S
C630   C636    1.404   .     A
C630   C632    1.405   .     A
C631   O684    1.301   .     A
C631   O681    1.302   .     A
C631   C644    1.406   .     S
C632   C633    1.398   .     A
C632   H657    1.083   .     S
C633   H658    1.082   .     S
C633   C634    1.398   .     A
C634   C635    1.394   .     A
C634   H1343   1.080   .     S
C635   C636    1.397   .     A
C635   H1344   1.082   .     S
C636   H661    1.080   .     S
C637   C638    1.404   .     A
C637   C643    1.405   .     A
C638   C639    1.397   .     A
C638   H663    1.080   .     S
C639   C640    1.394   .     A
C639   H2032   1.082   1_554 S
C640   C641    1.398   .     A
C640   H2033   1.080   1_554 S
C641   H666    1.082   .     S
C641   C643    1.398   .     A
C642   C645    1.406   .     S
C642   O683    1.301   .     A
C642   O682    1.302   .     A
C643   H667    1.083   .     S
C644   C2013   1.189   1_554 S
C645   C1328   1.189   .     S
C646   H651    1.084   .     S
C647   H662    1.084   .     S
C647   C458    1.389   1_655 S
C648   H668    1.083   .     S
C648   C494    1.389   1_655 S
Cu649  Cu650   2.726   .     S
Cu649  N675    2.049   .     S
Cu649  O679    1.948   .     S
Cu649  O681    1.926   .     S
Cu649  O683    1.926   .     S
Cu649  O677    1.948   .     S
Cu650  O678    1.948   .     S
Cu650  N676    2.049   .     S
Cu650  O682    1.926   .     S
Cu650  O680    1.948   .     S
Cu650  O684    1.926   .     S
H653   C1994   1.082   1_554 S
H654   C1995   1.080   1_554 S
H659   C2002   1.080   1_554 S
H660   C2003   1.082   1_554 S
H664   C1323   1.082   .     S
H665   C1324   1.080   .     S
H672   C1305   1.080   .     S
H673   C1306   1.082   .     S
C685   O756    1.303   .     A
C685   O753    1.303   .     A
C685   C688    1.438   .     S
C686   H745    1.083   .     S
C686   C688    1.397   .     A
C686   C875    1.389   1_455 S
C687   C696    1.438   .     S
C687   C723    1.396   .     A
C687   C724    1.397   .     A
C688   C722    1.396   .     A
C689   N752    1.378   .     A
C689   C693    1.481   .     S
C689   C1148   1.434   1_545 S
C690   N751    1.378   .     A
C690   C700    1.481   .     S
C690   C919    1.434   .     S
C691   N752    1.378   .     A
C691   C706    1.481   .     S
C691   C1146   1.434   1_545 S
C692   C713    1.481   .     S
C692   N751    1.378   .     A
C692   C917    1.434   .     S
C693   C694    1.405   .     A
C693   C699    1.404   .     A
C694   H746    1.083   .     S
C694   C695    1.398   .     A
C695   H747    1.082   .     S
C695   C697    1.398   .     A
C696   O755    1.303   .     A
C696   O754    1.303   .     A
C697   C698    1.394   .     A
C698   C699    1.397   .     A
C699   H750    1.080   .     S
C700   C705    1.405   .     A
C700   C701    1.404   .     A
C701   C702    1.397   .     A
C701   H728    1.080   .     S
C702   C703    1.394   .     A
C702   H1413   1.082   .     S
C703   C704    1.398   .     A
C703   H1414   1.080   .     S
C704   H731    1.082   .     S
C704   C705    1.398   .     A
C705   H732    1.083   .     S
C706   C712    1.404   .     A
C706   C708    1.405   .     A
C707   O760    1.301   .     A
C707   O757    1.302   .     A
C707   C720    1.406   .     S
C708   C709    1.398   .     A
C708   H733    1.083   .     S
C709   H734    1.082   .     S
C709   C710    1.398   .     A
C710   C711    1.394   .     A
C710   H1419   1.080   .     S
C711   C712    1.397   .     A
C711   H1420   1.082   .     S
C712   H737    1.080   .     S
C713   C714    1.404   .     A
C713   C719    1.405   .     A
C714   C715    1.397   .     A
C714   H739    1.080   .     S
C715   C716    1.394   .     A
C716   C717    1.398   .     A
C717   H742    1.082   .     S
C717   C719    1.398   .     A
C718   C721    1.406   .     S
C718   O759    1.301   .     A
C718   O758    1.302   .     A
C719   H743    1.083   .     S
C721   C1404   1.189   .     S
C722   H727    1.084   .     S
C722   C876    1.389   1_455 S
C723   H738    1.084   .     S
C723   C762    1.389   .     S
C724   H744    1.083   .     S
C724   C798    1.389   .     S
Cu725  Cu726   2.726   .     S
Cu725  N751    2.049   .     S
Cu725  O755    1.948   .     S
Cu725  O757    1.926   .     S
Cu725  O759    1.926   .     S
Cu725  O753    1.948   .     S
Cu726  O754    1.948   .     S
Cu726  N752    2.049   .     S
Cu726  O758    1.926   .     S
Cu726  O756    1.948   .     S
Cu726  O760    1.926   .     S
H740   C1399   1.082   .     S
H741   C1400   1.080   .     S
H748   C1381   1.080   .     S
H749   C1382   1.082   .     S
C761   O832    1.303   .     A
C761   O829    1.303   .     A
C761   C764    1.438   .     S
C762   H821    1.083   .     S
C762   C764    1.397   .     A
C763   C772    1.438   .     S
C763   C799    1.396   .     A
C763   C800    1.397   .     A
C764   C798    1.396   .     A
C765   N828    1.378   .     A
C765   C769    1.481   .     S
C765   C1224   1.434   1_545 S
C766   N827    1.378   .     A
C766   C776    1.481   .     S
C766   C995    1.434   .     S
C767   N828    1.378   .     A
C767   C782    1.481   .     S
C767   C1222   1.434   1_545 S
C768   C789    1.481   .     S
C768   N827    1.378   .     A
C768   C993    1.434   .     S
C769   C770    1.405   .     A
C769   C775    1.404   .     A
C770   H822    1.083   .     S
C770   C771    1.398   .     A
C771   H823    1.082   .     S
C771   C773    1.398   .     A
C772   O831    1.303   .     A
C772   O830    1.303   .     A
C773   C774    1.394   .     A
C774   C775    1.397   .     A
C775   H826    1.080   .     S
C776   C781    1.405   .     A
C776   C777    1.404   .     A
C777   C778    1.397   .     A
C777   H804    1.080   .     S
C778   C779    1.394   .     A
C778   H1489   1.082   .     S
C779   C780    1.398   .     A
C779   H1490   1.080   .     S
C780   H807    1.082   .     S
C780   C781    1.398   .     A
C781   H808    1.083   .     S
C782   C788    1.404   .     A
C782   C784    1.405   .     A
C783   O836    1.301   .     A
C783   O833    1.302   .     A
C783   C796    1.406   .     S
C784   C785    1.398   .     A
C784   H809    1.083   .     S
C785   H810    1.082   .     S
C785   C786    1.398   .     A
C786   C787    1.394   .     A
C786   H1495   1.080   .     S
C787   C788    1.397   .     A
C787   H1496   1.082   .     S
C788   H813    1.080   .     S
C789   C790    1.404   .     A
C789   C795    1.405   .     A
C790   C791    1.397   .     A
C790   H815    1.080   .     S
C791   C792    1.394   .     A
C792   C793    1.398   .     A
C793   H818    1.082   .     S
C793   C795    1.398   .     A
C794   C797    1.406   .     S
C794   O835    1.301   .     A
C794   O834    1.302   .     A
C795   H819    1.083   .     S
C797   C1480   1.189   .     S
C798   H803    1.084   .     S
C799   H814    1.084   .     S
C799   C838    1.389   .     S
C800   H820    1.083   .     S
C800   C874    1.389   .     S
Cu801  Cu802   2.726   .     S
Cu801  N827    2.049   .     S
Cu801  O831    1.948   .     S
Cu801  O833    1.926   .     S
Cu801  O835    1.926   .     S
Cu801  O829    1.948   .     S
Cu802  O830    1.948   .     S
Cu802  N828    2.049   .     S
Cu802  O834    1.926   .     S
Cu802  O832    1.948   .     S
Cu802  O836    1.926   .     S
H816   C1475   1.082   .     S
H817   C1476   1.080   .     S
H824   C1457   1.080   .     S
H825   C1458   1.082   .     S
C837   O908    1.303   .     A
C837   O905    1.303   .     A
C837   C840    1.438   .     S
C838   H897    1.083   .     S
C838   C840    1.397   .     A
C839   C848    1.438   .     S
C839   C875    1.396   .     A
C839   C876    1.397   .     A
C840   C874    1.396   .     A
C841   N904    1.378   .     A
C841   C845    1.481   .     S
C841   C1300   1.434   1_545 S
C842   N903    1.378   .     A
C842   C852    1.481   .     S
C842   C1071   1.434   .     S
C843   N904    1.378   .     A
C843   C858    1.481   .     S
C843   C1298   1.434   1_545 S
C844   C865    1.481   .     S
C844   N903    1.378   .     A
C844   C1069   1.434   .     S
C845   C846    1.405   .     A
C845   C851    1.404   .     A
C846   H898    1.083   .     S
C846   C847    1.398   .     A
C847   H899    1.082   .     S
C847   C849    1.398   .     A
C848   O907    1.303   .     A
C848   O906    1.303   .     A
C849   C850    1.394   .     A
C850   C851    1.397   .     A
C851   H902    1.080   .     S
C852   C857    1.405   .     A
C852   C853    1.404   .     A
C853   C854    1.397   .     A
C853   H880    1.080   .     S
C854   C855    1.394   .     A
C854   H1565   1.082   .     S
C855   C856    1.398   .     A
C855   H1566   1.080   .     S
C856   H883    1.082   .     S
C856   C857    1.398   .     A
C857   H884    1.083   .     S
C858   C864    1.404   .     A
C858   C860    1.405   .     A
C859   O912    1.301   .     A
C859   O909    1.302   .     A
C859   C872    1.406   .     S
C860   C861    1.398   .     A
C860   H885    1.083   .     S
C861   H886    1.082   .     S
C861   C862    1.398   .     A
C862   C863    1.394   .     A
C862   H1571   1.080   .     S
C863   C864    1.397   .     A
C863   H1572   1.082   .     S
C864   H889    1.080   .     S
C865   C866    1.404   .     A
C865   C871    1.405   .     A
C866   C867    1.397   .     A
C866   H891    1.080   .     S
C867   C868    1.394   .     A
C868   C869    1.398   .     A
C869   H894    1.082   .     S
C869   C871    1.398   .     A
C870   C873    1.406   .     S
C870   O911    1.301   .     A
C870   O910    1.302   .     A
C871   H895    1.083   .     S
C873   C1556   1.189   .     S
C874   H879    1.084   .     S
C875   H890    1.084   .     S
C875   C686    1.389   1_655 S
C876   H896    1.083   .     S
C876   C722    1.389   1_655 S
Cu877  Cu878   2.726   .     S
Cu877  N903    2.049   .     S
Cu877  O907    1.948   .     S
Cu877  O909    1.926   .     S
Cu877  O911    1.926   .     S
Cu877  O905    1.948   .     S
Cu878  O906    1.948   .     S
Cu878  N904    2.049   .     S
Cu878  O910    1.926   .     S
Cu878  O908    1.948   .     S
Cu878  O912    1.926   .     S
H892   C1551   1.082   .     S
H893   C1552   1.080   .     S
H900   C1533   1.080   .     S
H901   C1534   1.082   .     S
C913   O984    1.303   .     A
C913   O981    1.303   .     A
C913   C916    1.438   .     S
C914   H973    1.083   .     S
C914   C916    1.397   .     A
C914   C1103   1.389   1_455 S
C915   C924    1.438   .     S
C915   C951    1.396   .     A
C915   C952    1.397   .     A
C916   C950    1.396   .     A
C917   N980    1.378   .     A
C917   C921    1.481   .     S
C918   N979    1.378   .     A
C918   C928    1.481   .     S
C918   C1147   1.434   .     S
C919   N980    1.378   .     A
C919   C934    1.481   .     S
C920   C941    1.481   .     S
C920   N979    1.378   .     A
C920   C1145   1.434   .     S
C921   C922    1.405   .     A
C921   C927    1.404   .     A
C922   H974    1.083   .     S
C922   C923    1.398   .     A
C923   H975    1.082   .     S
C923   C925    1.398   .     A
C924   O983    1.303   .     A
C924   O982    1.303   .     A
C925   C926    1.394   .     A
C926   C927    1.397   .     A
C927   H978    1.080   .     S
C928   C933    1.405   .     A
C928   C929    1.404   .     A
C929   C930    1.397   .     A
C929   H956    1.080   .     S
C930   C931    1.394   .     A
C930   H1641   1.082   .     S
C931   C932    1.398   .     A
C931   H1642   1.080   .     S
C932   H959    1.082   .     S
C932   C933    1.398   .     A
C933   H960    1.083   .     S
C934   C940    1.404   .     A
C934   C936    1.405   .     A
C935   O988    1.301   .     A
C935   O985    1.302   .     A
C935   C948    1.406   .     S
C936   C937    1.398   .     A
C936   H961    1.083   .     S
C937   H962    1.082   .     S
C937   C938    1.398   .     A
C938   C939    1.394   .     A
C938   H1647   1.080   .     S
C939   C940    1.397   .     A
C939   H1648   1.082   .     S
C940   H965    1.080   .     S
C941   C942    1.404   .     A
C941   C947    1.405   .     A
C942   C943    1.397   .     A
C942   H967    1.080   .     S
C943   C944    1.394   .     A
C944   C945    1.398   .     A
C945   H970    1.082   .     S
C945   C947    1.398   .     A
C946   C949    1.406   .     S
C946   O987    1.301   .     A
C946   O986    1.302   .     A
C947   H971    1.083   .     S
C949   C1632   1.189   .     S
C950   H955    1.084   .     S
C950   C1104   1.389   1_455 S
C951   H966    1.084   .     S
C951   C990    1.389   .     S
C952   H972    1.083   .     S
C952   C1026   1.389   .     S
Cu953  Cu954   2.726   .     S
Cu953  N979    2.049   .     S
Cu953  O983    1.948   .     S
Cu953  O985    1.926   .     S
Cu953  O987    1.926   .     S
Cu953  O981    1.948   .     S
Cu954  O982    1.948   .     S
Cu954  N980    2.049   .     S
Cu954  O986    1.926   .     S
Cu954  O984    1.948   .     S
Cu954  O988    1.926   .     S
H968   C1627   1.082   .     S
H969   C1628   1.080   .     S
H976   C1609   1.080   .     S
H977   C1610   1.082   .     S
C989   O1060   1.303   .     A
C989   O1057   1.303   .     A
C989   C992    1.438   .     S
C990   H1049   1.083   .     S
C990   C992    1.397   .     A
C991   C1000   1.438   .     S
C991   C1027   1.396   .     A
C991   C1028   1.397   .     A
C992   C1026   1.396   .     A
C993   N1056   1.378   .     A
C993   C997    1.481   .     S
C994   N1055   1.378   .     A
C994   C1004   1.481   .     S
C994   C1223   1.434   .     S
C995   N1056   1.378   .     A
C995   C1010   1.481   .     S
C996   C1017   1.481   .     S
C996   N1055   1.378   .     A
C996   C1221   1.434   .     S
C997   C998    1.405   .     A
C997   C1003   1.404   .     A
C998   H1050   1.083   .     S
C998   C999    1.398   .     A
C999   H1051   1.082   .     S
C999   C1001   1.398   .     A
C1000  O1059   1.303   .     A
C1000  O1058   1.303   .     A
C1001  C1002   1.394   .     A
C1002  C1003   1.397   .     A
C1003  H1054   1.080   .     S
C1004  C1009   1.405   .     A
C1004  C1005   1.404   .     A
C1005  C1006   1.397   .     A
C1005  H1032   1.080   .     S
C1006  C1007   1.394   .     A
C1006  H1717   1.082   .     S
C1007  C1008   1.398   .     A
C1007  H1718   1.080   .     S
C1008  H1035   1.082   .     S
C1008  C1009   1.398   .     A
C1009  H1036   1.083   .     S
C1010  C1016   1.404   .     A
C1010  C1012   1.405   .     A
C1011  O1064   1.301   .     A
C1011  O1061   1.302   .     A
C1011  C1024   1.406   .     S
C1012  C1013   1.398   .     A
C1012  H1037   1.083   .     S
C1013  H1038   1.082   .     S
C1013  C1014   1.398   .     A
C1014  C1015   1.394   .     A
C1014  H1723   1.080   .     S
C1015  C1016   1.397   .     A
C1015  H1724   1.082   .     S
C1016  H1041   1.080   .     S
C1017  C1018   1.404   .     A
C1017  C1023   1.405   .     A
C1018  C1019   1.397   .     A
C1018  H1043   1.080   .     S
C1019  C1020   1.394   .     A
C1020  C1021   1.398   .     A
C1021  H1046   1.082   .     S
C1021  C1023   1.398   .     A
C1022  C1025   1.406   .     S
C1022  O1063   1.301   .     A
C1022  O1062   1.302   .     A
C1023  H1047   1.083   .     S
C1025  C1708   1.189   .     S
C1026  H1031   1.084   .     S
C1027  H1042   1.084   .     S
C1027  C1066   1.389   .     S
C1028  H1048   1.083   .     S
C1028  C1102   1.389   .     S
Cu1029 Cu1030  2.726   .     S
Cu1029 N1055   2.049   .     S
Cu1029 O1059   1.948   .     S
Cu1029 O1061   1.926   .     S
Cu1029 O1063   1.926   .     S
Cu1029 O1057   1.948   .     S
Cu1030 O1058   1.948   .     S
Cu1030 N1056   2.049   .     S
Cu1030 O1062   1.926   .     S
Cu1030 O1060   1.948   .     S
Cu1030 O1064   1.926   .     S
H1044  C1703   1.082   .     S
H1045  C1704   1.080   .     S
H1052  C1685   1.080   .     S
H1053  C1686   1.082   .     S
C1065  O1136   1.303   .     A
C1065  O1133   1.303   .     A
C1065  C1068   1.438   .     S
C1066  H1125   1.083   .     S
C1066  C1068   1.397   .     A
C1067  C1076   1.438   .     S
C1067  C1103   1.396   .     A
C1067  C1104   1.397   .     A
C1068  C1102   1.396   .     A
C1069  N1132   1.378   .     A
C1069  C1073   1.481   .     S
C1070  N1131   1.378   .     A
C1070  C1080   1.481   .     S
C1070  C1299   1.434   .     S
C1071  N1132   1.378   .     A
C1071  C1086   1.481   .     S
C1072  C1093   1.481   .     S
C1072  N1131   1.378   .     A
C1072  C1297   1.434   .     S
C1073  C1074   1.405   .     A
C1073  C1079   1.404   .     A
C1074  H1126   1.083   .     S
C1074  C1075   1.398   .     A
C1075  H1127   1.082   .     S
C1075  C1077   1.398   .     A
C1076  O1135   1.303   .     A
C1076  O1134   1.303   .     A
C1077  C1078   1.394   .     A
C1078  C1079   1.397   .     A
C1079  H1130   1.080   .     S
C1080  C1085   1.405   .     A
C1080  C1081   1.404   .     A
C1081  C1082   1.397   .     A
C1081  H1108   1.080   .     S
C1082  C1083   1.394   .     A
C1082  H1793   1.082   .     S
C1083  C1084   1.398   .     A
C1083  H1794   1.080   .     S
C1084  H1111   1.082   .     S
C1084  C1085   1.398   .     A
C1085  H1112   1.083   .     S
C1086  C1092   1.404   .     A
C1086  C1088   1.405   .     A
C1087  O1140   1.301   .     A
C1087  O1137   1.302   .     A
C1087  C1100   1.406   .     S
C1088  C1089   1.398   .     A
C1088  H1113   1.083   .     S
C1089  H1114   1.082   .     S
C1089  C1090   1.398   .     A
C1090  C1091   1.394   .     A
C1090  H1799   1.080   .     S
C1091  C1092   1.397   .     A
C1091  H1800   1.082   .     S
C1092  H1117   1.080   .     S
C1093  C1094   1.404   .     A
C1093  C1099   1.405   .     A
C1094  C1095   1.397   .     A
C1094  H1119   1.080   .     S
C1095  C1096   1.394   .     A
C1096  C1097   1.398   .     A
C1097  H1122   1.082   .     S
C1097  C1099   1.398   .     A
C1098  C1101   1.406   .     S
C1098  O1139   1.301   .     A
C1098  O1138   1.302   .     A
C1099  H1123   1.083   .     S
C1101  C1784   1.189   .     S
C1102  H1107   1.084   .     S
C1103  H1118   1.084   .     S
C1103  C914    1.389   1_655 S
C1104  H1124   1.083   .     S
C1104  C950    1.389   1_655 S
Cu1105 Cu1106  2.726   .     S
Cu1105 N1131   2.049   .     S
Cu1105 O1135   1.948   .     S
Cu1105 O1137   1.926   .     S
Cu1105 O1139   1.926   .     S
Cu1105 O1133   1.948   .     S
Cu1106 O1134   1.948   .     S
Cu1106 N1132   2.049   .     S
Cu1106 O1138   1.926   .     S
Cu1106 O1136   1.948   .     S
Cu1106 O1140   1.926   .     S
H1120  C1779   1.082   .     S
H1121  C1780   1.080   .     S
H1128  C1761   1.080   .     S
H1129  C1762   1.082   .     S
C1141  O1212   1.303   .     A
C1141  O1209   1.303   .     A
C1141  C1144   1.438   .     S
C1142  H1201   1.083   .     S
C1142  C1144   1.397   .     A
C1142  C1331   1.389   1_455 S
C1143  C1152   1.438   .     S
C1143  C1179   1.396   .     A
C1143  C1180   1.397   .     A
C1144  C1178   1.396   .     A
C1145  N1208   1.378   .     A
C1145  C1149   1.481   .     S
C1146  N1207   1.378   .     A
C1146  C1156   1.481   .     S
C1146  C691    1.434   1_565 S
C1147  N1208   1.378   .     A
C1147  C1162   1.481   .     S
C1148  C1169   1.481   .     S
C1148  N1207   1.378   .     A
C1148  C689    1.434   1_565 S
C1149  C1150   1.405   .     A
C1149  C1155   1.404   .     A
C1150  H1202   1.083   .     S
C1150  C1151   1.398   .     A
C1151  H1203   1.082   .     S
C1151  C1153   1.398   .     A
C1152  O1211   1.303   .     A
C1152  O1210   1.303   .     A
C1153  C1154   1.394   .     A
C1154  C1155   1.397   .     A
C1155  H1206   1.080   .     S
C1156  C1161   1.405   .     A
C1156  C1157   1.404   .     A
C1157  C1158   1.397   .     A
C1157  H1184   1.080   .     S
C1158  C1159   1.394   .     A
C1158  H1869   1.082   .     S
C1159  C1160   1.398   .     A
C1159  H1870   1.080   .     S
C1160  H1187   1.082   .     S
C1160  C1161   1.398   .     A
C1161  H1188   1.083   .     S
C1162  C1168   1.404   .     A
C1162  C1164   1.405   .     A
C1163  O1216   1.301   .     A
C1163  O1213   1.302   .     A
C1163  C1176   1.406   .     S
C1164  C1165   1.398   .     A
C1164  H1189   1.083   .     S
C1165  H1190   1.082   .     S
C1165  C1166   1.398   .     A
C1166  C1167   1.394   .     A
C1166  H1875   1.080   .     S
C1167  C1168   1.397   .     A
C1167  H1876   1.082   .     S
C1168  H1193   1.080   .     S
C1169  C1170   1.404   .     A
C1169  C1175   1.405   .     A
C1170  C1171   1.397   .     A
C1170  H1195   1.080   .     S
C1171  C1172   1.394   .     A
C1172  C1173   1.398   .     A
C1173  H1198   1.082   .     S
C1173  C1175   1.398   .     A
C1174  C1177   1.406   .     S
C1174  O1215   1.301   .     A
C1174  O1214   1.302   .     A
C1175  H1199   1.083   .     S
C1177  C1860   1.189   .     S
C1178  H1183   1.084   .     S
C1178  C1332   1.389   1_455 S
C1179  H1194   1.084   .     S
C1179  C1218   1.389   .     S
C1180  H1200   1.083   .     S
C1180  C1254   1.389   .     S
Cu1181 Cu1182  2.726   .     S
Cu1181 N1207   2.049   .     S
Cu1181 O1211   1.948   .     S
Cu1181 O1213   1.926   .     S
Cu1181 O1215   1.926   .     S
Cu1181 O1209   1.948   .     S
Cu1182 O1210   1.948   .     S
Cu1182 N1208   2.049   .     S
Cu1182 O1214   1.926   .     S
Cu1182 O1212   1.948   .     S
Cu1182 O1216   1.926   .     S
H1196  C1855   1.082   .     S
H1197  C1856   1.080   .     S
H1204  C1837   1.080   .     S
H1205  C1838   1.082   .     S
C1217  O1288   1.303   .     A
C1217  O1285   1.303   .     A
C1217  C1220   1.438   .     S
C1218  H1277   1.083   .     S
C1218  C1220   1.397   .     A
C1219  C1228   1.438   .     S
C1219  C1255   1.396   .     A
C1219  C1256   1.397   .     A
C1220  C1254   1.396   .     A
C1221  N1284   1.378   .     A
C1221  C1225   1.481   .     S
C1222  N1283   1.378   .     A
C1222  C1232   1.481   .     S
C1222  C767    1.434   1_565 S
C1223  N1284   1.378   .     A
C1223  C1238   1.481   .     S
C1224  C1245   1.481   .     S
C1224  N1283   1.378   .     A
C1224  C765    1.434   1_565 S
C1225  C1226   1.405   .     A
C1225  C1231   1.404   .     A
C1226  H1278   1.083   .     S
C1226  C1227   1.398   .     A
C1227  H1279   1.082   .     S
C1227  C1229   1.398   .     A
C1228  O1287   1.303   .     A
C1228  O1286   1.303   .     A
C1229  C1230   1.394   .     A
C1230  C1231   1.397   .     A
C1231  H1282   1.080   .     S
C1232  C1237   1.405   .     A
C1232  C1233   1.404   .     A
C1233  C1234   1.397   .     A
C1233  H1260   1.080   .     S
C1234  C1235   1.394   .     A
C1234  H1945   1.082   .     S
C1235  C1236   1.398   .     A
C1235  H1946   1.080   .     S
C1236  H1263   1.082   .     S
C1236  C1237   1.398   .     A
C1237  H1264   1.083   .     S
C1238  C1244   1.404   .     A
C1238  C1240   1.405   .     A
C1239  O1292   1.301   .     A
C1239  O1289   1.302   .     A
C1239  C1252   1.406   .     S
C1240  C1241   1.398   .     A
C1240  H1265   1.083   .     S
C1241  H1266   1.082   .     S
C1241  C1242   1.398   .     A
C1242  C1243   1.394   .     A
C1242  H1951   1.080   .     S
C1243  C1244   1.397   .     A
C1243  H1952   1.082   .     S
C1244  H1269   1.080   .     S
C1245  C1246   1.404   .     A
C1245  C1251   1.405   .     A
C1246  C1247   1.397   .     A
C1246  H1271   1.080   .     S
C1247  C1248   1.394   .     A
C1248  C1249   1.398   .     A
C1249  H1274   1.082   .     S
C1249  C1251   1.398   .     A
C1250  C1253   1.406   .     S
C1250  O1291   1.301   .     A
C1250  O1290   1.302   .     A
C1251  H1275   1.083   .     S
C1253  C1936   1.189   .     S
C1254  H1259   1.084   .     S
C1255  H1270   1.084   .     S
C1255  C1294   1.389   .     S
C1256  H1276   1.083   .     S
C1256  C1330   1.389   .     S
Cu1257 Cu1258  2.726   .     S
Cu1257 N1283   2.049   .     S
Cu1257 O1287   1.948   .     S
Cu1257 O1289   1.926   .     S
Cu1257 O1291   1.926   .     S
Cu1257 O1285   1.948   .     S
Cu1258 O1286   1.948   .     S
Cu1258 N1284   2.049   .     S
Cu1258 O1290   1.926   .     S
Cu1258 O1288   1.948   .     S
Cu1258 O1292   1.926   .     S
H1272  C1931   1.082   .     S
H1273  C1932   1.080   .     S
H1280  C1913   1.080   .     S
H1281  C1914   1.082   .     S
C1293  O1364   1.303   .     A
C1293  O1361   1.303   .     A
C1293  C1296   1.438   .     S
C1294  H1353   1.083   .     S
C1294  C1296   1.397   .     A
C1295  C1304   1.438   .     S
C1295  C1331   1.396   .     A
C1295  C1332   1.397   .     A
C1296  C1330   1.396   .     A
C1297  N1360   1.378   .     A
C1297  C1301   1.481   .     S
C1298  N1359   1.378   .     A
C1298  C1308   1.481   .     S
C1298  C843    1.434   1_565 S
C1299  N1360   1.378   .     A
C1299  C1314   1.481   .     S
C1300  C1321   1.481   .     S
C1300  N1359   1.378   .     A
C1300  C841    1.434   1_565 S
C1301  C1302   1.405   .     A
C1301  C1307   1.404   .     A
C1302  H1354   1.083   .     S
C1302  C1303   1.398   .     A
C1303  H1355   1.082   .     S
C1303  C1305   1.398   .     A
C1304  O1363   1.303   .     A
C1304  O1362   1.303   .     A
C1305  C1306   1.394   .     A
C1306  C1307   1.397   .     A
C1307  H1358   1.080   .     S
C1308  C1313   1.405   .     A
C1308  C1309   1.404   .     A
C1309  C1310   1.397   .     A
C1309  H1336   1.080   .     S
C1310  C1311   1.394   .     A
C1310  H2021   1.082   .     S
C1311  C1312   1.398   .     A
C1311  H2022   1.080   .     S
C1312  H1339   1.082   .     S
C1312  C1313   1.398   .     A
C1313  H1340   1.083   .     S
C1314  C1320   1.404   .     A
C1314  C1316   1.405   .     A
C1315  O1368   1.301   .     A
C1315  O1365   1.302   .     A
C1315  C1328   1.406   .     S
C1316  C1317   1.398   .     A
C1316  H1341   1.083   .     S
C1317  H1342   1.082   .     S
C1317  C1318   1.398   .     A
C1318  C1319   1.394   .     A
C1318  H2027   1.080   .     S
C1319  C1320   1.397   .     A
C1319  H2028   1.082   .     S
C1320  H1345   1.080   .     S
C1321  C1322   1.404   .     A
C1321  C1327   1.405   .     A
C1322  C1323   1.397   .     A
C1322  H1347   1.080   .     S
C1323  C1324   1.394   .     A
C1324  C1325   1.398   .     A
C1325  H1350   1.082   .     S
C1325  C1327   1.398   .     A
C1326  C1329   1.406   .     S
C1326  O1367   1.301   .     A
C1326  O1366   1.302   .     A
C1327  H1351   1.083   .     S
C1329  C2012   1.189   .     S
C1330  H1335   1.084   .     S
C1331  H1346   1.084   .     S
C1331  C1142   1.389   1_655 S
C1332  H1352   1.083   .     S
C1332  C1178   1.389   1_655 S
Cu1333 Cu1334  2.726   .     S
Cu1333 N1359   2.049   .     S
Cu1333 O1363   1.948   .     S
Cu1333 O1365   1.926   .     S
Cu1333 O1367   1.926   .     S
Cu1333 O1361   1.948   .     S
Cu1334 O1362   1.948   .     S
Cu1334 N1360   2.049   .     S
Cu1334 O1366   1.926   .     S
Cu1334 O1364   1.948   .     S
Cu1334 O1368   1.926   .     S
H1348  C2007   1.082   .     S
H1349  C2008   1.080   .     S
H1356  C1989   1.080   .     S
H1357  C1990   1.082   .     S
C1369  O1440   1.303   .     A
C1369  O1437   1.303   .     A
C1369  C1372   1.438   .     S
C1370  H1429   1.083   .     S
C1370  C1372   1.397   .     A
C1370  C1559   1.389   1_455 S
C1371  C1380   1.438   .     S
C1371  C1407   1.396   .     A
C1371  C1408   1.397   .     A
C1372  C1406   1.396   .     A
C1373  N1436   1.378   .     A
C1373  C1377   1.481   .     S
C1373  C1832   1.434   1_545 S
C1374  N1435   1.378   .     A
C1374  C1384   1.481   .     S
C1374  C1603   1.434   .     S
C1375  N1436   1.378   .     A
C1375  C1390   1.481   .     S
C1375  C1830   1.434   1_545 S
C1376  C1397   1.481   .     S
C1376  N1435   1.378   .     A
C1376  C1601   1.434   .     S
C1377  C1378   1.405   .     A
C1377  C1383   1.404   .     A
C1378  H1430   1.083   .     S
C1378  C1379   1.398   .     A
C1379  H1431   1.082   .     S
C1379  C1381   1.398   .     A
C1380  O1439   1.303   .     A
C1380  O1438   1.303   .     A
C1381  C1382   1.394   .     A
C1382  C1383   1.397   .     A
C1383  H1434   1.080   .     S
C1384  C1389   1.405   .     A
C1384  C1385   1.404   .     A
C1385  C1386   1.397   .     A
C1385  H1412   1.080   .     S
C1386  C1387   1.394   .     A
C1386  H45     1.082   1_556 S
C1387  C1388   1.398   .     A
C1387  H46     1.080   1_556 S
C1388  H1415   1.082   .     S
C1388  C1389   1.398   .     A
C1389  H1416   1.083   .     S
C1390  C1396   1.404   .     A
C1390  C1392   1.405   .     A
C1391  O1444   1.301   .     A
C1391  O1441   1.302   .     A
C1391  C1404   1.406   .     S
C1392  C1393   1.398   .     A
C1392  H1417   1.083   .     S
C1393  H1418   1.082   .     S
C1393  C1394   1.398   .     A
C1394  C1395   1.394   .     A
C1394  H51     1.080   1_556 S
C1395  C1396   1.397   .     A
C1395  H52     1.082   1_556 S
C1396  H1421   1.080   .     S
C1397  C1398   1.404   .     A
C1397  C1403   1.405   .     A
C1398  C1399   1.397   .     A
C1398  H1423   1.080   .     S
C1399  C1400   1.394   .     A
C1400  C1401   1.398   .     A
C1401  H1426   1.082   .     S
C1401  C1403   1.398   .     A
C1402  C1405   1.406   .     S
C1402  O1443   1.301   .     A
C1402  O1442   1.302   .     A
C1403  H1427   1.083   .     S
C1405  C36     1.189   1_556 S
C1406  H1411   1.084   .     S
C1406  C1560   1.389   1_455 S
C1407  H1422   1.084   .     S
C1407  C1446   1.389   .     S
C1408  H1428   1.083   .     S
C1408  C1482   1.389   .     S
Cu1409 Cu1410  2.726   .     S
Cu1409 N1435   2.049   .     S
Cu1409 O1439   1.948   .     S
Cu1409 O1441   1.926   .     S
Cu1409 O1443   1.926   .     S
Cu1409 O1437   1.948   .     S
Cu1410 O1438   1.948   .     S
Cu1410 N1436   2.049   .     S
Cu1410 O1442   1.926   .     S
Cu1410 O1440   1.948   .     S
Cu1410 O1444   1.926   .     S
H1424  C31     1.082   1_556 S
H1425  C32     1.080   1_556 S
H1432  C13     1.080   1_556 S
H1433  C14     1.082   1_556 S
C1445  O1516   1.303   .     A
C1445  O1513   1.303   .     A
C1445  C1448   1.438   .     S
C1446  H1505   1.083   .     S
C1446  C1448   1.397   .     A
C1447  C1456   1.438   .     S
C1447  C1483   1.396   .     A
C1447  C1484   1.397   .     A
C1448  C1482   1.396   .     A
C1449  N1512   1.378   .     A
C1449  C1453   1.481   .     S
C1449  C1908   1.434   1_545 S
C1450  N1511   1.378   .     A
C1450  C1460   1.481   .     S
C1450  C1679   1.434   .     S
C1451  N1512   1.378   .     A
C1451  C1466   1.481   .     S
C1451  C1906   1.434   1_545 S
C1452  C1473   1.481   .     S
C1452  N1511   1.378   .     A
C1452  C1677   1.434   .     S
C1453  C1454   1.405   .     A
C1453  C1459   1.404   .     A
C1454  H1506   1.083   .     S
C1454  C1455   1.398   .     A
C1455  H1507   1.082   .     S
C1455  C1457   1.398   .     A
C1456  O1515   1.303   .     A
C1456  O1514   1.303   .     A
C1457  C1458   1.394   .     A
C1458  C1459   1.397   .     A
C1459  H1510   1.080   .     S
C1460  C1465   1.405   .     A
C1460  C1461   1.404   .     A
C1461  C1462   1.397   .     A
C1461  H1488   1.080   .     S
C1462  C1463   1.394   .     A
C1462  H121    1.082   1_556 S
C1463  C1464   1.398   .     A
C1463  H122    1.080   1_556 S
C1464  H1491   1.082   .     S
C1464  C1465   1.398   .     A
C1465  H1492   1.083   .     S
C1466  C1472   1.404   .     A
C1466  C1468   1.405   .     A
C1467  O1520   1.301   .     A
C1467  O1517   1.302   .     A
C1467  C1480   1.406   .     S
C1468  C1469   1.398   .     A
C1468  H1493   1.083   .     S
C1469  H1494   1.082   .     S
C1469  C1470   1.398   .     A
C1470  C1471   1.394   .     A
C1470  H127    1.080   1_556 S
C1471  C1472   1.397   .     A
C1471  H128    1.082   1_556 S
C1472  H1497   1.080   .     S
C1473  C1474   1.404   .     A
C1473  C1479   1.405   .     A
C1474  C1475   1.397   .     A
C1474  H1499   1.080   .     S
C1475  C1476   1.394   .     A
C1476  C1477   1.398   .     A
C1477  H1502   1.082   .     S
C1477  C1479   1.398   .     A
C1478  C1481   1.406   .     S
C1478  O1519   1.301   .     A
C1478  O1518   1.302   .     A
C1479  H1503   1.083   .     S
C1481  C112    1.189   1_556 S
C1482  H1487   1.084   .     S
C1483  H1498   1.084   .     S
C1483  C1522   1.389   .     S
C1484  H1504   1.083   .     S
C1484  C1558   1.389   .     S
Cu1485 Cu1486  2.726   .     S
Cu1485 N1511   2.049   .     S
Cu1485 O1515   1.948   .     S
Cu1485 O1517   1.926   .     S
Cu1485 O1519   1.926   .     S
Cu1485 O1513   1.948   .     S
Cu1486 O1514   1.948   .     S
Cu1486 N1512   2.049   .     S
Cu1486 O1518   1.926   .     S
Cu1486 O1516   1.948   .     S
Cu1486 O1520   1.926   .     S
H1500  C107    1.082   1_556 S
H1501  C108    1.080   1_556 S
H1508  C89     1.080   1_556 S
H1509  C90     1.082   1_556 S
C1521  O1592   1.303   .     A
C1521  O1589   1.303   .     A
C1521  C1524   1.438   .     S
C1522  H1581   1.083   .     S
C1522  C1524   1.397   .     A
C1523  C1532   1.438   .     S
C1523  C1559   1.396   .     A
C1523  C1560   1.397   .     A
C1524  C1558   1.396   .     A
C1525  N1588   1.378   .     A
C1525  C1529   1.481   .     S
C1525  C1984   1.434   1_545 S
C1526  N1587   1.378   .     A
C1526  C1536   1.481   .     S
C1526  C1755   1.434   .     S
C1527  N1588   1.378   .     A
C1527  C1542   1.481   .     S
C1527  C1982   1.434   1_545 S
C1528  C1549   1.481   .     S
C1528  N1587   1.378   .     A
C1528  C1753   1.434   .     S
C1529  C1530   1.405   .     A
C1529  C1535   1.404   .     A
C1530  H1582   1.083   .     S
C1530  C1531   1.398   .     A
C1531  H1583   1.082   .     S
C1531  C1533   1.398   .     A
C1532  O1591   1.303   .     A
C1532  O1590   1.303   .     A
C1533  C1534   1.394   .     A
C1534  C1535   1.397   .     A
C1535  H1586   1.080   .     S
C1536  C1541   1.405   .     A
C1536  C1537   1.404   .     A
C1537  C1538   1.397   .     A
C1537  H1564   1.080   .     S
C1538  C1539   1.394   .     A
C1538  H197    1.082   1_556 S
C1539  C1540   1.398   .     A
C1539  H198    1.080   1_556 S
C1540  H1567   1.082   .     S
C1540  C1541   1.398   .     A
C1541  H1568   1.083   .     S
C1542  C1548   1.404   .     A
C1542  C1544   1.405   .     A
C1543  O1596   1.301   .     A
C1543  O1593   1.302   .     A
C1543  C1556   1.406   .     S
C1544  C1545   1.398   .     A
C1544  H1569   1.083   .     S
C1545  H1570   1.082   .     S
C1545  C1546   1.398   .     A
C1546  C1547   1.394   .     A
C1546  H203    1.080   1_556 S
C1547  C1548   1.397   .     A
C1547  H204    1.082   1_556 S
C1548  H1573   1.080   .     S
C1549  C1550   1.404   .     A
C1549  C1555   1.405   .     A
C1550  C1551   1.397   .     A
C1550  H1575   1.080   .     S
C1551  C1552   1.394   .     A
C1552  C1553   1.398   .     A
C1553  H1578   1.082   .     S
C1553  C1555   1.398   .     A
C1554  C1557   1.406   .     S
C1554  O1595   1.301   .     A
C1554  O1594   1.302   .     A
C1555  H1579   1.083   .     S
C1557  C188    1.189   1_556 S
C1558  H1563   1.084   .     S
C1559  H1574   1.084   .     S
C1559  C1370   1.389   1_655 S
C1560  H1580   1.083   .     S
C1560  C1406   1.389   1_655 S
Cu1561 Cu1562  2.726   .     S
Cu1561 N1587   2.049   .     S
Cu1561 O1591   1.948   .     S
Cu1561 O1593   1.926   .     S
Cu1561 O1595   1.926   .     S
Cu1561 O1589   1.948   .     S
Cu1562 O1590   1.948   .     S
Cu1562 N1588   2.049   .     S
Cu1562 O1594   1.926   .     S
Cu1562 O1592   1.948   .     S
Cu1562 O1596   1.926   .     S
H1576  C183    1.082   1_556 S
H1577  C184    1.080   1_556 S
H1584  C165    1.080   1_556 S
H1585  C166    1.082   1_556 S
C1597  O1668   1.303   .     A
C1597  O1665   1.303   .     A
C1597  C1600   1.438   .     S
C1598  H1657   1.083   .     S
C1598  C1600   1.397   .     A
C1598  C1787   1.389   1_455 S
C1599  C1608   1.438   .     S
C1599  C1635   1.396   .     A
C1599  C1636   1.397   .     A
C1600  C1634   1.396   .     A
C1601  N1664   1.378   .     A
C1601  C1605   1.481   .     S
C1602  N1663   1.378   .     A
C1602  C1612   1.481   .     S
C1602  C1831   1.434   .     S
C1603  N1664   1.378   .     A
C1603  C1618   1.481   .     S
C1604  C1625   1.481   .     S
C1604  N1663   1.378   .     A
C1604  C1829   1.434   .     S
C1605  C1606   1.405   .     A
C1605  C1611   1.404   .     A
C1606  H1658   1.083   .     S
C1606  C1607   1.398   .     A
C1607  H1659   1.082   .     S
C1607  C1609   1.398   .     A
C1608  O1667   1.303   .     A
C1608  O1666   1.303   .     A
C1609  C1610   1.394   .     A
C1610  C1611   1.397   .     A
C1611  H1662   1.080   .     S
C1612  C1617   1.405   .     A
C1612  C1613   1.404   .     A
C1613  C1614   1.397   .     A
C1613  H1640   1.080   .     S
C1614  C1615   1.394   .     A
C1614  H273    1.082   1_556 S
C1615  C1616   1.398   .     A
C1615  H274    1.080   1_556 S
C1616  H1643   1.082   .     S
C1616  C1617   1.398   .     A
C1617  H1644   1.083   .     S
C1618  C1624   1.404   .     A
C1618  C1620   1.405   .     A
C1619  O1672   1.301   .     A
C1619  O1669   1.302   .     A
C1619  C1632   1.406   .     S
C1620  C1621   1.398   .     A
C1620  H1645   1.083   .     S
C1621  H1646   1.082   .     S
C1621  C1622   1.398   .     A
C1622  C1623   1.394   .     A
C1622  H279    1.080   1_556 S
C1623  C1624   1.397   .     A
C1623  H280    1.082   1_556 S
C1624  H1649   1.080   .     S
C1625  C1626   1.404   .     A
C1625  C1631   1.405   .     A
C1626  C1627   1.397   .     A
C1626  H1651   1.080   .     S
C1627  C1628   1.394   .     A
C1628  C1629   1.398   .     A
C1629  H1654   1.082   .     S
C1629  C1631   1.398   .     A
C1630  C1633   1.406   .     S
C1630  O1671   1.301   .     A
C1630  O1670   1.302   .     A
C1631  H1655   1.083   .     S
C1633  C264    1.189   1_556 S
C1634  H1639   1.084   .     S
C1634  C1788   1.389   1_455 S
C1635  H1650   1.084   .     S
C1635  C1674   1.389   .     S
C1636  H1656   1.083   .     S
C1636  C1710   1.389   .     S
Cu1637 Cu1638  2.726   .     S
Cu1637 N1663   2.049   .     S
Cu1637 O1667   1.948   .     S
Cu1637 O1669   1.926   .     S
Cu1637 O1671   1.926   .     S
Cu1637 O1665   1.948   .     S
Cu1638 O1666   1.948   .     S
Cu1638 N1664   2.049   .     S
Cu1638 O1670   1.926   .     S
Cu1638 O1668   1.948   .     S
Cu1638 O1672   1.926   .     S
H1652  C259    1.082   1_556 S
H1653  C260    1.080   1_556 S
H1660  C241    1.080   1_556 S
H1661  C242    1.082   1_556 S
C1673  O1744   1.303   .     A
C1673  O1741   1.303   .     A
C1673  C1676   1.438   .     S
C1674  H1733   1.083   .     S
C1674  C1676   1.397   .     A
C1675  C1684   1.438   .     S
C1675  C1711   1.396   .     A
C1675  C1712   1.397   .     A
C1676  C1710   1.396   .     A
C1677  N1740   1.378   .     A
C1677  C1681   1.481   .     S
C1678  N1739   1.378   .     A
C1678  C1688   1.481   .     S
C1678  C1907   1.434   .     S
C1679  N1740   1.378   .     A
C1679  C1694   1.481   .     S
C1680  C1701   1.481   .     S
C1680  N1739   1.378   .     A
C1680  C1905   1.434   .     S
C1681  C1682   1.405   .     A
C1681  C1687   1.404   .     A
C1682  H1734   1.083   .     S
C1682  C1683   1.398   .     A
C1683  H1735   1.082   .     S
C1683  C1685   1.398   .     A
C1684  O1743   1.303   .     A
C1684  O1742   1.303   .     A
C1685  C1686   1.394   .     A
C1686  C1687   1.397   .     A
C1687  H1738   1.080   .     S
C1688  C1693   1.405   .     A
C1688  C1689   1.404   .     A
C1689  C1690   1.397   .     A
C1689  H1716   1.080   .     S
C1690  C1691   1.394   .     A
C1690  H349    1.082   1_556 S
C1691  C1692   1.398   .     A
C1691  H350    1.080   1_556 S
C1692  H1719   1.082   .     S
C1692  C1693   1.398   .     A
C1693  H1720   1.083   .     S
C1694  C1700   1.404   .     A
C1694  C1696   1.405   .     A
C1695  O1748   1.301   .     A
C1695  O1745   1.302   .     A
C1695  C1708   1.406   .     S
C1696  C1697   1.398   .     A
C1696  H1721   1.083   .     S
C1697  H1722   1.082   .     S
C1697  C1698   1.398   .     A
C1698  C1699   1.394   .     A
C1698  H355    1.080   1_556 S
C1699  C1700   1.397   .     A
C1699  H356    1.082   1_556 S
C1700  H1725   1.080   .     S
C1701  C1702   1.404   .     A
C1701  C1707   1.405   .     A
C1702  C1703   1.397   .     A
C1702  H1727   1.080   .     S
C1703  C1704   1.394   .     A
C1704  C1705   1.398   .     A
C1705  H1730   1.082   .     S
C1705  C1707   1.398   .     A
C1706  C1709   1.406   .     S
C1706  O1747   1.301   .     A
C1706  O1746   1.302   .     A
C1707  H1731   1.083   .     S
C1709  C340    1.189   1_556 S
C1710  H1715   1.084   .     S
C1711  H1726   1.084   .     S
C1711  C1750   1.389   .     S
C1712  H1732   1.083   .     S
C1712  C1786   1.389   .     S
Cu1713 Cu1714  2.726   .     S
Cu1713 N1739   2.049   .     S
Cu1713 O1743   1.948   .     S
Cu1713 O1745   1.926   .     S
Cu1713 O1747   1.926   .     S
Cu1713 O1741   1.948   .     S
Cu1714 O1742   1.948   .     S
Cu1714 N1740   2.049   .     S
Cu1714 O1746   1.926   .     S
Cu1714 O1744   1.948   .     S
Cu1714 O1748   1.926   .     S
H1728  C335    1.082   1_556 S
H1729  C336    1.080   1_556 S
H1736  C317    1.080   1_556 S
H1737  C318    1.082   1_556 S
C1749  O1820   1.303   .     A
C1749  O1817   1.303   .     A
C1749  C1752   1.438   .     S
C1750  H1809   1.083   .     S
C1750  C1752   1.397   .     A
C1751  C1760   1.438   .     S
C1751  C1787   1.396   .     A
C1751  C1788   1.397   .     A
C1752  C1786   1.396   .     A
C1753  N1816   1.378   .     A
C1753  C1757   1.481   .     S
C1754  N1815   1.378   .     A
C1754  C1764   1.481   .     S
C1754  C1983   1.434   .     S
C1755  N1816   1.378   .     A
C1755  C1770   1.481   .     S
C1756  C1777   1.481   .     S
C1756  N1815   1.378   .     A
C1756  C1981   1.434   .     S
C1757  C1758   1.405   .     A
C1757  C1763   1.404   .     A
C1758  H1810   1.083   .     S
C1758  C1759   1.398   .     A
C1759  H1811   1.082   .     S
C1759  C1761   1.398   .     A
C1760  O1819   1.303   .     A
C1760  O1818   1.303   .     A
C1761  C1762   1.394   .     A
C1762  C1763   1.397   .     A
C1763  H1814   1.080   .     S
C1764  C1769   1.405   .     A
C1764  C1765   1.404   .     A
C1765  C1766   1.397   .     A
C1765  H1792   1.080   .     S
C1766  C1767   1.394   .     A
C1766  H425    1.082   1_556 S
C1767  C1768   1.398   .     A
C1767  H426    1.080   1_556 S
C1768  H1795   1.082   .     S
C1768  C1769   1.398   .     A
C1769  H1796   1.083   .     S
C1770  C1776   1.404   .     A
C1770  C1772   1.405   .     A
C1771  O1824   1.301   .     A
C1771  O1821   1.302   .     A
C1771  C1784   1.406   .     S
C1772  C1773   1.398   .     A
C1772  H1797   1.083   .     S
C1773  H1798   1.082   .     S
C1773  C1774   1.398   .     A
C1774  C1775   1.394   .     A
C1774  H431    1.080   1_556 S
C1775  C1776   1.397   .     A
C1775  H432    1.082   1_556 S
C1776  H1801   1.080   .     S
C1777  C1778   1.404   .     A
C1777  C1783   1.405   .     A
C1778  C1779   1.397   .     A
C1778  H1803   1.080   .     S
C1779  C1780   1.394   .     A
C1780  C1781   1.398   .     A
C1781  H1806   1.082   .     S
C1781  C1783   1.398   .     A
C1782  C1785   1.406   .     S
C1782  O1823   1.301   .     A
C1782  O1822   1.302   .     A
C1783  H1807   1.083   .     S
C1785  C416    1.189   1_556 S
C1786  H1791   1.084   .     S
C1787  H1802   1.084   .     S
C1787  C1598   1.389   1_655 S
C1788  H1808   1.083   .     S
C1788  C1634   1.389   1_655 S
Cu1789 Cu1790  2.726   .     S
Cu1789 N1815   2.049   .     S
Cu1789 O1819   1.948   .     S
Cu1789 O1821   1.926   .     S
Cu1789 O1823   1.926   .     S
Cu1789 O1817   1.948   .     S
Cu1790 O1818   1.948   .     S
Cu1790 N1816   2.049   .     S
Cu1790 O1822   1.926   .     S
Cu1790 O1820   1.948   .     S
Cu1790 O1824   1.926   .     S
H1804  C411    1.082   1_556 S
H1805  C412    1.080   1_556 S
H1812  C393    1.080   1_556 S
H1813  C394    1.082   1_556 S
C1825  O1896   1.303   .     A
C1825  O1893   1.303   .     A
C1825  C1828   1.438   .     S
C1826  H1885   1.083   .     S
C1826  C1828   1.397   .     A
C1826  C2015   1.389   1_455 S
C1827  C1836   1.438   .     S
C1827  C1863   1.396   .     A
C1827  C1864   1.397   .     A
C1828  C1862   1.396   .     A
C1829  N1892   1.378   .     A
C1829  C1833   1.481   .     S
C1830  N1891   1.378   .     A
C1830  C1840   1.481   .     S
C1830  C1375   1.434   1_565 S
C1831  N1892   1.378   .     A
C1831  C1846   1.481   .     S
C1832  C1853   1.481   .     S
C1832  N1891   1.378   .     A
C1832  C1373   1.434   1_565 S
C1833  C1834   1.405   .     A
C1833  C1839   1.404   .     A
C1834  H1886   1.083   .     S
C1834  C1835   1.398   .     A
C1835  H1887   1.082   .     S
C1835  C1837   1.398   .     A
C1836  O1895   1.303   .     A
C1836  O1894   1.303   .     A
C1837  C1838   1.394   .     A
C1838  C1839   1.397   .     A
C1839  H1890   1.080   .     S
C1840  C1845   1.405   .     A
C1840  C1841   1.404   .     A
C1841  C1842   1.397   .     A
C1841  H1868   1.080   .     S
C1842  C1843   1.394   .     A
C1842  H501    1.082   1_556 S
C1843  C1844   1.398   .     A
C1843  H502    1.080   1_556 S
C1844  H1871   1.082   .     S
C1844  C1845   1.398   .     A
C1845  H1872   1.083   .     S
C1846  C1852   1.404   .     A
C1846  C1848   1.405   .     A
C1847  O1900   1.301   .     A
C1847  O1897   1.302   .     A
C1847  C1860   1.406   .     S
C1848  C1849   1.398   .     A
C1848  H1873   1.083   .     S
C1849  H1874   1.082   .     S
C1849  C1850   1.398   .     A
C1850  C1851   1.394   .     A
C1850  H507    1.080   1_556 S
C1851  C1852   1.397   .     A
C1851  H508    1.082   1_556 S
C1852  H1877   1.080   .     S
C1853  C1854   1.404   .     A
C1853  C1859   1.405   .     A
C1854  C1855   1.397   .     A
C1854  H1879   1.080   .     S
C1855  C1856   1.394   .     A
C1856  C1857   1.398   .     A
C1857  H1882   1.082   .     S
C1857  C1859   1.398   .     A
C1858  C1861   1.406   .     S
C1858  O1899   1.301   .     A
C1858  O1898   1.302   .     A
C1859  H1883   1.083   .     S
C1861  C492    1.189   1_556 S
C1862  H1867   1.084   .     S
C1862  C2016   1.389   1_455 S
C1863  H1878   1.084   .     S
C1863  C1902   1.389   .     S
C1864  H1884   1.083   .     S
C1864  C1938   1.389   .     S
Cu1865 Cu1866  2.726   .     S
Cu1865 N1891   2.049   .     S
Cu1865 O1895   1.948   .     S
Cu1865 O1897   1.926   .     S
Cu1865 O1899   1.926   .     S
Cu1865 O1893   1.948   .     S
Cu1866 O1894   1.948   .     S
Cu1866 N1892   2.049   .     S
Cu1866 O1898   1.926   .     S
Cu1866 O1896   1.948   .     S
Cu1866 O1900   1.926   .     S
H1880  C487    1.082   1_556 S
H1881  C488    1.080   1_556 S
H1888  C469    1.080   1_556 S
H1889  C470    1.082   1_556 S
C1901  O1972   1.303   .     A
C1901  O1969   1.303   .     A
C1901  C1904   1.438   .     S
C1902  H1961   1.083   .     S
C1902  C1904   1.397   .     A
C1903  C1912   1.438   .     S
C1903  C1939   1.396   .     A
C1903  C1940   1.397   .     A
C1904  C1938   1.396   .     A
C1905  N1968   1.378   .     A
C1905  C1909   1.481   .     S
C1906  N1967   1.378   .     A
C1906  C1916   1.481   .     S
C1906  C1451   1.434   1_565 S
C1907  N1968   1.378   .     A
C1907  C1922   1.481   .     S
C1908  C1929   1.481   .     S
C1908  N1967   1.378   .     A
C1908  C1449   1.434   1_565 S
C1909  C1910   1.405   .     A
C1909  C1915   1.404   .     A
C1910  H1962   1.083   .     S
C1910  C1911   1.398   .     A
C1911  H1963   1.082   .     S
C1911  C1913   1.398   .     A
C1912  O1971   1.303   .     A
C1912  O1970   1.303   .     A
C1913  C1914   1.394   .     A
C1914  C1915   1.397   .     A
C1915  H1966   1.080   .     S
C1916  C1921   1.405   .     A
C1916  C1917   1.404   .     A
C1917  C1918   1.397   .     A
C1917  H1944   1.080   .     S
C1918  C1919   1.394   .     A
C1918  H577    1.082   1_556 S
C1919  C1920   1.398   .     A
C1919  H578    1.080   1_556 S
C1920  H1947   1.082   .     S
C1920  C1921   1.398   .     A
C1921  H1948   1.083   .     S
C1922  C1928   1.404   .     A
C1922  C1924   1.405   .     A
C1923  O1976   1.301   .     A
C1923  O1973   1.302   .     A
C1923  C1936   1.406   .     S
C1924  C1925   1.398   .     A
C1924  H1949   1.083   .     S
C1925  H1950   1.082   .     S
C1925  C1926   1.398   .     A
C1926  C1927   1.394   .     A
C1926  H583    1.080   1_556 S
C1927  C1928   1.397   .     A
C1927  H584    1.082   1_556 S
C1928  H1953   1.080   .     S
C1929  C1930   1.404   .     A
C1929  C1935   1.405   .     A
C1930  C1931   1.397   .     A
C1930  H1955   1.080   .     S
C1931  C1932   1.394   .     A
C1932  C1933   1.398   .     A
C1933  H1958   1.082   .     S
C1933  C1935   1.398   .     A
C1934  C1937   1.406   .     S
C1934  O1975   1.301   .     A
C1934  O1974   1.302   .     A
C1935  H1959   1.083   .     S
C1937  C568    1.189   1_556 S
C1938  H1943   1.084   .     S
C1939  H1954   1.084   .     S
C1939  C1978   1.389   .     S
C1940  H1960   1.083   .     S
C1940  C2014   1.389   .     S
Cu1941 Cu1942  2.726   .     S
Cu1941 N1967   2.049   .     S
Cu1941 O1971   1.948   .     S
Cu1941 O1973   1.926   .     S
Cu1941 O1975   1.926   .     S
Cu1941 O1969   1.948   .     S
Cu1942 O1970   1.948   .     S
Cu1942 N1968   2.049   .     S
Cu1942 O1974   1.926   .     S
Cu1942 O1972   1.948   .     S
Cu1942 O1976   1.926   .     S
H1956  C563    1.082   1_556 S
H1957  C564    1.080   1_556 S
H1964  C545    1.080   1_556 S
H1965  C546    1.082   1_556 S
C1977  O2048   1.303   .     A
C1977  O2045   1.303   .     A
C1977  C1980   1.438   .     S
C1978  H2037   1.083   .     S
C1978  C1980   1.397   .     A
C1979  C1988   1.438   .     S
C1979  C2015   1.396   .     A
C1979  C2016   1.397   .     A
C1980  C2014   1.396   .     A
C1981  N2044   1.378   .     A
C1981  C1985   1.481   .     S
C1982  N2043   1.378   .     A
C1982  C1992   1.481   .     S
C1982  C1527   1.434   1_565 S
C1983  N2044   1.378   .     A
C1983  C1998   1.481   .     S
C1984  C2005   1.481   .     S
C1984  N2043   1.378   .     A
C1984  C1525   1.434   1_565 S
C1985  C1986   1.405   .     A
C1985  C1991   1.404   .     A
C1986  H2038   1.083   .     S
C1986  C1987   1.398   .     A
C1987  H2039   1.082   .     S
C1987  C1989   1.398   .     A
C1988  O2047   1.303   .     A
C1988  O2046   1.303   .     A
C1989  C1990   1.394   .     A
C1990  C1991   1.397   .     A
C1991  H2042   1.080   .     S
C1992  C1997   1.405   .     A
C1992  C1993   1.404   .     A
C1993  C1994   1.397   .     A
C1993  H2020   1.080   .     S
C1994  C1995   1.394   .     A
C1994  H653    1.082   1_556 S
C1995  C1996   1.398   .     A
C1995  H654    1.080   1_556 S
C1996  H2023   1.082   .     S
C1996  C1997   1.398   .     A
C1997  H2024   1.083   .     S
C1998  C2004   1.404   .     A
C1998  C2000   1.405   .     A
C1999  O2052   1.301   .     A
C1999  O2049   1.302   .     A
C1999  C2012   1.406   .     S
C2000  C2001   1.398   .     A
C2000  H2025   1.083   .     S
C2001  H2026   1.082   .     S
C2001  C2002   1.398   .     A
C2002  C2003   1.394   .     A
C2002  H659    1.080   1_556 S
C2003  C2004   1.397   .     A
C2003  H660    1.082   1_556 S
C2004  H2029   1.080   .     S
C2005  C2006   1.404   .     A
C2005  C2011   1.405   .     A
C2006  C2007   1.397   .     A
C2006  H2031   1.080   .     S
C2007  C2008   1.394   .     A
C2008  C2009   1.398   .     A
C2009  H2034   1.082   .     S
C2009  C2011   1.398   .     A
C2010  C2013   1.406   .     S
C2010  O2051   1.301   .     A
C2010  O2050   1.302   .     A
C2011  H2035   1.083   .     S
C2013  C644    1.189   1_556 S
C2014  H2019   1.084   .     S
C2015  H2030   1.084   .     S
C2015  C1826   1.389   1_655 S
C2016  H2036   1.083   .     S
C2016  C1862   1.389   1_655 S
Cu2017 Cu2018  2.726   .     S
Cu2017 N2043   2.049   .     S
Cu2017 O2047   1.948   .     S
Cu2017 O2049   1.926   .     S
Cu2017 O2051   1.926   .     S
Cu2017 O2045   1.948   .     S
Cu2018 O2046   1.948   .     S
Cu2018 N2044   2.049   .     S
Cu2018 O2050   1.926   .     S
Cu2018 O2048   1.948   .     S
Cu2018 O2052   1.926   .     S
H2032  C639    1.082   1_556 S
H2033  C640    1.080   1_556 S
H2040  C621    1.080   1_556 S
H2041  C622    1.082   1_556 S
