data_str_m2_o1_o17_pcu_sym.181
_audit_creation_date              2020-01-03
_audit_creation_method            'Materials Studio'
_symmetry_space_group_name_H-M    'P1'
_symmetry_Int_Tables_number       1
_symmetry_cell_setting            triclinic
loop_
_symmetry_equiv_pos_as_xyz
  x,y,z
_cell_length_a                    33.0163
_cell_length_b                    28.8784
_cell_length_c                    30.2040
_cell_angle_alpha                 88.3362
_cell_angle_beta                  94.0084
_cell_angle_gamma                 88.5012
loop_
_atom_site_label
_atom_site_type_symbol
_atom_site_fract_x
_atom_site_fract_y
_atom_site_fract_z
_atom_site_U_iso_or_equiv
_atom_site_adp_type
_atom_site_occupancy
O1     O     0.10655   0.20625   0.24999   0.00000  Uiso   1.00
O2     O     0.22679   0.12709   0.25000   0.00000  Uiso   1.00
O3     O     0.22679   0.20625   0.25000   0.00000  Uiso   1.00
O4     O     0.10655   0.12709   0.24999   0.00000  Uiso   1.00
C5     C     0.08750   0.16724   0.25079   0.00000  Uiso   1.00
C6     C     0.24583   0.16609   0.24921   0.00000  Uiso   1.00
O7     O     0.16666   0.20627   0.18513   0.00000  Uiso   1.00
O8     O     0.16668   0.12707   0.31487   0.00000  Uiso   1.00
O9     O     0.16668   0.20627   0.31487   0.00000  Uiso   1.00
O10    O     0.16666   0.12707   0.18513   0.00000  Uiso   1.00
C11    C     0.16608   0.16715   0.16468   0.00000  Uiso   1.00
C12    C     0.16725   0.16618   0.33532   0.00000  Uiso   1.00
Cu13   Cu    0.16667   0.21355   0.25000   0.00000  Uiso   1.00
Cu14   Cu    0.16667   0.11978   0.25000   0.00000  Uiso   1.00
C15    C     0.20218   0.15133   0.40960   0.00000  Uiso   1.00
C16    C     0.13115   0.18200   0.09040   0.00000  Uiso   1.00
C17    C     0.16686   0.16553   0.38361   0.00000  Uiso   1.00
C18    C     0.16647   0.16780   0.11639   0.00000  Uiso   1.00
C19    C     0.13127   0.17997   0.40306   0.00000  Uiso   1.00
C20    C     0.20206   0.15336   0.09693   0.00000  Uiso   1.00
C21    C     0.13248   0.18549   0.44967   0.00000  Uiso   1.00
C22    C     0.20084   0.14784   0.05033   0.00000  Uiso   1.00
C23    C     0.16663   0.16675   0.47645   0.00000  Uiso   1.00
C24    C     0.16670   0.16657   0.02355   0.00000  Uiso   1.00
C25    C     0.20111   0.14899   0.45631   0.00000  Uiso   1.00
C26    C     0.13222   0.18434   0.04369   0.00000  Uiso   1.00
C27    C     0.10082   0.20846   0.47080   0.00000  Uiso   1.00
C28    C     0.23250   0.12486   0.02920   0.00000  Uiso   1.00
C29    C     0.09980   0.20438   0.01668   0.00000  Uiso   1.00
C30    C     0.23352   0.12894   0.48332   0.00000  Uiso   1.00
H31    H     0.07357   0.21928   0.03072   0.00000  Uiso   1.00
H32    H     0.25975   0.11403   0.46928   0.00000  Uiso   1.00
C33    C     0.02364   0.12820   0.26855   0.00000  Uiso   1.00
C34    C     0.30969   0.20513   0.23145   0.00000  Uiso   1.00
C35    C     0.31439   0.12633   0.26497   0.00000  Uiso   1.00
C36    C     0.01894   0.20701   0.23503   0.00000  Uiso   1.00
C37    C     0.29052   0.16515   0.24739   0.00000  Uiso   1.00
C38    C     0.04281   0.16818   0.25261   0.00000  Uiso   1.00
C39    C     0.14067   0.02633   0.22102   0.00000  Uiso   1.00
C40    C     0.19267   0.30701   0.27898   0.00000  Uiso   1.00
C41    C     0.19051   0.02309   0.28083   0.00000  Uiso   1.00
C42    C     0.14282   0.31025   0.21917   0.00000  Uiso   1.00
N43    N     0.16667   0.28402   0.25000   0.00000  Uiso   1.00
N44    N     0.16667   0.04931   0.25000   0.00000  Uiso   1.00
C45    C     0.23979   0.14077   0.38663   0.00000  Uiso   1.00
H46    H     0.24867   0.16434   0.36061   0.00000  Uiso   1.00
O47    O     0.25948   0.10473   0.39418   0.00000  Uiso   1.00
C48    C     0.09354   0.19257   0.11337   0.00000  Uiso   1.00
H49    H     0.08466   0.16900   0.13939   0.00000  Uiso   1.00
O50    O     0.07385   0.22861   0.10582   0.00000  Uiso   1.00
C51    C     0.09151   0.18317   0.37443   0.00000  Uiso   1.00
H52    H     0.09259   0.16209   0.34463   0.00000  Uiso   1.00
H53    H     0.06659   0.16825   0.39254   0.00000  Uiso   1.00
H54    H     0.08429   0.21932   0.36259   0.00000  Uiso   1.00
C55    C     0.24182   0.15016   0.12557   0.00000  Uiso   1.00
H56    H     0.24075   0.17126   0.15535   0.00000  Uiso   1.00
H57    H     0.24903   0.11401   0.13742   0.00000  Uiso   1.00
H58    H     0.26674   0.16506   0.10745   0.00000  Uiso   1.00
C59    C     0.07086   0.24315   0.44731   0.00000  Uiso   1.00
H60    H     0.08594   0.26413   0.42223   0.00000  Uiso   1.00
H61    H     0.04393   0.22575   0.43237   0.00000  Uiso   1.00
H62    H     0.05941   0.26855   0.47076   0.00000  Uiso   1.00
C63    C     0.26245   0.09016   0.05269   0.00000  Uiso   1.00
H64    H     0.24737   0.06920   0.07778   0.00000  Uiso   1.00
H65    H     0.27388   0.06475   0.02924   0.00000  Uiso   1.00
H66    H     0.28940   0.10755   0.06762   0.00000  Uiso   1.00
C67    C     0.04806   0.08828   0.29019   0.00000  Uiso   1.00
H68    H     0.07237   0.09428   0.31515   0.00000  Uiso   1.00
O69    O     0.04208   0.04854   0.27918   0.00000  Uiso   1.00
C70    C     0.28528   0.24505   0.20981   0.00000  Uiso   1.00
H71    H     0.26096   0.23906   0.18485   0.00000  Uiso   1.00
O72    O     0.29126   0.28480   0.22083   0.00000  Uiso   1.00
C73    C     0.29552   0.08345   0.28086   0.00000  Uiso   1.00
H74    H     0.27630   0.06375   0.25816   0.00000  Uiso   1.00
O75    O     0.30232   0.06923   0.31920   0.00000  Uiso   1.00
C76    C     0.03782   0.24989   0.21914   0.00000  Uiso   1.00
H77    H     0.05704   0.26958   0.24184   0.00000  Uiso   1.00
O78    O     0.03101   0.26410   0.18079   0.00000  Uiso   1.00
C79    C     0.10667   0.05175   0.19493   0.00000  Uiso   1.00
H80    H     0.10993   0.08530   0.17967   0.00000  Uiso   1.00
O81    O     0.07309   0.03496   0.19070   0.00000  Uiso   1.00
C82    C     0.22666   0.28159   0.30507   0.00000  Uiso   1.00
H83    H     0.22341   0.24804   0.32033   0.00000  Uiso   1.00
O84    O     0.26024   0.29837   0.30930   0.00000  Uiso   1.00
C85    C     0.21075   0.04567   0.31927   0.00000  Uiso   1.00
H86    H     0.22456   0.07858   0.31537   0.00000  Uiso   1.00
O87    O     0.21114   0.02790   0.35650   0.00000  Uiso   1.00
C88    C     0.12258   0.28767   0.18073   0.00000  Uiso   1.00
H89    H     0.10877   0.25475   0.18463   0.00000  Uiso   1.00
O90    O     0.12219   0.30543   0.14350   0.00000  Uiso   1.00
O91    O     0.43988   0.20625   0.24999   0.00000  Uiso   1.00
O92    O     0.56012   0.12709   0.25000   0.00000  Uiso   1.00
O93    O     0.56012   0.20625   0.25000   0.00000  Uiso   1.00
O94    O     0.43988   0.12709   0.24999   0.00000  Uiso   1.00
C95    C     0.42084   0.16724   0.25079   0.00000  Uiso   1.00
C96    C     0.57916   0.16609   0.24921   0.00000  Uiso   1.00
O97    O     0.49999   0.20627   0.18513   0.00000  Uiso   1.00
O98    O     0.50001   0.12707   0.31487   0.00000  Uiso   1.00
O99    O     0.50001   0.20627   0.31487   0.00000  Uiso   1.00
O100   O     0.49999   0.12707   0.18513   0.00000  Uiso   1.00
C101   C     0.49942   0.16715   0.16468   0.00000  Uiso   1.00
C102   C     0.50058   0.16618   0.33532   0.00000  Uiso   1.00
Cu103  Cu    0.50000   0.21355   0.25000   0.00000  Uiso   1.00
Cu104  Cu    0.50000   0.11978   0.25000   0.00000  Uiso   1.00
C105   C     0.53551   0.15133   0.40960   0.00000  Uiso   1.00
C106   C     0.46448   0.18200   0.09040   0.00000  Uiso   1.00
C107   C     0.50019   0.16553   0.38361   0.00000  Uiso   1.00
C108   C     0.49980   0.16780   0.11639   0.00000  Uiso   1.00
C109   C     0.46460   0.17997   0.40306   0.00000  Uiso   1.00
C110   C     0.53540   0.15336   0.09693   0.00000  Uiso   1.00
C111   C     0.46582   0.18549   0.44967   0.00000  Uiso   1.00
C112   C     0.53417   0.14784   0.05033   0.00000  Uiso   1.00
C113   C     0.49996   0.16675   0.47645   0.00000  Uiso   1.00
C114   C     0.50003   0.16657   0.02355   0.00000  Uiso   1.00
C115   C     0.53444   0.14899   0.45631   0.00000  Uiso   1.00
C116   C     0.46555   0.18434   0.04369   0.00000  Uiso   1.00
C117   C     0.43416   0.20846   0.47080   0.00000  Uiso   1.00
C118   C     0.56583   0.12486   0.02920   0.00000  Uiso   1.00
C119   C     0.43313   0.20438   0.01668   0.00000  Uiso   1.00
C120   C     0.56686   0.12894   0.48332   0.00000  Uiso   1.00
H121   H     0.40690   0.21928   0.03072   0.00000  Uiso   1.00
H122   H     0.59309   0.11403   0.46928   0.00000  Uiso   1.00
C123   C     0.35698   0.12820   0.26855   0.00000  Uiso   1.00
C124   C     0.64302   0.20513   0.23145   0.00000  Uiso   1.00
C125   C     0.64772   0.12633   0.26497   0.00000  Uiso   1.00
C126   C     0.35228   0.20701   0.23503   0.00000  Uiso   1.00
C127   C     0.62385   0.16515   0.24739   0.00000  Uiso   1.00
C128   C     0.37615   0.16818   0.25261   0.00000  Uiso   1.00
C129   C     0.47400   0.02633   0.22102   0.00000  Uiso   1.00
C130   C     0.52600   0.30701   0.27898   0.00000  Uiso   1.00
C131   C     0.52384   0.02309   0.28083   0.00000  Uiso   1.00
C132   C     0.47616   0.31025   0.21917   0.00000  Uiso   1.00
N133   N     0.50000   0.28402   0.25000   0.00000  Uiso   1.00
N134   N     0.50000   0.04931   0.25000   0.00000  Uiso   1.00
C135   C     0.57313   0.14077   0.38663   0.00000  Uiso   1.00
H136   H     0.58200   0.16434   0.36061   0.00000  Uiso   1.00
O137   O     0.59282   0.10473   0.39418   0.00000  Uiso   1.00
C138   C     0.42687   0.19257   0.11337   0.00000  Uiso   1.00
H139   H     0.41799   0.16900   0.13939   0.00000  Uiso   1.00
O140   O     0.40718   0.22861   0.10582   0.00000  Uiso   1.00
C141   C     0.42484   0.18317   0.37443   0.00000  Uiso   1.00
H142   H     0.42592   0.16209   0.34463   0.00000  Uiso   1.00
H143   H     0.39992   0.16825   0.39254   0.00000  Uiso   1.00
H144   H     0.41762   0.21932   0.36259   0.00000  Uiso   1.00
C145   C     0.57516   0.15016   0.12557   0.00000  Uiso   1.00
H146   H     0.57408   0.17126   0.15535   0.00000  Uiso   1.00
H147   H     0.58236   0.11401   0.13742   0.00000  Uiso   1.00
H148   H     0.60008   0.16506   0.10745   0.00000  Uiso   1.00
C149   C     0.40420   0.24315   0.44731   0.00000  Uiso   1.00
H150   H     0.41928   0.26413   0.42223   0.00000  Uiso   1.00
H151   H     0.37726   0.22575   0.43237   0.00000  Uiso   1.00
H152   H     0.39275   0.26855   0.47076   0.00000  Uiso   1.00
C153   C     0.59579   0.09016   0.05269   0.00000  Uiso   1.00
H154   H     0.58071   0.06920   0.07778   0.00000  Uiso   1.00
H155   H     0.60721   0.06475   0.02924   0.00000  Uiso   1.00
H156   H     0.62273   0.10755   0.06762   0.00000  Uiso   1.00
C157   C     0.38139   0.08828   0.29019   0.00000  Uiso   1.00
H158   H     0.40570   0.09428   0.31515   0.00000  Uiso   1.00
O159   O     0.37541   0.04854   0.27918   0.00000  Uiso   1.00
C160   C     0.61861   0.24505   0.20981   0.00000  Uiso   1.00
H161   H     0.59430   0.23906   0.18485   0.00000  Uiso   1.00
O162   O     0.62459   0.28480   0.22083   0.00000  Uiso   1.00
C163   C     0.62885   0.08345   0.28086   0.00000  Uiso   1.00
H164   H     0.60963   0.06375   0.25816   0.00000  Uiso   1.00
O165   O     0.63565   0.06923   0.31920   0.00000  Uiso   1.00
C166   C     0.37115   0.24989   0.21914   0.00000  Uiso   1.00
H167   H     0.39037   0.26958   0.24184   0.00000  Uiso   1.00
O168   O     0.36435   0.26410   0.18079   0.00000  Uiso   1.00
C169   C     0.44000   0.05175   0.19493   0.00000  Uiso   1.00
H170   H     0.44326   0.08530   0.17967   0.00000  Uiso   1.00
O171   O     0.40643   0.03496   0.19070   0.00000  Uiso   1.00
C172   C     0.56000   0.28159   0.30507   0.00000  Uiso   1.00
H173   H     0.55674   0.24804   0.32033   0.00000  Uiso   1.00
O174   O     0.59357   0.29837   0.30930   0.00000  Uiso   1.00
C175   C     0.54408   0.04567   0.31927   0.00000  Uiso   1.00
H176   H     0.55790   0.07858   0.31537   0.00000  Uiso   1.00
O177   O     0.54447   0.02790   0.35650   0.00000  Uiso   1.00
C178   C     0.45592   0.28767   0.18073   0.00000  Uiso   1.00
H179   H     0.44210   0.25475   0.18463   0.00000  Uiso   1.00
O180   O     0.45553   0.30543   0.14350   0.00000  Uiso   1.00
O181   O     0.77321   0.20625   0.24999   0.00000  Uiso   1.00
O182   O     0.89345   0.12709   0.25000   0.00000  Uiso   1.00
O183   O     0.89345   0.20625   0.25000   0.00000  Uiso   1.00
O184   O     0.77321   0.12709   0.24999   0.00000  Uiso   1.00
C185   C     0.75417   0.16724   0.25079   0.00000  Uiso   1.00
C186   C     0.91250   0.16609   0.24921   0.00000  Uiso   1.00
O187   O     0.83332   0.20627   0.18513   0.00000  Uiso   1.00
O188   O     0.83334   0.12707   0.31487   0.00000  Uiso   1.00
O189   O     0.83334   0.20627   0.31487   0.00000  Uiso   1.00
O190   O     0.83332   0.12707   0.18513   0.00000  Uiso   1.00
C191   C     0.83275   0.16715   0.16468   0.00000  Uiso   1.00
C192   C     0.83391   0.16618   0.33532   0.00000  Uiso   1.00
Cu193  Cu    0.83333   0.21355   0.25000   0.00000  Uiso   1.00
Cu194  Cu    0.83333   0.11978   0.25000   0.00000  Uiso   1.00
C195   C     0.86885   0.15133   0.40960   0.00000  Uiso   1.00
C196   C     0.79782   0.18200   0.09040   0.00000  Uiso   1.00
C197   C     0.83353   0.16553   0.38361   0.00000  Uiso   1.00
C198   C     0.83314   0.16780   0.11639   0.00000  Uiso   1.00
C199   C     0.79793   0.17997   0.40306   0.00000  Uiso   1.00
C200   C     0.86873   0.15336   0.09693   0.00000  Uiso   1.00
C201   C     0.79915   0.18549   0.44967   0.00000  Uiso   1.00
C202   C     0.86751   0.14784   0.05033   0.00000  Uiso   1.00
C203   C     0.83330   0.16675   0.47645   0.00000  Uiso   1.00
C204   C     0.83336   0.16657   0.02355   0.00000  Uiso   1.00
C205   C     0.86777   0.14899   0.45631   0.00000  Uiso   1.00
C206   C     0.79889   0.18434   0.04369   0.00000  Uiso   1.00
C207   C     0.76749   0.20846   0.47080   0.00000  Uiso   1.00
C208   C     0.89917   0.12486   0.02920   0.00000  Uiso   1.00
C209   C     0.76647   0.20438   0.01668   0.00000  Uiso   1.00
C210   C     0.90019   0.12894   0.48332   0.00000  Uiso   1.00
H211   H     0.74024   0.21928   0.03072   0.00000  Uiso   1.00
H212   H     0.92642   0.11403   0.46928   0.00000  Uiso   1.00
C213   C     0.69031   0.12820   0.26855   0.00000  Uiso   1.00
C214   C     0.97636   0.20513   0.23145   0.00000  Uiso   1.00
C215   C     0.98106   0.12633   0.26497   0.00000  Uiso   1.00
C216   C     0.68561   0.20701   0.23503   0.00000  Uiso   1.00
C217   C     0.95719   0.16515   0.24739   0.00000  Uiso   1.00
C218   C     0.70948   0.16818   0.25261   0.00000  Uiso   1.00
C219   C     0.80733   0.02633   0.22102   0.00000  Uiso   1.00
C220   C     0.85933   0.30701   0.27898   0.00000  Uiso   1.00
C221   C     0.85718   0.02309   0.28083   0.00000  Uiso   1.00
C222   C     0.80949   0.31025   0.21917   0.00000  Uiso   1.00
N223   N     0.83333   0.28402   0.25000   0.00000  Uiso   1.00
N224   N     0.83333   0.04931   0.25000   0.00000  Uiso   1.00
C225   C     0.90646   0.14077   0.38663   0.00000  Uiso   1.00
H226   H     0.91534   0.16434   0.36061   0.00000  Uiso   1.00
O227   O     0.92615   0.10473   0.39418   0.00000  Uiso   1.00
C228   C     0.76021   0.19257   0.11337   0.00000  Uiso   1.00
H229   H     0.75133   0.16900   0.13939   0.00000  Uiso   1.00
O230   O     0.74052   0.22861   0.10582   0.00000  Uiso   1.00
C231   C     0.75817   0.18317   0.37443   0.00000  Uiso   1.00
H232   H     0.75925   0.16209   0.34463   0.00000  Uiso   1.00
H233   H     0.73326   0.16825   0.39254   0.00000  Uiso   1.00
H234   H     0.75096   0.21932   0.36259   0.00000  Uiso   1.00
C235   C     0.90849   0.15016   0.12557   0.00000  Uiso   1.00
H236   H     0.90742   0.17126   0.15535   0.00000  Uiso   1.00
H237   H     0.91570   0.11401   0.13742   0.00000  Uiso   1.00
H238   H     0.93341   0.16506   0.10745   0.00000  Uiso   1.00
C239   C     0.73753   0.24315   0.44731   0.00000  Uiso   1.00
H240   H     0.75261   0.26413   0.42223   0.00000  Uiso   1.00
H241   H     0.71059   0.22575   0.43237   0.00000  Uiso   1.00
H242   H     0.72608   0.26855   0.47076   0.00000  Uiso   1.00
C243   C     0.92912   0.09016   0.05269   0.00000  Uiso   1.00
H244   H     0.91404   0.06920   0.07778   0.00000  Uiso   1.00
H245   H     0.94055   0.06475   0.02924   0.00000  Uiso   1.00
H246   H     0.95607   0.10755   0.06762   0.00000  Uiso   1.00
C247   C     0.71472   0.08828   0.29019   0.00000  Uiso   1.00
H248   H     0.73903   0.09428   0.31515   0.00000  Uiso   1.00
O249   O     0.70875   0.04854   0.27918   0.00000  Uiso   1.00
C250   C     0.95194   0.24505   0.20981   0.00000  Uiso   1.00
H251   H     0.92763   0.23906   0.18485   0.00000  Uiso   1.00
O252   O     0.95792   0.28480   0.22083   0.00000  Uiso   1.00
C253   C     0.96218   0.08345   0.28086   0.00000  Uiso   1.00
H254   H     0.94296   0.06375   0.25816   0.00000  Uiso   1.00
O255   O     0.96899   0.06923   0.31920   0.00000  Uiso   1.00
C256   C     0.70448   0.24989   0.21914   0.00000  Uiso   1.00
H257   H     0.72370   0.26958   0.24184   0.00000  Uiso   1.00
O258   O     0.69768   0.26410   0.18079   0.00000  Uiso   1.00
C259   C     0.77334   0.05175   0.19493   0.00000  Uiso   1.00
H260   H     0.77659   0.08530   0.17967   0.00000  Uiso   1.00
O261   O     0.73976   0.03496   0.19070   0.00000  Uiso   1.00
C262   C     0.89333   0.28159   0.30507   0.00000  Uiso   1.00
H263   H     0.89007   0.24804   0.32033   0.00000  Uiso   1.00
O264   O     0.92691   0.29837   0.30930   0.00000  Uiso   1.00
C265   C     0.87742   0.04567   0.31927   0.00000  Uiso   1.00
H266   H     0.89123   0.07858   0.31537   0.00000  Uiso   1.00
O267   O     0.87781   0.02790   0.35650   0.00000  Uiso   1.00
C268   C     0.78925   0.28767   0.18073   0.00000  Uiso   1.00
H269   H     0.77544   0.25475   0.18463   0.00000  Uiso   1.00
O270   O     0.78886   0.30543   0.14350   0.00000  Uiso   1.00
O271   O     0.10655   0.53958   0.24999   0.00000  Uiso   1.00
O272   O     0.22679   0.46042   0.25000   0.00000  Uiso   1.00
O273   O     0.22679   0.53958   0.25000   0.00000  Uiso   1.00
O274   O     0.10655   0.46042   0.24999   0.00000  Uiso   1.00
C275   C     0.08750   0.50058   0.25079   0.00000  Uiso   1.00
C276   C     0.24583   0.49942   0.24921   0.00000  Uiso   1.00
O277   O     0.16666   0.53960   0.18513   0.00000  Uiso   1.00
O278   O     0.16668   0.46040   0.31487   0.00000  Uiso   1.00
O279   O     0.16668   0.53960   0.31487   0.00000  Uiso   1.00
O280   O     0.16666   0.46040   0.18513   0.00000  Uiso   1.00
C281   C     0.16608   0.50049   0.16468   0.00000  Uiso   1.00
C282   C     0.16725   0.49951   0.33532   0.00000  Uiso   1.00
Cu283  Cu    0.16667   0.54689   0.25000   0.00000  Uiso   1.00
Cu284  Cu    0.16667   0.45311   0.25000   0.00000  Uiso   1.00
C285   C     0.20218   0.48466   0.40960   0.00000  Uiso   1.00
C286   C     0.13115   0.51533   0.09040   0.00000  Uiso   1.00
C287   C     0.16686   0.49887   0.38361   0.00000  Uiso   1.00
C288   C     0.16647   0.50113   0.11639   0.00000  Uiso   1.00
C289   C     0.13127   0.51330   0.40306   0.00000  Uiso   1.00
C290   C     0.20206   0.48669   0.09693   0.00000  Uiso   1.00
C291   C     0.13248   0.51882   0.44967   0.00000  Uiso   1.00
C292   C     0.20084   0.48117   0.05033   0.00000  Uiso   1.00
C293   C     0.16663   0.50009   0.47645   0.00000  Uiso   1.00
C294   C     0.16670   0.49991   0.02355   0.00000  Uiso   1.00
C295   C     0.20111   0.48232   0.45631   0.00000  Uiso   1.00
C296   C     0.13222   0.51767   0.04369   0.00000  Uiso   1.00
C297   C     0.10082   0.54180   0.47080   0.00000  Uiso   1.00
C298   C     0.23250   0.45819   0.02920   0.00000  Uiso   1.00
C299   C     0.09980   0.53771   0.01668   0.00000  Uiso   1.00
C300   C     0.23352   0.46227   0.48332   0.00000  Uiso   1.00
H301   H     0.07357   0.55262   0.03072   0.00000  Uiso   1.00
H302   H     0.25975   0.44736   0.46928   0.00000  Uiso   1.00
C303   C     0.02364   0.46154   0.26855   0.00000  Uiso   1.00
C304   C     0.30969   0.53846   0.23145   0.00000  Uiso   1.00
C305   C     0.31439   0.45966   0.26497   0.00000  Uiso   1.00
C306   C     0.01894   0.54034   0.23503   0.00000  Uiso   1.00
C307   C     0.29052   0.49849   0.24739   0.00000  Uiso   1.00
C308   C     0.04281   0.50151   0.25261   0.00000  Uiso   1.00
C309   C     0.14067   0.35966   0.22102   0.00000  Uiso   1.00
C310   C     0.19267   0.64034   0.27898   0.00000  Uiso   1.00
C311   C     0.19051   0.35642   0.28083   0.00000  Uiso   1.00
C312   C     0.14282   0.64358   0.21917   0.00000  Uiso   1.00
N313   N     0.16667   0.61736   0.25000   0.00000  Uiso   1.00
N314   N     0.16667   0.38264   0.25000   0.00000  Uiso   1.00
C315   C     0.23979   0.47410   0.38663   0.00000  Uiso   1.00
H316   H     0.24867   0.49768   0.36061   0.00000  Uiso   1.00
O317   O     0.25948   0.43806   0.39418   0.00000  Uiso   1.00
C318   C     0.09354   0.52590   0.11337   0.00000  Uiso   1.00
H319   H     0.08466   0.50233   0.13939   0.00000  Uiso   1.00
O320   O     0.07385   0.56194   0.10582   0.00000  Uiso   1.00
C321   C     0.09151   0.51650   0.37443   0.00000  Uiso   1.00
H322   H     0.09259   0.49542   0.34463   0.00000  Uiso   1.00
H323   H     0.06659   0.50158   0.39254   0.00000  Uiso   1.00
H324   H     0.08429   0.55265   0.36259   0.00000  Uiso   1.00
C325   C     0.24182   0.48350   0.12557   0.00000  Uiso   1.00
H326   H     0.24075   0.50459   0.15535   0.00000  Uiso   1.00
H327   H     0.24903   0.44735   0.13742   0.00000  Uiso   1.00
H328   H     0.26674   0.49839   0.10745   0.00000  Uiso   1.00
C329   C     0.07086   0.57648   0.44731   0.00000  Uiso   1.00
H330   H     0.08594   0.59747   0.42223   0.00000  Uiso   1.00
H331   H     0.04393   0.55908   0.43237   0.00000  Uiso   1.00
H332   H     0.05941   0.60188   0.47076   0.00000  Uiso   1.00
C333   C     0.26245   0.42349   0.05269   0.00000  Uiso   1.00
H334   H     0.24737   0.40253   0.07778   0.00000  Uiso   1.00
H335   H     0.27388   0.39808   0.02924   0.00000  Uiso   1.00
H336   H     0.28940   0.44089   0.06762   0.00000  Uiso   1.00
C337   C     0.04806   0.42161   0.29019   0.00000  Uiso   1.00
H338   H     0.07237   0.42761   0.31515   0.00000  Uiso   1.00
O339   O     0.04208   0.38187   0.27918   0.00000  Uiso   1.00
C340   C     0.28528   0.57839   0.20981   0.00000  Uiso   1.00
H341   H     0.26096   0.57239   0.18485   0.00000  Uiso   1.00
O342   O     0.29126   0.61813   0.22083   0.00000  Uiso   1.00
C343   C     0.29552   0.41678   0.28086   0.00000  Uiso   1.00
H344   H     0.27630   0.39708   0.25816   0.00000  Uiso   1.00
O345   O     0.30232   0.40256   0.31920   0.00000  Uiso   1.00
C346   C     0.03782   0.58322   0.21914   0.00000  Uiso   1.00
H347   H     0.05704   0.60292   0.24184   0.00000  Uiso   1.00
O348   O     0.03101   0.59744   0.18079   0.00000  Uiso   1.00
C349   C     0.10667   0.38508   0.19493   0.00000  Uiso   1.00
H350   H     0.10993   0.41863   0.17967   0.00000  Uiso   1.00
O351   O     0.07309   0.36830   0.19070   0.00000  Uiso   1.00
C352   C     0.22666   0.61492   0.30507   0.00000  Uiso   1.00
H353   H     0.22341   0.58137   0.32033   0.00000  Uiso   1.00
O354   O     0.26024   0.63170   0.30930   0.00000  Uiso   1.00
C355   C     0.21075   0.37900   0.31927   0.00000  Uiso   1.00
H356   H     0.22456   0.41192   0.31537   0.00000  Uiso   1.00
O357   O     0.21114   0.36123   0.35650   0.00000  Uiso   1.00
C358   C     0.12258   0.62100   0.18073   0.00000  Uiso   1.00
H359   H     0.10877   0.58808   0.18463   0.00000  Uiso   1.00
O360   O     0.12219   0.63877   0.14350   0.00000  Uiso   1.00
O361   O     0.43988   0.53958   0.24999   0.00000  Uiso   1.00
O362   O     0.56012   0.46042   0.25000   0.00000  Uiso   1.00
O363   O     0.56012   0.53958   0.25000   0.00000  Uiso   1.00
O364   O     0.43988   0.46042   0.24999   0.00000  Uiso   1.00
C365   C     0.42084   0.50058   0.25079   0.00000  Uiso   1.00
C366   C     0.57916   0.49942   0.24921   0.00000  Uiso   1.00
O367   O     0.49999   0.53960   0.18513   0.00000  Uiso   1.00
O368   O     0.50001   0.46040   0.31487   0.00000  Uiso   1.00
O369   O     0.50001   0.53960   0.31487   0.00000  Uiso   1.00
O370   O     0.49999   0.46040   0.18513   0.00000  Uiso   1.00
C371   C     0.49942   0.50049   0.16468   0.00000  Uiso   1.00
C372   C     0.50058   0.49951   0.33532   0.00000  Uiso   1.00
Cu373  Cu    0.50000   0.54689   0.25000   0.00000  Uiso   1.00
Cu374  Cu    0.50000   0.45311   0.25000   0.00000  Uiso   1.00
C375   C     0.53551   0.48466   0.40960   0.00000  Uiso   1.00
C376   C     0.46448   0.51533   0.09040   0.00000  Uiso   1.00
C377   C     0.50019   0.49887   0.38361   0.00000  Uiso   1.00
C378   C     0.49980   0.50113   0.11639   0.00000  Uiso   1.00
C379   C     0.46460   0.51330   0.40306   0.00000  Uiso   1.00
C380   C     0.53540   0.48669   0.09693   0.00000  Uiso   1.00
C381   C     0.46582   0.51882   0.44967   0.00000  Uiso   1.00
C382   C     0.53417   0.48117   0.05033   0.00000  Uiso   1.00
C383   C     0.49996   0.50009   0.47645   0.00000  Uiso   1.00
C384   C     0.50003   0.49991   0.02355   0.00000  Uiso   1.00
C385   C     0.53444   0.48232   0.45631   0.00000  Uiso   1.00
C386   C     0.46555   0.51767   0.04369   0.00000  Uiso   1.00
C387   C     0.43416   0.54180   0.47080   0.00000  Uiso   1.00
C388   C     0.56583   0.45819   0.02920   0.00000  Uiso   1.00
C389   C     0.43313   0.53771   0.01668   0.00000  Uiso   1.00
C390   C     0.56686   0.46227   0.48332   0.00000  Uiso   1.00
H391   H     0.40690   0.55262   0.03072   0.00000  Uiso   1.00
H392   H     0.59309   0.44736   0.46928   0.00000  Uiso   1.00
C393   C     0.35698   0.46154   0.26855   0.00000  Uiso   1.00
C394   C     0.64302   0.53846   0.23145   0.00000  Uiso   1.00
C395   C     0.64772   0.45966   0.26497   0.00000  Uiso   1.00
C396   C     0.35228   0.54034   0.23503   0.00000  Uiso   1.00
C397   C     0.62385   0.49849   0.24739   0.00000  Uiso   1.00
C398   C     0.37615   0.50151   0.25261   0.00000  Uiso   1.00
C399   C     0.47400   0.35966   0.22102   0.00000  Uiso   1.00
C400   C     0.52600   0.64034   0.27898   0.00000  Uiso   1.00
C401   C     0.52384   0.35642   0.28083   0.00000  Uiso   1.00
C402   C     0.47616   0.64358   0.21917   0.00000  Uiso   1.00
N403   N     0.50000   0.61736   0.25000   0.00000  Uiso   1.00
N404   N     0.50000   0.38264   0.25000   0.00000  Uiso   1.00
C405   C     0.57313   0.47410   0.38663   0.00000  Uiso   1.00
H406   H     0.58200   0.49768   0.36061   0.00000  Uiso   1.00
O407   O     0.59282   0.43806   0.39418   0.00000  Uiso   1.00
C408   C     0.42687   0.52590   0.11337   0.00000  Uiso   1.00
H409   H     0.41799   0.50233   0.13939   0.00000  Uiso   1.00
O410   O     0.40718   0.56194   0.10582   0.00000  Uiso   1.00
C411   C     0.42484   0.51650   0.37443   0.00000  Uiso   1.00
H412   H     0.42592   0.49542   0.34463   0.00000  Uiso   1.00
H413   H     0.39992   0.50158   0.39254   0.00000  Uiso   1.00
H414   H     0.41762   0.55265   0.36259   0.00000  Uiso   1.00
C415   C     0.57516   0.48350   0.12557   0.00000  Uiso   1.00
H416   H     0.57408   0.50459   0.15535   0.00000  Uiso   1.00
H417   H     0.58236   0.44735   0.13742   0.00000  Uiso   1.00
H418   H     0.60008   0.49839   0.10745   0.00000  Uiso   1.00
C419   C     0.40420   0.57648   0.44731   0.00000  Uiso   1.00
H420   H     0.41928   0.59747   0.42223   0.00000  Uiso   1.00
H421   H     0.37726   0.55908   0.43237   0.00000  Uiso   1.00
H422   H     0.39275   0.60188   0.47076   0.00000  Uiso   1.00
C423   C     0.59579   0.42349   0.05269   0.00000  Uiso   1.00
H424   H     0.58071   0.40253   0.07778   0.00000  Uiso   1.00
H425   H     0.60721   0.39808   0.02924   0.00000  Uiso   1.00
H426   H     0.62273   0.44089   0.06762   0.00000  Uiso   1.00
C427   C     0.38139   0.42161   0.29019   0.00000  Uiso   1.00
H428   H     0.40570   0.42761   0.31515   0.00000  Uiso   1.00
O429   O     0.37541   0.38187   0.27918   0.00000  Uiso   1.00
C430   C     0.61861   0.57839   0.20981   0.00000  Uiso   1.00
H431   H     0.59430   0.57239   0.18485   0.00000  Uiso   1.00
O432   O     0.62459   0.61813   0.22083   0.00000  Uiso   1.00
C433   C     0.62885   0.41678   0.28086   0.00000  Uiso   1.00
H434   H     0.60963   0.39708   0.25816   0.00000  Uiso   1.00
O435   O     0.63565   0.40256   0.31920   0.00000  Uiso   1.00
C436   C     0.37115   0.58322   0.21914   0.00000  Uiso   1.00
H437   H     0.39037   0.60292   0.24184   0.00000  Uiso   1.00
O438   O     0.36435   0.59744   0.18079   0.00000  Uiso   1.00
C439   C     0.44000   0.38508   0.19493   0.00000  Uiso   1.00
H440   H     0.44326   0.41863   0.17967   0.00000  Uiso   1.00
O441   O     0.40643   0.36830   0.19070   0.00000  Uiso   1.00
C442   C     0.56000   0.61492   0.30507   0.00000  Uiso   1.00
H443   H     0.55674   0.58137   0.32033   0.00000  Uiso   1.00
O444   O     0.59357   0.63170   0.30930   0.00000  Uiso   1.00
C445   C     0.54408   0.37900   0.31927   0.00000  Uiso   1.00
H446   H     0.55790   0.41192   0.31537   0.00000  Uiso   1.00
O447   O     0.54447   0.36123   0.35650   0.00000  Uiso   1.00
C448   C     0.45592   0.62100   0.18073   0.00000  Uiso   1.00
H449   H     0.44210   0.58808   0.18463   0.00000  Uiso   1.00
O450   O     0.45553   0.63877   0.14350   0.00000  Uiso   1.00
O451   O     0.77321   0.53958   0.24999   0.00000  Uiso   1.00
O452   O     0.89345   0.46042   0.25000   0.00000  Uiso   1.00
O453   O     0.89345   0.53958   0.25000   0.00000  Uiso   1.00
O454   O     0.77321   0.46042   0.24999   0.00000  Uiso   1.00
C455   C     0.75417   0.50058   0.25079   0.00000  Uiso   1.00
C456   C     0.91250   0.49942   0.24921   0.00000  Uiso   1.00
O457   O     0.83332   0.53960   0.18513   0.00000  Uiso   1.00
O458   O     0.83334   0.46040   0.31487   0.00000  Uiso   1.00
O459   O     0.83334   0.53960   0.31487   0.00000  Uiso   1.00
O460   O     0.83332   0.46040   0.18513   0.00000  Uiso   1.00
C461   C     0.83275   0.50049   0.16468   0.00000  Uiso   1.00
C462   C     0.83391   0.49951   0.33532   0.00000  Uiso   1.00
Cu463  Cu    0.83333   0.54689   0.25000   0.00000  Uiso   1.00
Cu464  Cu    0.83333   0.45311   0.25000   0.00000  Uiso   1.00
C465   C     0.86885   0.48466   0.40960   0.00000  Uiso   1.00
C466   C     0.79782   0.51533   0.09040   0.00000  Uiso   1.00
C467   C     0.83353   0.49887   0.38361   0.00000  Uiso   1.00
C468   C     0.83314   0.50113   0.11639   0.00000  Uiso   1.00
C469   C     0.79793   0.51330   0.40306   0.00000  Uiso   1.00
C470   C     0.86873   0.48669   0.09693   0.00000  Uiso   1.00
C471   C     0.79915   0.51882   0.44967   0.00000  Uiso   1.00
C472   C     0.86751   0.48117   0.05033   0.00000  Uiso   1.00
C473   C     0.83330   0.50009   0.47645   0.00000  Uiso   1.00
C474   C     0.83336   0.49991   0.02355   0.00000  Uiso   1.00
C475   C     0.86777   0.48232   0.45631   0.00000  Uiso   1.00
C476   C     0.79889   0.51767   0.04369   0.00000  Uiso   1.00
C477   C     0.76749   0.54180   0.47080   0.00000  Uiso   1.00
C478   C     0.89917   0.45819   0.02920   0.00000  Uiso   1.00
C479   C     0.76647   0.53771   0.01668   0.00000  Uiso   1.00
C480   C     0.90019   0.46227   0.48332   0.00000  Uiso   1.00
H481   H     0.74024   0.55262   0.03072   0.00000  Uiso   1.00
H482   H     0.92642   0.44736   0.46928   0.00000  Uiso   1.00
C483   C     0.69031   0.46154   0.26855   0.00000  Uiso   1.00
C484   C     0.97636   0.53846   0.23145   0.00000  Uiso   1.00
C485   C     0.98106   0.45966   0.26497   0.00000  Uiso   1.00
C486   C     0.68561   0.54034   0.23503   0.00000  Uiso   1.00
C487   C     0.95719   0.49849   0.24739   0.00000  Uiso   1.00
C488   C     0.70948   0.50151   0.25261   0.00000  Uiso   1.00
C489   C     0.80733   0.35966   0.22102   0.00000  Uiso   1.00
C490   C     0.85933   0.64034   0.27898   0.00000  Uiso   1.00
C491   C     0.85718   0.35642   0.28083   0.00000  Uiso   1.00
C492   C     0.80949   0.64358   0.21917   0.00000  Uiso   1.00
N493   N     0.83333   0.61736   0.25000   0.00000  Uiso   1.00
N494   N     0.83333   0.38264   0.25000   0.00000  Uiso   1.00
C495   C     0.90646   0.47410   0.38663   0.00000  Uiso   1.00
H496   H     0.91534   0.49768   0.36061   0.00000  Uiso   1.00
O497   O     0.92615   0.43806   0.39418   0.00000  Uiso   1.00
C498   C     0.76021   0.52590   0.11337   0.00000  Uiso   1.00
H499   H     0.75133   0.50233   0.13939   0.00000  Uiso   1.00
O500   O     0.74052   0.56194   0.10582   0.00000  Uiso   1.00
C501   C     0.75817   0.51650   0.37443   0.00000  Uiso   1.00
H502   H     0.75925   0.49542   0.34463   0.00000  Uiso   1.00
H503   H     0.73326   0.50158   0.39254   0.00000  Uiso   1.00
H504   H     0.75096   0.55265   0.36259   0.00000  Uiso   1.00
C505   C     0.90849   0.48350   0.12557   0.00000  Uiso   1.00
H506   H     0.90742   0.50459   0.15535   0.00000  Uiso   1.00
H507   H     0.91570   0.44735   0.13742   0.00000  Uiso   1.00
H508   H     0.93341   0.49839   0.10745   0.00000  Uiso   1.00
C509   C     0.73753   0.57648   0.44731   0.00000  Uiso   1.00
H510   H     0.75261   0.59747   0.42223   0.00000  Uiso   1.00
H511   H     0.71059   0.55908   0.43237   0.00000  Uiso   1.00
H512   H     0.72608   0.60188   0.47076   0.00000  Uiso   1.00
C513   C     0.92912   0.42349   0.05269   0.00000  Uiso   1.00
H514   H     0.91404   0.40253   0.07778   0.00000  Uiso   1.00
H515   H     0.94055   0.39808   0.02924   0.00000  Uiso   1.00
H516   H     0.95607   0.44089   0.06762   0.00000  Uiso   1.00
C517   C     0.71472   0.42161   0.29019   0.00000  Uiso   1.00
H518   H     0.73903   0.42761   0.31515   0.00000  Uiso   1.00
O519   O     0.70875   0.38187   0.27918   0.00000  Uiso   1.00
C520   C     0.95194   0.57839   0.20981   0.00000  Uiso   1.00
H521   H     0.92763   0.57239   0.18485   0.00000  Uiso   1.00
O522   O     0.95792   0.61813   0.22083   0.00000  Uiso   1.00
C523   C     0.96218   0.41678   0.28086   0.00000  Uiso   1.00
H524   H     0.94296   0.39708   0.25816   0.00000  Uiso   1.00
O525   O     0.96899   0.40256   0.31920   0.00000  Uiso   1.00
C526   C     0.70448   0.58322   0.21914   0.00000  Uiso   1.00
H527   H     0.72370   0.60292   0.24184   0.00000  Uiso   1.00
O528   O     0.69768   0.59744   0.18079   0.00000  Uiso   1.00
C529   C     0.77334   0.38508   0.19493   0.00000  Uiso   1.00
H530   H     0.77659   0.41863   0.17967   0.00000  Uiso   1.00
O531   O     0.73976   0.36830   0.19070   0.00000  Uiso   1.00
C532   C     0.89333   0.61492   0.30507   0.00000  Uiso   1.00
H533   H     0.89007   0.58137   0.32033   0.00000  Uiso   1.00
O534   O     0.92691   0.63170   0.30930   0.00000  Uiso   1.00
C535   C     0.87742   0.37900   0.31927   0.00000  Uiso   1.00
H536   H     0.89123   0.41192   0.31537   0.00000  Uiso   1.00
O537   O     0.87781   0.36123   0.35650   0.00000  Uiso   1.00
C538   C     0.78925   0.62100   0.18073   0.00000  Uiso   1.00
H539   H     0.77544   0.58808   0.18463   0.00000  Uiso   1.00
O540   O     0.78886   0.63877   0.14350   0.00000  Uiso   1.00
O541   O     0.10655   0.87291   0.24999   0.00000  Uiso   1.00
O542   O     0.22679   0.79375   0.25000   0.00000  Uiso   1.00
O543   O     0.22679   0.87291   0.25000   0.00000  Uiso   1.00
O544   O     0.10655   0.79375   0.24999   0.00000  Uiso   1.00
C545   C     0.08750   0.83391   0.25079   0.00000  Uiso   1.00
C546   C     0.24583   0.83276   0.24921   0.00000  Uiso   1.00
O547   O     0.16666   0.87293   0.18513   0.00000  Uiso   1.00
O548   O     0.16668   0.79373   0.31487   0.00000  Uiso   1.00
O549   O     0.16668   0.87293   0.31487   0.00000  Uiso   1.00
O550   O     0.16666   0.79373   0.18513   0.00000  Uiso   1.00
C551   C     0.16608   0.83382   0.16468   0.00000  Uiso   1.00
C552   C     0.16725   0.83285   0.33532   0.00000  Uiso   1.00
Cu553  Cu    0.16667   0.88022   0.25000   0.00000  Uiso   1.00
Cu554  Cu    0.16667   0.78645   0.25000   0.00000  Uiso   1.00
C555   C     0.20218   0.81800   0.40960   0.00000  Uiso   1.00
C556   C     0.13115   0.84867   0.09040   0.00000  Uiso   1.00
C557   C     0.16686   0.83220   0.38361   0.00000  Uiso   1.00
C558   C     0.16647   0.83447   0.11639   0.00000  Uiso   1.00
C559   C     0.13127   0.84664   0.40306   0.00000  Uiso   1.00
C560   C     0.20206   0.82002   0.09693   0.00000  Uiso   1.00
C561   C     0.13248   0.85215   0.44967   0.00000  Uiso   1.00
C562   C     0.20084   0.81450   0.05033   0.00000  Uiso   1.00
C563   C     0.16663   0.83342   0.47645   0.00000  Uiso   1.00
C564   C     0.16670   0.83324   0.02355   0.00000  Uiso   1.00
C565   C     0.20111   0.81565   0.45631   0.00000  Uiso   1.00
C566   C     0.13222   0.85101   0.04369   0.00000  Uiso   1.00
C567   C     0.10082   0.87513   0.47080   0.00000  Uiso   1.00
C568   C     0.23250   0.79152   0.02920   0.00000  Uiso   1.00
C569   C     0.09980   0.87105   0.01668   0.00000  Uiso   1.00
C570   C     0.23352   0.79561   0.48332   0.00000  Uiso   1.00
H571   H     0.07357   0.88595   0.03072   0.00000  Uiso   1.00
H572   H     0.25975   0.78070   0.46928   0.00000  Uiso   1.00
C573   C     0.02364   0.79487   0.26855   0.00000  Uiso   1.00
C574   C     0.30969   0.87180   0.23145   0.00000  Uiso   1.00
C575   C     0.31439   0.79299   0.26497   0.00000  Uiso   1.00
C576   C     0.01894   0.87367   0.23503   0.00000  Uiso   1.00
C577   C     0.29052   0.83182   0.24739   0.00000  Uiso   1.00
C578   C     0.04281   0.83485   0.25261   0.00000  Uiso   1.00
C579   C     0.14067   0.69299   0.22102   0.00000  Uiso   1.00
C580   C     0.19267   0.97367   0.27898   0.00000  Uiso   1.00
C581   C     0.19051   0.68975   0.28083   0.00000  Uiso   1.00
C582   C     0.14282   0.97691   0.21917   0.00000  Uiso   1.00
N583   N     0.16667   0.95069   0.25000   0.00000  Uiso   1.00
N584   N     0.16667   0.71598   0.25000   0.00000  Uiso   1.00
C585   C     0.23979   0.80743   0.38663   0.00000  Uiso   1.00
H586   H     0.24867   0.83101   0.36061   0.00000  Uiso   1.00
O587   O     0.25948   0.77140   0.39418   0.00000  Uiso   1.00
C588   C     0.09354   0.85924   0.11337   0.00000  Uiso   1.00
H589   H     0.08466   0.83566   0.13939   0.00000  Uiso   1.00
O590   O     0.07385   0.89527   0.10582   0.00000  Uiso   1.00
C591   C     0.09151   0.84983   0.37443   0.00000  Uiso   1.00
H592   H     0.09259   0.82875   0.34463   0.00000  Uiso   1.00
H593   H     0.06659   0.83491   0.39254   0.00000  Uiso   1.00
H594   H     0.08429   0.88598   0.36259   0.00000  Uiso   1.00
C595   C     0.24182   0.81683   0.12557   0.00000  Uiso   1.00
H596   H     0.24075   0.83793   0.15535   0.00000  Uiso   1.00
H597   H     0.24903   0.78068   0.13742   0.00000  Uiso   1.00
H598   H     0.26674   0.83173   0.10745   0.00000  Uiso   1.00
C599   C     0.07086   0.90982   0.44731   0.00000  Uiso   1.00
H600   H     0.08594   0.93080   0.42223   0.00000  Uiso   1.00
H601   H     0.04393   0.89241   0.43237   0.00000  Uiso   1.00
H602   H     0.05941   0.93521   0.47076   0.00000  Uiso   1.00
C603   C     0.26245   0.75683   0.05269   0.00000  Uiso   1.00
H604   H     0.24737   0.73586   0.07778   0.00000  Uiso   1.00
H605   H     0.27388   0.73142   0.02924   0.00000  Uiso   1.00
H606   H     0.28940   0.77422   0.06762   0.00000  Uiso   1.00
C607   C     0.04806   0.75495   0.29019   0.00000  Uiso   1.00
H608   H     0.07237   0.76094   0.31515   0.00000  Uiso   1.00
O609   O     0.04208   0.71520   0.27918   0.00000  Uiso   1.00
C610   C     0.28528   0.91172   0.20981   0.00000  Uiso   1.00
H611   H     0.26096   0.90573   0.18485   0.00000  Uiso   1.00
O612   O     0.29126   0.95147   0.22083   0.00000  Uiso   1.00
C613   C     0.29552   0.75011   0.28086   0.00000  Uiso   1.00
H614   H     0.27630   0.73042   0.25816   0.00000  Uiso   1.00
O615   O     0.30232   0.73590   0.31920   0.00000  Uiso   1.00
C616   C     0.03782   0.91655   0.21914   0.00000  Uiso   1.00
H617   H     0.05704   0.93625   0.24184   0.00000  Uiso   1.00
O618   O     0.03101   0.93077   0.18079   0.00000  Uiso   1.00
C619   C     0.10667   0.71841   0.19493   0.00000  Uiso   1.00
H620   H     0.10993   0.75196   0.17967   0.00000  Uiso   1.00
O621   O     0.07309   0.70163   0.19070   0.00000  Uiso   1.00
C622   C     0.22666   0.94825   0.30507   0.00000  Uiso   1.00
H623   H     0.22341   0.91470   0.32033   0.00000  Uiso   1.00
O624   O     0.26024   0.96504   0.30930   0.00000  Uiso   1.00
C625   C     0.21075   0.71233   0.31927   0.00000  Uiso   1.00
H626   H     0.22456   0.74525   0.31537   0.00000  Uiso   1.00
O627   O     0.21114   0.69457   0.35650   0.00000  Uiso   1.00
C628   C     0.12258   0.95433   0.18073   0.00000  Uiso   1.00
H629   H     0.10877   0.92142   0.18463   0.00000  Uiso   1.00
O630   O     0.12219   0.97210   0.14350   0.00000  Uiso   1.00
O631   O     0.43988   0.87291   0.24999   0.00000  Uiso   1.00
O632   O     0.56012   0.79375   0.25000   0.00000  Uiso   1.00
O633   O     0.56012   0.87291   0.25000   0.00000  Uiso   1.00
O634   O     0.43988   0.79375   0.24999   0.00000  Uiso   1.00
C635   C     0.42084   0.83391   0.25079   0.00000  Uiso   1.00
C636   C     0.57916   0.83276   0.24921   0.00000  Uiso   1.00
O637   O     0.49999   0.87293   0.18513   0.00000  Uiso   1.00
O638   O     0.50001   0.79373   0.31487   0.00000  Uiso   1.00
O639   O     0.50001   0.87293   0.31487   0.00000  Uiso   1.00
O640   O     0.49999   0.79373   0.18513   0.00000  Uiso   1.00
C641   C     0.49942   0.83382   0.16468   0.00000  Uiso   1.00
C642   C     0.50058   0.83285   0.33532   0.00000  Uiso   1.00
Cu643  Cu    0.50000   0.88022   0.25000   0.00000  Uiso   1.00
Cu644  Cu    0.50000   0.78645   0.25000   0.00000  Uiso   1.00
C645   C     0.53551   0.81800   0.40960   0.00000  Uiso   1.00
C646   C     0.46448   0.84867   0.09040   0.00000  Uiso   1.00
C647   C     0.50019   0.83220   0.38361   0.00000  Uiso   1.00
C648   C     0.49980   0.83447   0.11639   0.00000  Uiso   1.00
C649   C     0.46460   0.84664   0.40306   0.00000  Uiso   1.00
C650   C     0.53540   0.82002   0.09693   0.00000  Uiso   1.00
C651   C     0.46582   0.85215   0.44967   0.00000  Uiso   1.00
C652   C     0.53417   0.81450   0.05033   0.00000  Uiso   1.00
C653   C     0.49996   0.83342   0.47645   0.00000  Uiso   1.00
C654   C     0.50003   0.83324   0.02355   0.00000  Uiso   1.00
C655   C     0.53444   0.81565   0.45631   0.00000  Uiso   1.00
C656   C     0.46555   0.85101   0.04369   0.00000  Uiso   1.00
C657   C     0.43416   0.87513   0.47080   0.00000  Uiso   1.00
C658   C     0.56583   0.79152   0.02920   0.00000  Uiso   1.00
C659   C     0.43313   0.87105   0.01668   0.00000  Uiso   1.00
C660   C     0.56686   0.79561   0.48332   0.00000  Uiso   1.00
H661   H     0.40690   0.88595   0.03072   0.00000  Uiso   1.00
H662   H     0.59309   0.78070   0.46928   0.00000  Uiso   1.00
C663   C     0.35698   0.79487   0.26855   0.00000  Uiso   1.00
C664   C     0.64302   0.87180   0.23145   0.00000  Uiso   1.00
C665   C     0.64772   0.79299   0.26497   0.00000  Uiso   1.00
C666   C     0.35228   0.87367   0.23503   0.00000  Uiso   1.00
C667   C     0.62385   0.83182   0.24739   0.00000  Uiso   1.00
C668   C     0.37615   0.83485   0.25261   0.00000  Uiso   1.00
C669   C     0.47400   0.69299   0.22102   0.00000  Uiso   1.00
C670   C     0.52600   0.97367   0.27898   0.00000  Uiso   1.00
C671   C     0.52384   0.68975   0.28083   0.00000  Uiso   1.00
C672   C     0.47616   0.97691   0.21917   0.00000  Uiso   1.00
N673   N     0.50000   0.95069   0.25000   0.00000  Uiso   1.00
N674   N     0.50000   0.71598   0.25000   0.00000  Uiso   1.00
C675   C     0.57313   0.80743   0.38663   0.00000  Uiso   1.00
H676   H     0.58200   0.83101   0.36061   0.00000  Uiso   1.00
O677   O     0.59282   0.77140   0.39418   0.00000  Uiso   1.00
C678   C     0.42687   0.85924   0.11337   0.00000  Uiso   1.00
H679   H     0.41799   0.83566   0.13939   0.00000  Uiso   1.00
O680   O     0.40718   0.89527   0.10582   0.00000  Uiso   1.00
C681   C     0.42484   0.84983   0.37443   0.00000  Uiso   1.00
H682   H     0.42592   0.82875   0.34463   0.00000  Uiso   1.00
H683   H     0.39992   0.83491   0.39254   0.00000  Uiso   1.00
H684   H     0.41762   0.88598   0.36259   0.00000  Uiso   1.00
C685   C     0.57516   0.81683   0.12557   0.00000  Uiso   1.00
H686   H     0.57408   0.83793   0.15535   0.00000  Uiso   1.00
H687   H     0.58236   0.78068   0.13742   0.00000  Uiso   1.00
H688   H     0.60008   0.83173   0.10745   0.00000  Uiso   1.00
C689   C     0.40420   0.90982   0.44731   0.00000  Uiso   1.00
H690   H     0.41928   0.93080   0.42223   0.00000  Uiso   1.00
H691   H     0.37726   0.89241   0.43237   0.00000  Uiso   1.00
H692   H     0.39275   0.93521   0.47076   0.00000  Uiso   1.00
C693   C     0.59579   0.75683   0.05269   0.00000  Uiso   1.00
H694   H     0.58071   0.73586   0.07778   0.00000  Uiso   1.00
H695   H     0.60721   0.73142   0.02924   0.00000  Uiso   1.00
H696   H     0.62273   0.77422   0.06762   0.00000  Uiso   1.00
C697   C     0.38139   0.75495   0.29019   0.00000  Uiso   1.00
H698   H     0.40570   0.76094   0.31515   0.00000  Uiso   1.00
O699   O     0.37541   0.71520   0.27918   0.00000  Uiso   1.00
C700   C     0.61861   0.91172   0.20981   0.00000  Uiso   1.00
H701   H     0.59430   0.90573   0.18485   0.00000  Uiso   1.00
O702   O     0.62459   0.95147   0.22083   0.00000  Uiso   1.00
C703   C     0.62885   0.75011   0.28086   0.00000  Uiso   1.00
H704   H     0.60963   0.73042   0.25816   0.00000  Uiso   1.00
O705   O     0.63565   0.73590   0.31920   0.00000  Uiso   1.00
C706   C     0.37115   0.91655   0.21914   0.00000  Uiso   1.00
H707   H     0.39037   0.93625   0.24184   0.00000  Uiso   1.00
O708   O     0.36435   0.93077   0.18079   0.00000  Uiso   1.00
C709   C     0.44000   0.71841   0.19493   0.00000  Uiso   1.00
H710   H     0.44326   0.75196   0.17967   0.00000  Uiso   1.00
O711   O     0.40643   0.70163   0.19070   0.00000  Uiso   1.00
C712   C     0.56000   0.94825   0.30507   0.00000  Uiso   1.00
H713   H     0.55674   0.91470   0.32033   0.00000  Uiso   1.00
O714   O     0.59357   0.96504   0.30930   0.00000  Uiso   1.00
C715   C     0.54408   0.71233   0.31927   0.00000  Uiso   1.00
H716   H     0.55790   0.74525   0.31537   0.00000  Uiso   1.00
O717   O     0.54447   0.69457   0.35650   0.00000  Uiso   1.00
C718   C     0.45592   0.95433   0.18073   0.00000  Uiso   1.00
H719   H     0.44210   0.92142   0.18463   0.00000  Uiso   1.00
O720   O     0.45553   0.97210   0.14350   0.00000  Uiso   1.00
O721   O     0.77321   0.87291   0.24999   0.00000  Uiso   1.00
O722   O     0.89345   0.79375   0.25000   0.00000  Uiso   1.00
O723   O     0.89345   0.87291   0.25000   0.00000  Uiso   1.00
O724   O     0.77321   0.79375   0.24999   0.00000  Uiso   1.00
C725   C     0.75417   0.83391   0.25079   0.00000  Uiso   1.00
C726   C     0.91250   0.83276   0.24921   0.00000  Uiso   1.00
O727   O     0.83332   0.87293   0.18513   0.00000  Uiso   1.00
O728   O     0.83334   0.79373   0.31487   0.00000  Uiso   1.00
O729   O     0.83334   0.87293   0.31487   0.00000  Uiso   1.00
O730   O     0.83332   0.79373   0.18513   0.00000  Uiso   1.00
C731   C     0.83275   0.83382   0.16468   0.00000  Uiso   1.00
C732   C     0.83391   0.83285   0.33532   0.00000  Uiso   1.00
Cu733  Cu    0.83333   0.88022   0.25000   0.00000  Uiso   1.00
Cu734  Cu    0.83333   0.78645   0.25000   0.00000  Uiso   1.00
C735   C     0.86885   0.81800   0.40960   0.00000  Uiso   1.00
C736   C     0.79782   0.84867   0.09040   0.00000  Uiso   1.00
C737   C     0.83353   0.83220   0.38361   0.00000  Uiso   1.00
C738   C     0.83314   0.83447   0.11639   0.00000  Uiso   1.00
C739   C     0.79793   0.84664   0.40306   0.00000  Uiso   1.00
C740   C     0.86873   0.82002   0.09693   0.00000  Uiso   1.00
C741   C     0.79915   0.85215   0.44967   0.00000  Uiso   1.00
C742   C     0.86751   0.81450   0.05033   0.00000  Uiso   1.00
C743   C     0.83330   0.83342   0.47645   0.00000  Uiso   1.00
C744   C     0.83336   0.83324   0.02355   0.00000  Uiso   1.00
C745   C     0.86777   0.81565   0.45631   0.00000  Uiso   1.00
C746   C     0.79889   0.85101   0.04369   0.00000  Uiso   1.00
C747   C     0.76749   0.87513   0.47080   0.00000  Uiso   1.00
C748   C     0.89917   0.79152   0.02920   0.00000  Uiso   1.00
C749   C     0.76647   0.87105   0.01668   0.00000  Uiso   1.00
C750   C     0.90019   0.79561   0.48332   0.00000  Uiso   1.00
H751   H     0.74024   0.88595   0.03072   0.00000  Uiso   1.00
H752   H     0.92642   0.78070   0.46928   0.00000  Uiso   1.00
C753   C     0.69031   0.79487   0.26855   0.00000  Uiso   1.00
C754   C     0.97636   0.87180   0.23145   0.00000  Uiso   1.00
C755   C     0.98106   0.79299   0.26497   0.00000  Uiso   1.00
C756   C     0.68561   0.87367   0.23503   0.00000  Uiso   1.00
C757   C     0.95719   0.83182   0.24739   0.00000  Uiso   1.00
C758   C     0.70948   0.83485   0.25261   0.00000  Uiso   1.00
C759   C     0.80733   0.69299   0.22102   0.00000  Uiso   1.00
C760   C     0.85933   0.97367   0.27898   0.00000  Uiso   1.00
C761   C     0.85718   0.68975   0.28083   0.00000  Uiso   1.00
C762   C     0.80949   0.97691   0.21917   0.00000  Uiso   1.00
N763   N     0.83333   0.95069   0.25000   0.00000  Uiso   1.00
N764   N     0.83333   0.71598   0.25000   0.00000  Uiso   1.00
C765   C     0.90646   0.80743   0.38663   0.00000  Uiso   1.00
H766   H     0.91534   0.83101   0.36061   0.00000  Uiso   1.00
O767   O     0.92615   0.77140   0.39418   0.00000  Uiso   1.00
C768   C     0.76021   0.85924   0.11337   0.00000  Uiso   1.00
H769   H     0.75133   0.83566   0.13939   0.00000  Uiso   1.00
O770   O     0.74052   0.89527   0.10582   0.00000  Uiso   1.00
C771   C     0.75817   0.84983   0.37443   0.00000  Uiso   1.00
H772   H     0.75925   0.82875   0.34463   0.00000  Uiso   1.00
H773   H     0.73326   0.83491   0.39254   0.00000  Uiso   1.00
H774   H     0.75096   0.88598   0.36259   0.00000  Uiso   1.00
C775   C     0.90849   0.81683   0.12557   0.00000  Uiso   1.00
H776   H     0.90742   0.83793   0.15535   0.00000  Uiso   1.00
H777   H     0.91570   0.78068   0.13742   0.00000  Uiso   1.00
H778   H     0.93341   0.83173   0.10745   0.00000  Uiso   1.00
C779   C     0.73753   0.90982   0.44731   0.00000  Uiso   1.00
H780   H     0.75261   0.93080   0.42223   0.00000  Uiso   1.00
H781   H     0.71059   0.89241   0.43237   0.00000  Uiso   1.00
H782   H     0.72608   0.93521   0.47076   0.00000  Uiso   1.00
C783   C     0.92912   0.75683   0.05269   0.00000  Uiso   1.00
H784   H     0.91404   0.73586   0.07778   0.00000  Uiso   1.00
H785   H     0.94055   0.73142   0.02924   0.00000  Uiso   1.00
H786   H     0.95607   0.77422   0.06762   0.00000  Uiso   1.00
C787   C     0.71472   0.75495   0.29019   0.00000  Uiso   1.00
H788   H     0.73903   0.76094   0.31515   0.00000  Uiso   1.00
O789   O     0.70875   0.71520   0.27918   0.00000  Uiso   1.00
C790   C     0.95194   0.91172   0.20981   0.00000  Uiso   1.00
H791   H     0.92763   0.90573   0.18485   0.00000  Uiso   1.00
O792   O     0.95792   0.95147   0.22083   0.00000  Uiso   1.00
C793   C     0.96218   0.75011   0.28086   0.00000  Uiso   1.00
H794   H     0.94296   0.73042   0.25816   0.00000  Uiso   1.00
O795   O     0.96899   0.73590   0.31920   0.00000  Uiso   1.00
C796   C     0.70448   0.91655   0.21914   0.00000  Uiso   1.00
H797   H     0.72370   0.93625   0.24184   0.00000  Uiso   1.00
O798   O     0.69768   0.93077   0.18079   0.00000  Uiso   1.00
C799   C     0.77334   0.71841   0.19493   0.00000  Uiso   1.00
H800   H     0.77659   0.75196   0.17967   0.00000  Uiso   1.00
O801   O     0.73976   0.70163   0.19070   0.00000  Uiso   1.00
C802   C     0.89333   0.94825   0.30507   0.00000  Uiso   1.00
H803   H     0.89007   0.91470   0.32033   0.00000  Uiso   1.00
O804   O     0.92691   0.96504   0.30930   0.00000  Uiso   1.00
C805   C     0.87742   0.71233   0.31927   0.00000  Uiso   1.00
H806   H     0.89123   0.74525   0.31537   0.00000  Uiso   1.00
O807   O     0.87781   0.69457   0.35650   0.00000  Uiso   1.00
C808   C     0.78925   0.95433   0.18073   0.00000  Uiso   1.00
H809   H     0.77544   0.92142   0.18463   0.00000  Uiso   1.00
O810   O     0.78886   0.97210   0.14350   0.00000  Uiso   1.00
O811   O     0.10655   0.20625   0.74999   0.00000  Uiso   1.00
O812   O     0.22679   0.12709   0.75000   0.00000  Uiso   1.00
O813   O     0.22679   0.20625   0.75000   0.00000  Uiso   1.00
O814   O     0.10655   0.12709   0.74999   0.00000  Uiso   1.00
C815   C     0.08750   0.16724   0.75079   0.00000  Uiso   1.00
C816   C     0.24583   0.16609   0.74921   0.00000  Uiso   1.00
O817   O     0.16666   0.20627   0.68513   0.00000  Uiso   1.00
O818   O     0.16668   0.12707   0.81487   0.00000  Uiso   1.00
O819   O     0.16668   0.20627   0.81487   0.00000  Uiso   1.00
O820   O     0.16666   0.12707   0.68513   0.00000  Uiso   1.00
C821   C     0.16608   0.16715   0.66468   0.00000  Uiso   1.00
C822   C     0.16725   0.16618   0.83532   0.00000  Uiso   1.00
Cu823  Cu    0.16667   0.21355   0.75000   0.00000  Uiso   1.00
Cu824  Cu    0.16667   0.11978   0.75000   0.00000  Uiso   1.00
C825   C     0.20218   0.15133   0.90960   0.00000  Uiso   1.00
C826   C     0.13115   0.18200   0.59040   0.00000  Uiso   1.00
C827   C     0.16686   0.16553   0.88361   0.00000  Uiso   1.00
C828   C     0.16647   0.16780   0.61639   0.00000  Uiso   1.00
C829   C     0.13127   0.17997   0.90306   0.00000  Uiso   1.00
C830   C     0.20206   0.15336   0.59693   0.00000  Uiso   1.00
C831   C     0.13248   0.18549   0.94967   0.00000  Uiso   1.00
C832   C     0.20084   0.14784   0.55033   0.00000  Uiso   1.00
C833   C     0.16663   0.16675   0.97645   0.00000  Uiso   1.00
C834   C     0.16670   0.16657   0.52355   0.00000  Uiso   1.00
C835   C     0.20111   0.14899   0.95631   0.00000  Uiso   1.00
C836   C     0.13222   0.18434   0.54369   0.00000  Uiso   1.00
C837   C     0.10082   0.20846   0.97080   0.00000  Uiso   1.00
C838   C     0.23250   0.12486   0.52920   0.00000  Uiso   1.00
C839   C     0.09980   0.20438   0.51668   0.00000  Uiso   1.00
C840   C     0.23352   0.12894   0.98332   0.00000  Uiso   1.00
H841   H     0.07357   0.21928   0.53072   0.00000  Uiso   1.00
H842   H     0.25975   0.11403   0.96928   0.00000  Uiso   1.00
C843   C     0.02364   0.12820   0.76855   0.00000  Uiso   1.00
C844   C     0.30969   0.20513   0.73145   0.00000  Uiso   1.00
C845   C     0.31439   0.12633   0.76497   0.00000  Uiso   1.00
C846   C     0.01894   0.20701   0.73503   0.00000  Uiso   1.00
C847   C     0.29052   0.16515   0.74739   0.00000  Uiso   1.00
C848   C     0.04281   0.16818   0.75261   0.00000  Uiso   1.00
C849   C     0.14067   0.02633   0.72102   0.00000  Uiso   1.00
C850   C     0.19267   0.30701   0.77898   0.00000  Uiso   1.00
C851   C     0.19051   0.02309   0.78083   0.00000  Uiso   1.00
C852   C     0.14282   0.31025   0.71917   0.00000  Uiso   1.00
N853   N     0.16667   0.28402   0.75000   0.00000  Uiso   1.00
N854   N     0.16667   0.04931   0.75000   0.00000  Uiso   1.00
C855   C     0.23979   0.14077   0.88663   0.00000  Uiso   1.00
H856   H     0.24867   0.16434   0.86061   0.00000  Uiso   1.00
O857   O     0.25948   0.10473   0.89418   0.00000  Uiso   1.00
C858   C     0.09354   0.19257   0.61337   0.00000  Uiso   1.00
H859   H     0.08466   0.16900   0.63939   0.00000  Uiso   1.00
O860   O     0.07385   0.22861   0.60582   0.00000  Uiso   1.00
C861   C     0.09151   0.18317   0.87443   0.00000  Uiso   1.00
H862   H     0.09259   0.16209   0.84463   0.00000  Uiso   1.00
H863   H     0.06659   0.16825   0.89254   0.00000  Uiso   1.00
H864   H     0.08429   0.21932   0.86259   0.00000  Uiso   1.00
C865   C     0.24182   0.15016   0.62557   0.00000  Uiso   1.00
H866   H     0.24075   0.17126   0.65535   0.00000  Uiso   1.00
H867   H     0.24903   0.11401   0.63742   0.00000  Uiso   1.00
H868   H     0.26674   0.16506   0.60745   0.00000  Uiso   1.00
C869   C     0.07086   0.24315   0.94731   0.00000  Uiso   1.00
H870   H     0.08594   0.26413   0.92223   0.00000  Uiso   1.00
H871   H     0.04393   0.22575   0.93237   0.00000  Uiso   1.00
H872   H     0.05941   0.26855   0.97076   0.00000  Uiso   1.00
C873   C     0.26245   0.09016   0.55269   0.00000  Uiso   1.00
H874   H     0.24737   0.06920   0.57778   0.00000  Uiso   1.00
H875   H     0.27388   0.06475   0.52924   0.00000  Uiso   1.00
H876   H     0.28940   0.10755   0.56762   0.00000  Uiso   1.00
C877   C     0.04806   0.08828   0.79019   0.00000  Uiso   1.00
H878   H     0.07237   0.09428   0.81515   0.00000  Uiso   1.00
O879   O     0.04208   0.04854   0.77918   0.00000  Uiso   1.00
C880   C     0.28528   0.24505   0.70981   0.00000  Uiso   1.00
H881   H     0.26096   0.23906   0.68485   0.00000  Uiso   1.00
O882   O     0.29126   0.28480   0.72083   0.00000  Uiso   1.00
C883   C     0.29552   0.08345   0.78086   0.00000  Uiso   1.00
H884   H     0.27630   0.06375   0.75816   0.00000  Uiso   1.00
O885   O     0.30232   0.06923   0.81920   0.00000  Uiso   1.00
C886   C     0.03782   0.24989   0.71914   0.00000  Uiso   1.00
H887   H     0.05704   0.26958   0.74184   0.00000  Uiso   1.00
O888   O     0.03101   0.26410   0.68079   0.00000  Uiso   1.00
C889   C     0.10667   0.05175   0.69493   0.00000  Uiso   1.00
H890   H     0.10993   0.08530   0.67967   0.00000  Uiso   1.00
O891   O     0.07309   0.03496   0.69070   0.00000  Uiso   1.00
C892   C     0.22666   0.28159   0.80507   0.00000  Uiso   1.00
H893   H     0.22341   0.24804   0.82033   0.00000  Uiso   1.00
O894   O     0.26024   0.29837   0.80930   0.00000  Uiso   1.00
C895   C     0.21075   0.04567   0.81927   0.00000  Uiso   1.00
H896   H     0.22456   0.07858   0.81537   0.00000  Uiso   1.00
O897   O     0.21114   0.02790   0.85650   0.00000  Uiso   1.00
C898   C     0.12258   0.28767   0.68073   0.00000  Uiso   1.00
H899   H     0.10877   0.25475   0.68463   0.00000  Uiso   1.00
O900   O     0.12219   0.30543   0.64350   0.00000  Uiso   1.00
O901   O     0.43988   0.20625   0.74999   0.00000  Uiso   1.00
O902   O     0.56012   0.12709   0.75000   0.00000  Uiso   1.00
O903   O     0.56012   0.20625   0.75000   0.00000  Uiso   1.00
O904   O     0.43988   0.12709   0.74999   0.00000  Uiso   1.00
C905   C     0.42084   0.16724   0.75079   0.00000  Uiso   1.00
C906   C     0.57916   0.16609   0.74921   0.00000  Uiso   1.00
O907   O     0.49999   0.20627   0.68513   0.00000  Uiso   1.00
O908   O     0.50001   0.12707   0.81487   0.00000  Uiso   1.00
O909   O     0.50001   0.20627   0.81487   0.00000  Uiso   1.00
O910   O     0.49999   0.12707   0.68513   0.00000  Uiso   1.00
C911   C     0.49942   0.16715   0.66468   0.00000  Uiso   1.00
C912   C     0.50058   0.16618   0.83532   0.00000  Uiso   1.00
Cu913  Cu    0.50000   0.21355   0.75000   0.00000  Uiso   1.00
Cu914  Cu    0.50000   0.11978   0.75000   0.00000  Uiso   1.00
C915   C     0.53551   0.15133   0.90960   0.00000  Uiso   1.00
C916   C     0.46448   0.18200   0.59040   0.00000  Uiso   1.00
C917   C     0.50019   0.16553   0.88361   0.00000  Uiso   1.00
C918   C     0.49980   0.16780   0.61639   0.00000  Uiso   1.00
C919   C     0.46460   0.17997   0.90306   0.00000  Uiso   1.00
C920   C     0.53540   0.15336   0.59693   0.00000  Uiso   1.00
C921   C     0.46582   0.18549   0.94967   0.00000  Uiso   1.00
C922   C     0.53417   0.14784   0.55033   0.00000  Uiso   1.00
C923   C     0.49996   0.16675   0.97645   0.00000  Uiso   1.00
C924   C     0.50003   0.16657   0.52355   0.00000  Uiso   1.00
C925   C     0.53444   0.14899   0.95631   0.00000  Uiso   1.00
C926   C     0.46555   0.18434   0.54369   0.00000  Uiso   1.00
C927   C     0.43416   0.20846   0.97080   0.00000  Uiso   1.00
C928   C     0.56583   0.12486   0.52920   0.00000  Uiso   1.00
C929   C     0.43313   0.20438   0.51668   0.00000  Uiso   1.00
C930   C     0.56686   0.12894   0.98332   0.00000  Uiso   1.00
H931   H     0.40690   0.21928   0.53072   0.00000  Uiso   1.00
H932   H     0.59309   0.11403   0.96928   0.00000  Uiso   1.00
C933   C     0.35698   0.12820   0.76855   0.00000  Uiso   1.00
C934   C     0.64302   0.20513   0.73145   0.00000  Uiso   1.00
C935   C     0.64772   0.12633   0.76497   0.00000  Uiso   1.00
C936   C     0.35228   0.20701   0.73503   0.00000  Uiso   1.00
C937   C     0.62385   0.16515   0.74739   0.00000  Uiso   1.00
C938   C     0.37615   0.16818   0.75261   0.00000  Uiso   1.00
C939   C     0.47400   0.02633   0.72102   0.00000  Uiso   1.00
C940   C     0.52600   0.30701   0.77898   0.00000  Uiso   1.00
C941   C     0.52384   0.02309   0.78083   0.00000  Uiso   1.00
C942   C     0.47616   0.31025   0.71917   0.00000  Uiso   1.00
N943   N     0.50000   0.28402   0.75000   0.00000  Uiso   1.00
N944   N     0.50000   0.04931   0.75000   0.00000  Uiso   1.00
C945   C     0.57313   0.14077   0.88663   0.00000  Uiso   1.00
H946   H     0.58200   0.16434   0.86061   0.00000  Uiso   1.00
O947   O     0.59282   0.10473   0.89418   0.00000  Uiso   1.00
C948   C     0.42687   0.19257   0.61337   0.00000  Uiso   1.00
H949   H     0.41799   0.16900   0.63939   0.00000  Uiso   1.00
O950   O     0.40718   0.22861   0.60582   0.00000  Uiso   1.00
C951   C     0.42484   0.18317   0.87443   0.00000  Uiso   1.00
H952   H     0.42592   0.16209   0.84463   0.00000  Uiso   1.00
H953   H     0.39992   0.16825   0.89254   0.00000  Uiso   1.00
H954   H     0.41762   0.21932   0.86259   0.00000  Uiso   1.00
C955   C     0.57516   0.15016   0.62557   0.00000  Uiso   1.00
H956   H     0.57408   0.17126   0.65535   0.00000  Uiso   1.00
H957   H     0.58236   0.11401   0.63742   0.00000  Uiso   1.00
H958   H     0.60008   0.16506   0.60745   0.00000  Uiso   1.00
C959   C     0.40420   0.24315   0.94731   0.00000  Uiso   1.00
H960   H     0.41928   0.26413   0.92223   0.00000  Uiso   1.00
H961   H     0.37726   0.22575   0.93237   0.00000  Uiso   1.00
H962   H     0.39275   0.26855   0.97076   0.00000  Uiso   1.00
C963   C     0.59579   0.09016   0.55269   0.00000  Uiso   1.00
H964   H     0.58071   0.06920   0.57778   0.00000  Uiso   1.00
H965   H     0.60721   0.06475   0.52924   0.00000  Uiso   1.00
H966   H     0.62273   0.10755   0.56762   0.00000  Uiso   1.00
C967   C     0.38139   0.08828   0.79019   0.00000  Uiso   1.00
H968   H     0.40570   0.09428   0.81515   0.00000  Uiso   1.00
O969   O     0.37541   0.04854   0.77918   0.00000  Uiso   1.00
C970   C     0.61861   0.24505   0.70981   0.00000  Uiso   1.00
H971   H     0.59430   0.23906   0.68485   0.00000  Uiso   1.00
O972   O     0.62459   0.28480   0.72083   0.00000  Uiso   1.00
C973   C     0.62885   0.08345   0.78086   0.00000  Uiso   1.00
H974   H     0.60963   0.06375   0.75816   0.00000  Uiso   1.00
O975   O     0.63565   0.06923   0.81920   0.00000  Uiso   1.00
C976   C     0.37115   0.24989   0.71914   0.00000  Uiso   1.00
H977   H     0.39037   0.26958   0.74184   0.00000  Uiso   1.00
O978   O     0.36435   0.26410   0.68079   0.00000  Uiso   1.00
C979   C     0.44000   0.05175   0.69493   0.00000  Uiso   1.00
H980   H     0.44326   0.08530   0.67967   0.00000  Uiso   1.00
O981   O     0.40643   0.03496   0.69070   0.00000  Uiso   1.00
C982   C     0.56000   0.28159   0.80507   0.00000  Uiso   1.00
H983   H     0.55674   0.24804   0.82033   0.00000  Uiso   1.00
O984   O     0.59357   0.29837   0.80930   0.00000  Uiso   1.00
C985   C     0.54408   0.04567   0.81927   0.00000  Uiso   1.00
H986   H     0.55790   0.07858   0.81537   0.00000  Uiso   1.00
O987   O     0.54447   0.02790   0.85650   0.00000  Uiso   1.00
C988   C     0.45592   0.28767   0.68073   0.00000  Uiso   1.00
H989   H     0.44210   0.25475   0.68463   0.00000  Uiso   1.00
O990   O     0.45553   0.30543   0.64350   0.00000  Uiso   1.00
O991   O     0.77321   0.20625   0.74999   0.00000  Uiso   1.00
O992   O     0.89345   0.12709   0.75000   0.00000  Uiso   1.00
O993   O     0.89345   0.20625   0.75000   0.00000  Uiso   1.00
O994   O     0.77321   0.12709   0.74999   0.00000  Uiso   1.00
C995   C     0.75417   0.16724   0.75079   0.00000  Uiso   1.00
C996   C     0.91250   0.16609   0.74921   0.00000  Uiso   1.00
O997   O     0.83332   0.20627   0.68513   0.00000  Uiso   1.00
O998   O     0.83334   0.12707   0.81487   0.00000  Uiso   1.00
O999   O     0.83334   0.20627   0.81487   0.00000  Uiso   1.00
O1000  O     0.83332   0.12707   0.68513   0.00000  Uiso   1.00
C1001  C     0.83275   0.16715   0.66468   0.00000  Uiso   1.00
C1002  C     0.83391   0.16618   0.83532   0.00000  Uiso   1.00
Cu1003 Cu    0.83333   0.21355   0.75000   0.00000  Uiso   1.00
Cu1004 Cu    0.83333   0.11978   0.75000   0.00000  Uiso   1.00
C1005  C     0.86885   0.15133   0.90960   0.00000  Uiso   1.00
C1006  C     0.79782   0.18200   0.59040   0.00000  Uiso   1.00
C1007  C     0.83353   0.16553   0.88361   0.00000  Uiso   1.00
C1008  C     0.83314   0.16780   0.61639   0.00000  Uiso   1.00
C1009  C     0.79793   0.17997   0.90306   0.00000  Uiso   1.00
C1010  C     0.86873   0.15336   0.59693   0.00000  Uiso   1.00
C1011  C     0.79915   0.18549   0.94967   0.00000  Uiso   1.00
C1012  C     0.86751   0.14784   0.55033   0.00000  Uiso   1.00
C1013  C     0.83330   0.16675   0.97645   0.00000  Uiso   1.00
C1014  C     0.83336   0.16657   0.52355   0.00000  Uiso   1.00
C1015  C     0.86777   0.14899   0.95631   0.00000  Uiso   1.00
C1016  C     0.79889   0.18434   0.54369   0.00000  Uiso   1.00
C1017  C     0.76749   0.20846   0.97080   0.00000  Uiso   1.00
C1018  C     0.89917   0.12486   0.52920   0.00000  Uiso   1.00
C1019  C     0.76647   0.20438   0.51668   0.00000  Uiso   1.00
C1020  C     0.90019   0.12894   0.98332   0.00000  Uiso   1.00
H1021  H     0.74024   0.21928   0.53072   0.00000  Uiso   1.00
H1022  H     0.92642   0.11403   0.96928   0.00000  Uiso   1.00
C1023  C     0.69031   0.12820   0.76855   0.00000  Uiso   1.00
C1024  C     0.97636   0.20513   0.73145   0.00000  Uiso   1.00
C1025  C     0.98106   0.12633   0.76497   0.00000  Uiso   1.00
C1026  C     0.68561   0.20701   0.73503   0.00000  Uiso   1.00
C1027  C     0.95719   0.16515   0.74739   0.00000  Uiso   1.00
C1028  C     0.70948   0.16818   0.75261   0.00000  Uiso   1.00
C1029  C     0.80733   0.02633   0.72102   0.00000  Uiso   1.00
C1030  C     0.85933   0.30701   0.77898   0.00000  Uiso   1.00
C1031  C     0.85718   0.02309   0.78083   0.00000  Uiso   1.00
C1032  C     0.80949   0.31025   0.71917   0.00000  Uiso   1.00
N1033  N     0.83333   0.28402   0.75000   0.00000  Uiso   1.00
N1034  N     0.83333   0.04931   0.75000   0.00000  Uiso   1.00
C1035  C     0.90646   0.14077   0.88663   0.00000  Uiso   1.00
H1036  H     0.91534   0.16434   0.86061   0.00000  Uiso   1.00
O1037  O     0.92615   0.10473   0.89418   0.00000  Uiso   1.00
C1038  C     0.76021   0.19257   0.61337   0.00000  Uiso   1.00
H1039  H     0.75133   0.16900   0.63939   0.00000  Uiso   1.00
O1040  O     0.74052   0.22861   0.60582   0.00000  Uiso   1.00
C1041  C     0.75817   0.18317   0.87443   0.00000  Uiso   1.00
H1042  H     0.75925   0.16209   0.84463   0.00000  Uiso   1.00
H1043  H     0.73326   0.16825   0.89254   0.00000  Uiso   1.00
H1044  H     0.75096   0.21932   0.86259   0.00000  Uiso   1.00
C1045  C     0.90849   0.15016   0.62557   0.00000  Uiso   1.00
H1046  H     0.90742   0.17126   0.65535   0.00000  Uiso   1.00
H1047  H     0.91570   0.11401   0.63742   0.00000  Uiso   1.00
H1048  H     0.93341   0.16506   0.60745   0.00000  Uiso   1.00
C1049  C     0.73753   0.24315   0.94731   0.00000  Uiso   1.00
H1050  H     0.75261   0.26413   0.92223   0.00000  Uiso   1.00
H1051  H     0.71059   0.22575   0.93237   0.00000  Uiso   1.00
H1052  H     0.72608   0.26855   0.97076   0.00000  Uiso   1.00
C1053  C     0.92912   0.09016   0.55269   0.00000  Uiso   1.00
H1054  H     0.91404   0.06920   0.57778   0.00000  Uiso   1.00
H1055  H     0.94055   0.06475   0.52924   0.00000  Uiso   1.00
H1056  H     0.95607   0.10755   0.56762   0.00000  Uiso   1.00
C1057  C     0.71472   0.08828   0.79019   0.00000  Uiso   1.00
H1058  H     0.73903   0.09428   0.81515   0.00000  Uiso   1.00
O1059  O     0.70875   0.04854   0.77918   0.00000  Uiso   1.00
C1060  C     0.95194   0.24505   0.70981   0.00000  Uiso   1.00
H1061  H     0.92763   0.23906   0.68485   0.00000  Uiso   1.00
O1062  O     0.95792   0.28480   0.72083   0.00000  Uiso   1.00
C1063  C     0.96218   0.08345   0.78086   0.00000  Uiso   1.00
H1064  H     0.94296   0.06375   0.75816   0.00000  Uiso   1.00
O1065  O     0.96899   0.06923   0.81920   0.00000  Uiso   1.00
C1066  C     0.70448   0.24989   0.71914   0.00000  Uiso   1.00
H1067  H     0.72370   0.26958   0.74184   0.00000  Uiso   1.00
O1068  O     0.69768   0.26410   0.68079   0.00000  Uiso   1.00
C1069  C     0.77334   0.05175   0.69493   0.00000  Uiso   1.00
H1070  H     0.77659   0.08530   0.67967   0.00000  Uiso   1.00
O1071  O     0.73976   0.03496   0.69070   0.00000  Uiso   1.00
C1072  C     0.89333   0.28159   0.80507   0.00000  Uiso   1.00
H1073  H     0.89007   0.24804   0.82033   0.00000  Uiso   1.00
O1074  O     0.92691   0.29837   0.80930   0.00000  Uiso   1.00
C1075  C     0.87742   0.04567   0.81927   0.00000  Uiso   1.00
H1076  H     0.89123   0.07858   0.81537   0.00000  Uiso   1.00
O1077  O     0.87781   0.02790   0.85650   0.00000  Uiso   1.00
C1078  C     0.78925   0.28767   0.68073   0.00000  Uiso   1.00
H1079  H     0.77544   0.25475   0.68463   0.00000  Uiso   1.00
O1080  O     0.78886   0.30543   0.64350   0.00000  Uiso   1.00
O1081  O     0.10655   0.53958   0.74999   0.00000  Uiso   1.00
O1082  O     0.22679   0.46042   0.75000   0.00000  Uiso   1.00
O1083  O     0.22679   0.53958   0.75000   0.00000  Uiso   1.00
O1084  O     0.10655   0.46042   0.74999   0.00000  Uiso   1.00
C1085  C     0.08750   0.50058   0.75079   0.00000  Uiso   1.00
C1086  C     0.24583   0.49942   0.74921   0.00000  Uiso   1.00
O1087  O     0.16666   0.53960   0.68513   0.00000  Uiso   1.00
O1088  O     0.16668   0.46040   0.81487   0.00000  Uiso   1.00
O1089  O     0.16668   0.53960   0.81487   0.00000  Uiso   1.00
O1090  O     0.16666   0.46040   0.68513   0.00000  Uiso   1.00
C1091  C     0.16608   0.50049   0.66468   0.00000  Uiso   1.00
C1092  C     0.16725   0.49951   0.83532   0.00000  Uiso   1.00
Cu1093 Cu    0.16667   0.54689   0.75000   0.00000  Uiso   1.00
Cu1094 Cu    0.16667   0.45311   0.75000   0.00000  Uiso   1.00
C1095  C     0.20218   0.48466   0.90960   0.00000  Uiso   1.00
C1096  C     0.13115   0.51533   0.59040   0.00000  Uiso   1.00
C1097  C     0.16686   0.49887   0.88361   0.00000  Uiso   1.00
C1098  C     0.16647   0.50113   0.61639   0.00000  Uiso   1.00
C1099  C     0.13127   0.51330   0.90306   0.00000  Uiso   1.00
C1100  C     0.20206   0.48669   0.59693   0.00000  Uiso   1.00
C1101  C     0.13248   0.51882   0.94967   0.00000  Uiso   1.00
C1102  C     0.20084   0.48117   0.55033   0.00000  Uiso   1.00
C1103  C     0.16663   0.50009   0.97645   0.00000  Uiso   1.00
C1104  C     0.16670   0.49991   0.52355   0.00000  Uiso   1.00
C1105  C     0.20111   0.48232   0.95631   0.00000  Uiso   1.00
C1106  C     0.13222   0.51767   0.54369   0.00000  Uiso   1.00
C1107  C     0.10082   0.54180   0.97080   0.00000  Uiso   1.00
C1108  C     0.23250   0.45819   0.52920   0.00000  Uiso   1.00
C1109  C     0.09980   0.53771   0.51668   0.00000  Uiso   1.00
C1110  C     0.23352   0.46227   0.98332   0.00000  Uiso   1.00
H1111  H     0.07357   0.55262   0.53072   0.00000  Uiso   1.00
H1112  H     0.25975   0.44736   0.96928   0.00000  Uiso   1.00
C1113  C     0.02364   0.46154   0.76855   0.00000  Uiso   1.00
C1114  C     0.30969   0.53846   0.73145   0.00000  Uiso   1.00
C1115  C     0.31439   0.45966   0.76497   0.00000  Uiso   1.00
C1116  C     0.01894   0.54034   0.73503   0.00000  Uiso   1.00
C1117  C     0.29052   0.49849   0.74739   0.00000  Uiso   1.00
C1118  C     0.04281   0.50151   0.75261   0.00000  Uiso   1.00
C1119  C     0.14067   0.35966   0.72102   0.00000  Uiso   1.00
C1120  C     0.19267   0.64034   0.77898   0.00000  Uiso   1.00
C1121  C     0.19051   0.35642   0.78083   0.00000  Uiso   1.00
C1122  C     0.14282   0.64358   0.71917   0.00000  Uiso   1.00
N1123  N     0.16667   0.61736   0.75000   0.00000  Uiso   1.00
N1124  N     0.16667   0.38264   0.75000   0.00000  Uiso   1.00
C1125  C     0.23979   0.47410   0.88663   0.00000  Uiso   1.00
H1126  H     0.24867   0.49768   0.86061   0.00000  Uiso   1.00
O1127  O     0.25948   0.43806   0.89418   0.00000  Uiso   1.00
C1128  C     0.09354   0.52590   0.61337   0.00000  Uiso   1.00
H1129  H     0.08466   0.50233   0.63939   0.00000  Uiso   1.00
O1130  O     0.07385   0.56194   0.60582   0.00000  Uiso   1.00
C1131  C     0.09151   0.51650   0.87443   0.00000  Uiso   1.00
H1132  H     0.09259   0.49542   0.84463   0.00000  Uiso   1.00
H1133  H     0.06659   0.50158   0.89254   0.00000  Uiso   1.00
H1134  H     0.08429   0.55265   0.86259   0.00000  Uiso   1.00
C1135  C     0.24182   0.48350   0.62557   0.00000  Uiso   1.00
H1136  H     0.24075   0.50459   0.65535   0.00000  Uiso   1.00
H1137  H     0.24903   0.44735   0.63742   0.00000  Uiso   1.00
H1138  H     0.26674   0.49839   0.60745   0.00000  Uiso   1.00
C1139  C     0.07086   0.57648   0.94731   0.00000  Uiso   1.00
H1140  H     0.08594   0.59747   0.92223   0.00000  Uiso   1.00
H1141  H     0.04393   0.55908   0.93237   0.00000  Uiso   1.00
H1142  H     0.05941   0.60188   0.97076   0.00000  Uiso   1.00
C1143  C     0.26245   0.42349   0.55269   0.00000  Uiso   1.00
H1144  H     0.24737   0.40253   0.57778   0.00000  Uiso   1.00
H1145  H     0.27388   0.39808   0.52924   0.00000  Uiso   1.00
H1146  H     0.28940   0.44089   0.56762   0.00000  Uiso   1.00
C1147  C     0.04806   0.42161   0.79019   0.00000  Uiso   1.00
H1148  H     0.07237   0.42761   0.81515   0.00000  Uiso   1.00
O1149  O     0.04208   0.38187   0.77918   0.00000  Uiso   1.00
C1150  C     0.28528   0.57839   0.70981   0.00000  Uiso   1.00
H1151  H     0.26096   0.57239   0.68485   0.00000  Uiso   1.00
O1152  O     0.29126   0.61813   0.72083   0.00000  Uiso   1.00
C1153  C     0.29552   0.41678   0.78086   0.00000  Uiso   1.00
H1154  H     0.27630   0.39708   0.75816   0.00000  Uiso   1.00
O1155  O     0.30232   0.40256   0.81920   0.00000  Uiso   1.00
C1156  C     0.03782   0.58322   0.71914   0.00000  Uiso   1.00
H1157  H     0.05704   0.60292   0.74184   0.00000  Uiso   1.00
O1158  O     0.03101   0.59744   0.68079   0.00000  Uiso   1.00
C1159  C     0.10667   0.38508   0.69493   0.00000  Uiso   1.00
H1160  H     0.10993   0.41863   0.67967   0.00000  Uiso   1.00
O1161  O     0.07309   0.36830   0.69070   0.00000  Uiso   1.00
C1162  C     0.22666   0.61492   0.80507   0.00000  Uiso   1.00
H1163  H     0.22341   0.58137   0.82033   0.00000  Uiso   1.00
O1164  O     0.26024   0.63170   0.80930   0.00000  Uiso   1.00
C1165  C     0.21075   0.37900   0.81927   0.00000  Uiso   1.00
H1166  H     0.22456   0.41192   0.81537   0.00000  Uiso   1.00
O1167  O     0.21114   0.36123   0.85650   0.00000  Uiso   1.00
C1168  C     0.12258   0.62100   0.68073   0.00000  Uiso   1.00
H1169  H     0.10877   0.58808   0.68463   0.00000  Uiso   1.00
O1170  O     0.12219   0.63877   0.64350   0.00000  Uiso   1.00
O1171  O     0.43988   0.53958   0.74999   0.00000  Uiso   1.00
O1172  O     0.56012   0.46042   0.75000   0.00000  Uiso   1.00
O1173  O     0.56012   0.53958   0.75000   0.00000  Uiso   1.00
O1174  O     0.43988   0.46042   0.74999   0.00000  Uiso   1.00
C1175  C     0.42084   0.50058   0.75079   0.00000  Uiso   1.00
C1176  C     0.57916   0.49942   0.74921   0.00000  Uiso   1.00
O1177  O     0.49999   0.53960   0.68513   0.00000  Uiso   1.00
O1178  O     0.50001   0.46040   0.81487   0.00000  Uiso   1.00
O1179  O     0.50001   0.53960   0.81487   0.00000  Uiso   1.00
O1180  O     0.49999   0.46040   0.68513   0.00000  Uiso   1.00
C1181  C     0.49942   0.50049   0.66468   0.00000  Uiso   1.00
C1182  C     0.50058   0.49951   0.83532   0.00000  Uiso   1.00
Cu1183 Cu    0.50000   0.54689   0.75000   0.00000  Uiso   1.00
Cu1184 Cu    0.50000   0.45311   0.75000   0.00000  Uiso   1.00
C1185  C     0.53551   0.48466   0.90960   0.00000  Uiso   1.00
C1186  C     0.46448   0.51533   0.59040   0.00000  Uiso   1.00
C1187  C     0.50019   0.49887   0.88361   0.00000  Uiso   1.00
C1188  C     0.49980   0.50113   0.61639   0.00000  Uiso   1.00
C1189  C     0.46460   0.51330   0.90306   0.00000  Uiso   1.00
C1190  C     0.53540   0.48669   0.59693   0.00000  Uiso   1.00
C1191  C     0.46582   0.51882   0.94967   0.00000  Uiso   1.00
C1192  C     0.53417   0.48117   0.55033   0.00000  Uiso   1.00
C1193  C     0.49996   0.50009   0.97645   0.00000  Uiso   1.00
C1194  C     0.50003   0.49991   0.52355   0.00000  Uiso   1.00
C1195  C     0.53444   0.48232   0.95631   0.00000  Uiso   1.00
C1196  C     0.46555   0.51767   0.54369   0.00000  Uiso   1.00
C1197  C     0.43416   0.54180   0.97080   0.00000  Uiso   1.00
C1198  C     0.56583   0.45819   0.52920   0.00000  Uiso   1.00
C1199  C     0.43313   0.53771   0.51668   0.00000  Uiso   1.00
C1200  C     0.56686   0.46227   0.98332   0.00000  Uiso   1.00
H1201  H     0.40690   0.55262   0.53072   0.00000  Uiso   1.00
H1202  H     0.59309   0.44736   0.96928   0.00000  Uiso   1.00
C1203  C     0.35698   0.46154   0.76855   0.00000  Uiso   1.00
C1204  C     0.64302   0.53846   0.73145   0.00000  Uiso   1.00
C1205  C     0.64772   0.45966   0.76497   0.00000  Uiso   1.00
C1206  C     0.35228   0.54034   0.73503   0.00000  Uiso   1.00
C1207  C     0.62385   0.49849   0.74739   0.00000  Uiso   1.00
C1208  C     0.37615   0.50151   0.75261   0.00000  Uiso   1.00
C1209  C     0.47400   0.35966   0.72102   0.00000  Uiso   1.00
C1210  C     0.52600   0.64034   0.77898   0.00000  Uiso   1.00
C1211  C     0.52384   0.35642   0.78083   0.00000  Uiso   1.00
C1212  C     0.47616   0.64358   0.71917   0.00000  Uiso   1.00
N1213  N     0.50000   0.61736   0.75000   0.00000  Uiso   1.00
N1214  N     0.50000   0.38264   0.75000   0.00000  Uiso   1.00
C1215  C     0.57313   0.47410   0.88663   0.00000  Uiso   1.00
H1216  H     0.58200   0.49768   0.86061   0.00000  Uiso   1.00
O1217  O     0.59282   0.43806   0.89418   0.00000  Uiso   1.00
C1218  C     0.42687   0.52590   0.61337   0.00000  Uiso   1.00
H1219  H     0.41799   0.50233   0.63939   0.00000  Uiso   1.00
O1220  O     0.40718   0.56194   0.60582   0.00000  Uiso   1.00
C1221  C     0.42484   0.51650   0.87443   0.00000  Uiso   1.00
H1222  H     0.42592   0.49542   0.84463   0.00000  Uiso   1.00
H1223  H     0.39992   0.50158   0.89254   0.00000  Uiso   1.00
H1224  H     0.41762   0.55265   0.86259   0.00000  Uiso   1.00
C1225  C     0.57516   0.48350   0.62557   0.00000  Uiso   1.00
H1226  H     0.57408   0.50459   0.65535   0.00000  Uiso   1.00
H1227  H     0.58236   0.44735   0.63742   0.00000  Uiso   1.00
H1228  H     0.60008   0.49839   0.60745   0.00000  Uiso   1.00
C1229  C     0.40420   0.57648   0.94731   0.00000  Uiso   1.00
H1230  H     0.41928   0.59747   0.92223   0.00000  Uiso   1.00
H1231  H     0.37726   0.55908   0.93237   0.00000  Uiso   1.00
H1232  H     0.39275   0.60188   0.97076   0.00000  Uiso   1.00
C1233  C     0.59579   0.42349   0.55269   0.00000  Uiso   1.00
H1234  H     0.58071   0.40253   0.57778   0.00000  Uiso   1.00
H1235  H     0.60721   0.39808   0.52924   0.00000  Uiso   1.00
H1236  H     0.62273   0.44089   0.56762   0.00000  Uiso   1.00
C1237  C     0.38139   0.42161   0.79019   0.00000  Uiso   1.00
H1238  H     0.40570   0.42761   0.81515   0.00000  Uiso   1.00
O1239  O     0.37541   0.38187   0.77918   0.00000  Uiso   1.00
C1240  C     0.61861   0.57839   0.70981   0.00000  Uiso   1.00
H1241  H     0.59430   0.57239   0.68485   0.00000  Uiso   1.00
O1242  O     0.62459   0.61813   0.72083   0.00000  Uiso   1.00
C1243  C     0.62885   0.41678   0.78086   0.00000  Uiso   1.00
H1244  H     0.60963   0.39708   0.75816   0.00000  Uiso   1.00
O1245  O     0.63565   0.40256   0.81920   0.00000  Uiso   1.00
C1246  C     0.37115   0.58322   0.71914   0.00000  Uiso   1.00
H1247  H     0.39037   0.60292   0.74184   0.00000  Uiso   1.00
O1248  O     0.36435   0.59744   0.68079   0.00000  Uiso   1.00
C1249  C     0.44000   0.38508   0.69493   0.00000  Uiso   1.00
H1250  H     0.44326   0.41863   0.67967   0.00000  Uiso   1.00
O1251  O     0.40643   0.36830   0.69070   0.00000  Uiso   1.00
C1252  C     0.56000   0.61492   0.80507   0.00000  Uiso   1.00
H1253  H     0.55674   0.58137   0.82033   0.00000  Uiso   1.00
O1254  O     0.59357   0.63170   0.80930   0.00000  Uiso   1.00
C1255  C     0.54408   0.37900   0.81927   0.00000  Uiso   1.00
H1256  H     0.55790   0.41192   0.81537   0.00000  Uiso   1.00
O1257  O     0.54447   0.36123   0.85650   0.00000  Uiso   1.00
C1258  C     0.45592   0.62100   0.68073   0.00000  Uiso   1.00
H1259  H     0.44210   0.58808   0.68463   0.00000  Uiso   1.00
O1260  O     0.45553   0.63877   0.64350   0.00000  Uiso   1.00
O1261  O     0.77321   0.53958   0.74999   0.00000  Uiso   1.00
O1262  O     0.89345   0.46042   0.75000   0.00000  Uiso   1.00
O1263  O     0.89345   0.53958   0.75000   0.00000  Uiso   1.00
O1264  O     0.77321   0.46042   0.74999   0.00000  Uiso   1.00
C1265  C     0.75417   0.50058   0.75079   0.00000  Uiso   1.00
C1266  C     0.91250   0.49942   0.74921   0.00000  Uiso   1.00
O1267  O     0.83332   0.53960   0.68513   0.00000  Uiso   1.00
O1268  O     0.83334   0.46040   0.81487   0.00000  Uiso   1.00
O1269  O     0.83334   0.53960   0.81487   0.00000  Uiso   1.00
O1270  O     0.83332   0.46040   0.68513   0.00000  Uiso   1.00
C1271  C     0.83275   0.50049   0.66468   0.00000  Uiso   1.00
C1272  C     0.83391   0.49951   0.83532   0.00000  Uiso   1.00
Cu1273 Cu    0.83333   0.54689   0.75000   0.00000  Uiso   1.00
Cu1274 Cu    0.83333   0.45311   0.75000   0.00000  Uiso   1.00
C1275  C     0.86885   0.48466   0.90960   0.00000  Uiso   1.00
C1276  C     0.79782   0.51533   0.59040   0.00000  Uiso   1.00
C1277  C     0.83353   0.49887   0.88361   0.00000  Uiso   1.00
C1278  C     0.83314   0.50113   0.61639   0.00000  Uiso   1.00
C1279  C     0.79793   0.51330   0.90306   0.00000  Uiso   1.00
C1280  C     0.86873   0.48669   0.59693   0.00000  Uiso   1.00
C1281  C     0.79915   0.51882   0.94967   0.00000  Uiso   1.00
C1282  C     0.86751   0.48117   0.55033   0.00000  Uiso   1.00
C1283  C     0.83330   0.50009   0.97645   0.00000  Uiso   1.00
C1284  C     0.83336   0.49991   0.52355   0.00000  Uiso   1.00
C1285  C     0.86777   0.48232   0.95631   0.00000  Uiso   1.00
C1286  C     0.79889   0.51767   0.54369   0.00000  Uiso   1.00
C1287  C     0.76749   0.54180   0.97080   0.00000  Uiso   1.00
C1288  C     0.89917   0.45819   0.52920   0.00000  Uiso   1.00
C1289  C     0.76647   0.53771   0.51668   0.00000  Uiso   1.00
C1290  C     0.90019   0.46227   0.98332   0.00000  Uiso   1.00
H1291  H     0.74024   0.55262   0.53072   0.00000  Uiso   1.00
H1292  H     0.92642   0.44736   0.96928   0.00000  Uiso   1.00
C1293  C     0.69031   0.46154   0.76855   0.00000  Uiso   1.00
C1294  C     0.97636   0.53846   0.73145   0.00000  Uiso   1.00
C1295  C     0.98106   0.45966   0.76497   0.00000  Uiso   1.00
C1296  C     0.68561   0.54034   0.73503   0.00000  Uiso   1.00
C1297  C     0.95719   0.49849   0.74739   0.00000  Uiso   1.00
C1298  C     0.70948   0.50151   0.75261   0.00000  Uiso   1.00
C1299  C     0.80733   0.35966   0.72102   0.00000  Uiso   1.00
C1300  C     0.85933   0.64034   0.77898   0.00000  Uiso   1.00
C1301  C     0.85718   0.35642   0.78083   0.00000  Uiso   1.00
C1302  C     0.80949   0.64358   0.71917   0.00000  Uiso   1.00
N1303  N     0.83333   0.61736   0.75000   0.00000  Uiso   1.00
N1304  N     0.83333   0.38264   0.75000   0.00000  Uiso   1.00
C1305  C     0.90646   0.47410   0.88663   0.00000  Uiso   1.00
H1306  H     0.91534   0.49768   0.86061   0.00000  Uiso   1.00
O1307  O     0.92615   0.43806   0.89418   0.00000  Uiso   1.00
C1308  C     0.76021   0.52590   0.61337   0.00000  Uiso   1.00
H1309  H     0.75133   0.50233   0.63939   0.00000  Uiso   1.00
O1310  O     0.74052   0.56194   0.60582   0.00000  Uiso   1.00
C1311  C     0.75817   0.51650   0.87443   0.00000  Uiso   1.00
H1312  H     0.75925   0.49542   0.84463   0.00000  Uiso   1.00
H1313  H     0.73326   0.50158   0.89254   0.00000  Uiso   1.00
H1314  H     0.75096   0.55265   0.86259   0.00000  Uiso   1.00
C1315  C     0.90849   0.48350   0.62557   0.00000  Uiso   1.00
H1316  H     0.90742   0.50459   0.65535   0.00000  Uiso   1.00
H1317  H     0.91570   0.44735   0.63742   0.00000  Uiso   1.00
H1318  H     0.93341   0.49839   0.60745   0.00000  Uiso   1.00
C1319  C     0.73753   0.57648   0.94731   0.00000  Uiso   1.00
H1320  H     0.75261   0.59747   0.92223   0.00000  Uiso   1.00
H1321  H     0.71059   0.55908   0.93237   0.00000  Uiso   1.00
H1322  H     0.72608   0.60188   0.97076   0.00000  Uiso   1.00
C1323  C     0.92912   0.42349   0.55269   0.00000  Uiso   1.00
H1324  H     0.91404   0.40253   0.57778   0.00000  Uiso   1.00
H1325  H     0.94055   0.39808   0.52924   0.00000  Uiso   1.00
H1326  H     0.95607   0.44089   0.56762   0.00000  Uiso   1.00
C1327  C     0.71472   0.42161   0.79019   0.00000  Uiso   1.00
H1328  H     0.73903   0.42761   0.81515   0.00000  Uiso   1.00
O1329  O     0.70875   0.38187   0.77918   0.00000  Uiso   1.00
C1330  C     0.95194   0.57839   0.70981   0.00000  Uiso   1.00
H1331  H     0.92763   0.57239   0.68485   0.00000  Uiso   1.00
O1332  O     0.95792   0.61813   0.72083   0.00000  Uiso   1.00
C1333  C     0.96218   0.41678   0.78086   0.00000  Uiso   1.00
H1334  H     0.94296   0.39708   0.75816   0.00000  Uiso   1.00
O1335  O     0.96899   0.40256   0.81920   0.00000  Uiso   1.00
C1336  C     0.70448   0.58322   0.71914   0.00000  Uiso   1.00
H1337  H     0.72370   0.60292   0.74184   0.00000  Uiso   1.00
O1338  O     0.69768   0.59744   0.68079   0.00000  Uiso   1.00
C1339  C     0.77334   0.38508   0.69493   0.00000  Uiso   1.00
H1340  H     0.77659   0.41863   0.67967   0.00000  Uiso   1.00
O1341  O     0.73976   0.36830   0.69070   0.00000  Uiso   1.00
C1342  C     0.89333   0.61492   0.80507   0.00000  Uiso   1.00
H1343  H     0.89007   0.58137   0.82033   0.00000  Uiso   1.00
O1344  O     0.92691   0.63170   0.80930   0.00000  Uiso   1.00
C1345  C     0.87742   0.37900   0.81927   0.00000  Uiso   1.00
H1346  H     0.89123   0.41192   0.81537   0.00000  Uiso   1.00
O1347  O     0.87781   0.36123   0.85650   0.00000  Uiso   1.00
C1348  C     0.78925   0.62100   0.68073   0.00000  Uiso   1.00
H1349  H     0.77544   0.58808   0.68463   0.00000  Uiso   1.00
O1350  O     0.78886   0.63877   0.64350   0.00000  Uiso   1.00
O1351  O     0.10655   0.87291   0.74999   0.00000  Uiso   1.00
O1352  O     0.22679   0.79375   0.75000   0.00000  Uiso   1.00
O1353  O     0.22679   0.87291   0.75000   0.00000  Uiso   1.00
O1354  O     0.10655   0.79375   0.74999   0.00000  Uiso   1.00
C1355  C     0.08750   0.83391   0.75079   0.00000  Uiso   1.00
C1356  C     0.24583   0.83276   0.74921   0.00000  Uiso   1.00
O1357  O     0.16666   0.87293   0.68513   0.00000  Uiso   1.00
O1358  O     0.16668   0.79373   0.81487   0.00000  Uiso   1.00
O1359  O     0.16668   0.87293   0.81487   0.00000  Uiso   1.00
O1360  O     0.16666   0.79373   0.68513   0.00000  Uiso   1.00
C1361  C     0.16608   0.83382   0.66468   0.00000  Uiso   1.00
C1362  C     0.16725   0.83285   0.83532   0.00000  Uiso   1.00
Cu1363 Cu    0.16667   0.88022   0.75000   0.00000  Uiso   1.00
Cu1364 Cu    0.16667   0.78645   0.75000   0.00000  Uiso   1.00
C1365  C     0.20218   0.81800   0.90960   0.00000  Uiso   1.00
C1366  C     0.13115   0.84867   0.59040   0.00000  Uiso   1.00
C1367  C     0.16686   0.83220   0.88361   0.00000  Uiso   1.00
C1368  C     0.16647   0.83447   0.61639   0.00000  Uiso   1.00
C1369  C     0.13127   0.84664   0.90306   0.00000  Uiso   1.00
C1370  C     0.20206   0.82002   0.59693   0.00000  Uiso   1.00
C1371  C     0.13248   0.85215   0.94967   0.00000  Uiso   1.00
C1372  C     0.20084   0.81450   0.55033   0.00000  Uiso   1.00
C1373  C     0.16663   0.83342   0.97645   0.00000  Uiso   1.00
C1374  C     0.16670   0.83324   0.52355   0.00000  Uiso   1.00
C1375  C     0.20111   0.81565   0.95631   0.00000  Uiso   1.00
C1376  C     0.13222   0.85101   0.54369   0.00000  Uiso   1.00
C1377  C     0.10082   0.87513   0.97080   0.00000  Uiso   1.00
C1378  C     0.23250   0.79152   0.52920   0.00000  Uiso   1.00
C1379  C     0.09980   0.87105   0.51668   0.00000  Uiso   1.00
C1380  C     0.23352   0.79561   0.98332   0.00000  Uiso   1.00
H1381  H     0.07357   0.88595   0.53072   0.00000  Uiso   1.00
H1382  H     0.25975   0.78070   0.96928   0.00000  Uiso   1.00
C1383  C     0.02364   0.79487   0.76855   0.00000  Uiso   1.00
C1384  C     0.30969   0.87180   0.73145   0.00000  Uiso   1.00
C1385  C     0.31439   0.79299   0.76497   0.00000  Uiso   1.00
C1386  C     0.01894   0.87367   0.73503   0.00000  Uiso   1.00
C1387  C     0.29052   0.83182   0.74739   0.00000  Uiso   1.00
C1388  C     0.04281   0.83485   0.75261   0.00000  Uiso   1.00
C1389  C     0.14067   0.69299   0.72102   0.00000  Uiso   1.00
C1390  C     0.19267   0.97367   0.77898   0.00000  Uiso   1.00
C1391  C     0.19051   0.68975   0.78083   0.00000  Uiso   1.00
C1392  C     0.14282   0.97691   0.71917   0.00000  Uiso   1.00
N1393  N     0.16667   0.95069   0.75000   0.00000  Uiso   1.00
N1394  N     0.16667   0.71598   0.75000   0.00000  Uiso   1.00
C1395  C     0.23979   0.80743   0.88663   0.00000  Uiso   1.00
H1396  H     0.24867   0.83101   0.86061   0.00000  Uiso   1.00
O1397  O     0.25948   0.77140   0.89418   0.00000  Uiso   1.00
C1398  C     0.09354   0.85924   0.61337   0.00000  Uiso   1.00
H1399  H     0.08466   0.83566   0.63939   0.00000  Uiso   1.00
O1400  O     0.07385   0.89527   0.60582   0.00000  Uiso   1.00
C1401  C     0.09151   0.84983   0.87443   0.00000  Uiso   1.00
H1402  H     0.09259   0.82875   0.84463   0.00000  Uiso   1.00
H1403  H     0.06659   0.83491   0.89254   0.00000  Uiso   1.00
H1404  H     0.08429   0.88598   0.86259   0.00000  Uiso   1.00
C1405  C     0.24182   0.81683   0.62557   0.00000  Uiso   1.00
H1406  H     0.24075   0.83793   0.65535   0.00000  Uiso   1.00
H1407  H     0.24903   0.78068   0.63742   0.00000  Uiso   1.00
H1408  H     0.26674   0.83173   0.60745   0.00000  Uiso   1.00
C1409  C     0.07086   0.90982   0.94731   0.00000  Uiso   1.00
H1410  H     0.08594   0.93080   0.92223   0.00000  Uiso   1.00
H1411  H     0.04393   0.89241   0.93237   0.00000  Uiso   1.00
H1412  H     0.05941   0.93521   0.97076   0.00000  Uiso   1.00
C1413  C     0.26245   0.75683   0.55269   0.00000  Uiso   1.00
H1414  H     0.24737   0.73586   0.57778   0.00000  Uiso   1.00
H1415  H     0.27388   0.73142   0.52924   0.00000  Uiso   1.00
H1416  H     0.28940   0.77422   0.56762   0.00000  Uiso   1.00
C1417  C     0.04806   0.75495   0.79019   0.00000  Uiso   1.00
H1418  H     0.07237   0.76094   0.81515   0.00000  Uiso   1.00
O1419  O     0.04208   0.71520   0.77918   0.00000  Uiso   1.00
C1420  C     0.28528   0.91172   0.70981   0.00000  Uiso   1.00
H1421  H     0.26096   0.90573   0.68485   0.00000  Uiso   1.00
O1422  O     0.29126   0.95147   0.72083   0.00000  Uiso   1.00
C1423  C     0.29552   0.75011   0.78086   0.00000  Uiso   1.00
H1424  H     0.27630   0.73042   0.75816   0.00000  Uiso   1.00
O1425  O     0.30232   0.73590   0.81920   0.00000  Uiso   1.00
C1426  C     0.03782   0.91655   0.71914   0.00000  Uiso   1.00
H1427  H     0.05704   0.93625   0.74184   0.00000  Uiso   1.00
O1428  O     0.03101   0.93077   0.68079   0.00000  Uiso   1.00
C1429  C     0.10667   0.71841   0.69493   0.00000  Uiso   1.00
H1430  H     0.10993   0.75196   0.67967   0.00000  Uiso   1.00
O1431  O     0.07309   0.70163   0.69070   0.00000  Uiso   1.00
C1432  C     0.22666   0.94825   0.80507   0.00000  Uiso   1.00
H1433  H     0.22341   0.91470   0.82033   0.00000  Uiso   1.00
O1434  O     0.26024   0.96504   0.80930   0.00000  Uiso   1.00
C1435  C     0.21075   0.71233   0.81927   0.00000  Uiso   1.00
H1436  H     0.22456   0.74525   0.81537   0.00000  Uiso   1.00
O1437  O     0.21114   0.69457   0.85650   0.00000  Uiso   1.00
C1438  C     0.12258   0.95433   0.68073   0.00000  Uiso   1.00
H1439  H     0.10877   0.92142   0.68463   0.00000  Uiso   1.00
O1440  O     0.12219   0.97210   0.64350   0.00000  Uiso   1.00
O1441  O     0.43988   0.87291   0.74999   0.00000  Uiso   1.00
O1442  O     0.56012   0.79375   0.75000   0.00000  Uiso   1.00
O1443  O     0.56012   0.87291   0.75000   0.00000  Uiso   1.00
O1444  O     0.43988   0.79375   0.74999   0.00000  Uiso   1.00
C1445  C     0.42084   0.83391   0.75079   0.00000  Uiso   1.00
C1446  C     0.57916   0.83276   0.74921   0.00000  Uiso   1.00
O1447  O     0.49999   0.87293   0.68513   0.00000  Uiso   1.00
O1448  O     0.50001   0.79373   0.81487   0.00000  Uiso   1.00
O1449  O     0.50001   0.87293   0.81487   0.00000  Uiso   1.00
O1450  O     0.49999   0.79373   0.68513   0.00000  Uiso   1.00
C1451  C     0.49942   0.83382   0.66468   0.00000  Uiso   1.00
C1452  C     0.50058   0.83285   0.83532   0.00000  Uiso   1.00
Cu1453 Cu    0.50000   0.88022   0.75000   0.00000  Uiso   1.00
Cu1454 Cu    0.50000   0.78645   0.75000   0.00000  Uiso   1.00
C1455  C     0.53551   0.81800   0.90960   0.00000  Uiso   1.00
C1456  C     0.46448   0.84867   0.59040   0.00000  Uiso   1.00
C1457  C     0.50019   0.83220   0.88361   0.00000  Uiso   1.00
C1458  C     0.49980   0.83447   0.61639   0.00000  Uiso   1.00
C1459  C     0.46460   0.84664   0.90306   0.00000  Uiso   1.00
C1460  C     0.53540   0.82002   0.59693   0.00000  Uiso   1.00
C1461  C     0.46582   0.85215   0.94967   0.00000  Uiso   1.00
C1462  C     0.53417   0.81450   0.55033   0.00000  Uiso   1.00
C1463  C     0.49996   0.83342   0.97645   0.00000  Uiso   1.00
C1464  C     0.50003   0.83324   0.52355   0.00000  Uiso   1.00
C1465  C     0.53444   0.81565   0.95631   0.00000  Uiso   1.00
C1466  C     0.46555   0.85101   0.54369   0.00000  Uiso   1.00
C1467  C     0.43416   0.87513   0.97080   0.00000  Uiso   1.00
C1468  C     0.56583   0.79152   0.52920   0.00000  Uiso   1.00
C1469  C     0.43313   0.87105   0.51668   0.00000  Uiso   1.00
C1470  C     0.56686   0.79561   0.98332   0.00000  Uiso   1.00
H1471  H     0.40690   0.88595   0.53072   0.00000  Uiso   1.00
H1472  H     0.59309   0.78070   0.96928   0.00000  Uiso   1.00
C1473  C     0.35698   0.79487   0.76855   0.00000  Uiso   1.00
C1474  C     0.64302   0.87180   0.73145   0.00000  Uiso   1.00
C1475  C     0.64772   0.79299   0.76497   0.00000  Uiso   1.00
C1476  C     0.35228   0.87367   0.73503   0.00000  Uiso   1.00
C1477  C     0.62385   0.83182   0.74739   0.00000  Uiso   1.00
C1478  C     0.37615   0.83485   0.75261   0.00000  Uiso   1.00
C1479  C     0.47400   0.69299   0.72102   0.00000  Uiso   1.00
C1480  C     0.52600   0.97367   0.77898   0.00000  Uiso   1.00
C1481  C     0.52384   0.68975   0.78083   0.00000  Uiso   1.00
C1482  C     0.47616   0.97691   0.71917   0.00000  Uiso   1.00
N1483  N     0.50000   0.95069   0.75000   0.00000  Uiso   1.00
N1484  N     0.50000   0.71598   0.75000   0.00000  Uiso   1.00
C1485  C     0.57313   0.80743   0.88663   0.00000  Uiso   1.00
H1486  H     0.58200   0.83101   0.86061   0.00000  Uiso   1.00
O1487  O     0.59282   0.77140   0.89418   0.00000  Uiso   1.00
C1488  C     0.42687   0.85924   0.61337   0.00000  Uiso   1.00
H1489  H     0.41799   0.83566   0.63939   0.00000  Uiso   1.00
O1490  O     0.40718   0.89527   0.60582   0.00000  Uiso   1.00
C1491  C     0.42484   0.84983   0.87443   0.00000  Uiso   1.00
H1492  H     0.42592   0.82875   0.84463   0.00000  Uiso   1.00
H1493  H     0.39992   0.83491   0.89254   0.00000  Uiso   1.00
H1494  H     0.41762   0.88598   0.86259   0.00000  Uiso   1.00
C1495  C     0.57516   0.81683   0.62557   0.00000  Uiso   1.00
H1496  H     0.57408   0.83793   0.65535   0.00000  Uiso   1.00
H1497  H     0.58236   0.78068   0.63742   0.00000  Uiso   1.00
H1498  H     0.60008   0.83173   0.60745   0.00000  Uiso   1.00
C1499  C     0.40420   0.90982   0.94731   0.00000  Uiso   1.00
H1500  H     0.41928   0.93080   0.92223   0.00000  Uiso   1.00
H1501  H     0.37726   0.89241   0.93237   0.00000  Uiso   1.00
H1502  H     0.39275   0.93521   0.97076   0.00000  Uiso   1.00
C1503  C     0.59579   0.75683   0.55269   0.00000  Uiso   1.00
H1504  H     0.58071   0.73586   0.57778   0.00000  Uiso   1.00
H1505  H     0.60721   0.73142   0.52924   0.00000  Uiso   1.00
H1506  H     0.62273   0.77422   0.56762   0.00000  Uiso   1.00
C1507  C     0.38139   0.75495   0.79019   0.00000  Uiso   1.00
H1508  H     0.40570   0.76094   0.81515   0.00000  Uiso   1.00
O1509  O     0.37541   0.71520   0.77918   0.00000  Uiso   1.00
C1510  C     0.61861   0.91172   0.70981   0.00000  Uiso   1.00
H1511  H     0.59430   0.90573   0.68485   0.00000  Uiso   1.00
O1512  O     0.62459   0.95147   0.72083   0.00000  Uiso   1.00
C1513  C     0.62885   0.75011   0.78086   0.00000  Uiso   1.00
H1514  H     0.60963   0.73042   0.75816   0.00000  Uiso   1.00
O1515  O     0.63565   0.73590   0.81920   0.00000  Uiso   1.00
C1516  C     0.37115   0.91655   0.71914   0.00000  Uiso   1.00
H1517  H     0.39037   0.93625   0.74184   0.00000  Uiso   1.00
O1518  O     0.36435   0.93077   0.68079   0.00000  Uiso   1.00
C1519  C     0.44000   0.71841   0.69493   0.00000  Uiso   1.00
H1520  H     0.44326   0.75196   0.67967   0.00000  Uiso   1.00
O1521  O     0.40643   0.70163   0.69070   0.00000  Uiso   1.00
C1522  C     0.56000   0.94825   0.80507   0.00000  Uiso   1.00
H1523  H     0.55674   0.91470   0.82033   0.00000  Uiso   1.00
O1524  O     0.59357   0.96504   0.80930   0.00000  Uiso   1.00
C1525  C     0.54408   0.71233   0.81927   0.00000  Uiso   1.00
H1526  H     0.55790   0.74525   0.81537   0.00000  Uiso   1.00
O1527  O     0.54447   0.69457   0.85650   0.00000  Uiso   1.00
C1528  C     0.45592   0.95433   0.68073   0.00000  Uiso   1.00
H1529  H     0.44210   0.92142   0.68463   0.00000  Uiso   1.00
O1530  O     0.45553   0.97210   0.64350   0.00000  Uiso   1.00
O1531  O     0.77321   0.87291   0.74999   0.00000  Uiso   1.00
O1532  O     0.89345   0.79375   0.75000   0.00000  Uiso   1.00
O1533  O     0.89345   0.87291   0.75000   0.00000  Uiso   1.00
O1534  O     0.77321   0.79375   0.74999   0.00000  Uiso   1.00
C1535  C     0.75417   0.83391   0.75079   0.00000  Uiso   1.00
C1536  C     0.91250   0.83276   0.74921   0.00000  Uiso   1.00
O1537  O     0.83332   0.87293   0.68513   0.00000  Uiso   1.00
O1538  O     0.83334   0.79373   0.81487   0.00000  Uiso   1.00
O1539  O     0.83334   0.87293   0.81487   0.00000  Uiso   1.00
O1540  O     0.83332   0.79373   0.68513   0.00000  Uiso   1.00
C1541  C     0.83275   0.83382   0.66468   0.00000  Uiso   1.00
C1542  C     0.83391   0.83285   0.83532   0.00000  Uiso   1.00
Cu1543 Cu    0.83333   0.88022   0.75000   0.00000  Uiso   1.00
Cu1544 Cu    0.83333   0.78645   0.75000   0.00000  Uiso   1.00
C1545  C     0.86885   0.81800   0.90960   0.00000  Uiso   1.00
C1546  C     0.79782   0.84867   0.59040   0.00000  Uiso   1.00
C1547  C     0.83353   0.83220   0.88361   0.00000  Uiso   1.00
C1548  C     0.83314   0.83447   0.61639   0.00000  Uiso   1.00
C1549  C     0.79793   0.84664   0.90306   0.00000  Uiso   1.00
C1550  C     0.86873   0.82002   0.59693   0.00000  Uiso   1.00
C1551  C     0.79915   0.85215   0.94967   0.00000  Uiso   1.00
C1552  C     0.86751   0.81450   0.55033   0.00000  Uiso   1.00
C1553  C     0.83330   0.83342   0.97645   0.00000  Uiso   1.00
C1554  C     0.83336   0.83324   0.52355   0.00000  Uiso   1.00
C1555  C     0.86777   0.81565   0.95631   0.00000  Uiso   1.00
C1556  C     0.79889   0.85101   0.54369   0.00000  Uiso   1.00
C1557  C     0.76749   0.87513   0.97080   0.00000  Uiso   1.00
C1558  C     0.89917   0.79152   0.52920   0.00000  Uiso   1.00
C1559  C     0.76647   0.87105   0.51668   0.00000  Uiso   1.00
C1560  C     0.90019   0.79561   0.98332   0.00000  Uiso   1.00
H1561  H     0.74024   0.88595   0.53072   0.00000  Uiso   1.00
H1562  H     0.92642   0.78070   0.96928   0.00000  Uiso   1.00
C1563  C     0.69031   0.79487   0.76855   0.00000  Uiso   1.00
C1564  C     0.97636   0.87180   0.73145   0.00000  Uiso   1.00
C1565  C     0.98106   0.79299   0.76497   0.00000  Uiso   1.00
C1566  C     0.68561   0.87367   0.73503   0.00000  Uiso   1.00
C1567  C     0.95719   0.83182   0.74739   0.00000  Uiso   1.00
C1568  C     0.70948   0.83485   0.75261   0.00000  Uiso   1.00
C1569  C     0.80733   0.69299   0.72102   0.00000  Uiso   1.00
C1570  C     0.85933   0.97367   0.77898   0.00000  Uiso   1.00
C1571  C     0.85718   0.68975   0.78083   0.00000  Uiso   1.00
C1572  C     0.80949   0.97691   0.71917   0.00000  Uiso   1.00
N1573  N     0.83333   0.95069   0.75000   0.00000  Uiso   1.00
N1574  N     0.83333   0.71598   0.75000   0.00000  Uiso   1.00
C1575  C     0.90646   0.80743   0.88663   0.00000  Uiso   1.00
H1576  H     0.91534   0.83101   0.86061   0.00000  Uiso   1.00
O1577  O     0.92615   0.77140   0.89418   0.00000  Uiso   1.00
C1578  C     0.76021   0.85924   0.61337   0.00000  Uiso   1.00
H1579  H     0.75133   0.83566   0.63939   0.00000  Uiso   1.00
O1580  O     0.74052   0.89527   0.60582   0.00000  Uiso   1.00
C1581  C     0.75817   0.84983   0.87443   0.00000  Uiso   1.00
H1582  H     0.75925   0.82875   0.84463   0.00000  Uiso   1.00
H1583  H     0.73326   0.83491   0.89254   0.00000  Uiso   1.00
H1584  H     0.75096   0.88598   0.86259   0.00000  Uiso   1.00
C1585  C     0.90849   0.81683   0.62557   0.00000  Uiso   1.00
H1586  H     0.90742   0.83793   0.65535   0.00000  Uiso   1.00
H1587  H     0.91570   0.78068   0.63742   0.00000  Uiso   1.00
H1588  H     0.93341   0.83173   0.60745   0.00000  Uiso   1.00
C1589  C     0.73753   0.90982   0.94731   0.00000  Uiso   1.00
H1590  H     0.75261   0.93080   0.92223   0.00000  Uiso   1.00
H1591  H     0.71059   0.89241   0.93237   0.00000  Uiso   1.00
H1592  H     0.72608   0.93521   0.97076   0.00000  Uiso   1.00
C1593  C     0.92912   0.75683   0.55269   0.00000  Uiso   1.00
H1594  H     0.91404   0.73586   0.57778   0.00000  Uiso   1.00
H1595  H     0.94055   0.73142   0.52924   0.00000  Uiso   1.00
H1596  H     0.95607   0.77422   0.56762   0.00000  Uiso   1.00
C1597  C     0.71472   0.75495   0.79019   0.00000  Uiso   1.00
H1598  H     0.73903   0.76094   0.81515   0.00000  Uiso   1.00
O1599  O     0.70875   0.71520   0.77918   0.00000  Uiso   1.00
C1600  C     0.95194   0.91172   0.70981   0.00000  Uiso   1.00
H1601  H     0.92763   0.90573   0.68485   0.00000  Uiso   1.00
O1602  O     0.95792   0.95147   0.72083   0.00000  Uiso   1.00
C1603  C     0.96218   0.75011   0.78086   0.00000  Uiso   1.00
H1604  H     0.94296   0.73042   0.75816   0.00000  Uiso   1.00
O1605  O     0.96899   0.73590   0.81920   0.00000  Uiso   1.00
C1606  C     0.70448   0.91655   0.71914   0.00000  Uiso   1.00
H1607  H     0.72370   0.93625   0.74184   0.00000  Uiso   1.00
O1608  O     0.69768   0.93077   0.68079   0.00000  Uiso   1.00
C1609  C     0.77334   0.71841   0.69493   0.00000  Uiso   1.00
H1610  H     0.77659   0.75196   0.67967   0.00000  Uiso   1.00
O1611  O     0.73976   0.70163   0.69070   0.00000  Uiso   1.00
C1612  C     0.89333   0.94825   0.80507   0.00000  Uiso   1.00
H1613  H     0.89007   0.91470   0.82033   0.00000  Uiso   1.00
O1614  O     0.92691   0.96504   0.80930   0.00000  Uiso   1.00
C1615  C     0.87742   0.71233   0.81927   0.00000  Uiso   1.00
H1616  H     0.89123   0.74525   0.81537   0.00000  Uiso   1.00
O1617  O     0.87781   0.69457   0.85650   0.00000  Uiso   1.00
C1618  C     0.78925   0.95433   0.68073   0.00000  Uiso   1.00
H1619  H     0.77544   0.92142   0.68463   0.00000  Uiso   1.00
O1620  O     0.78886   0.97210   0.64350   0.00000  Uiso   1.00
loop_
_geom_bond_atom_site_label_1
_geom_bond_atom_site_label_2
_geom_bond_distance
_geom_bond_site_symmetry_2
_ccdc_geom_bond_type
O1     C5      1.305   .     A
O1     Cu13    2.002   .     S
O2     C6      1.305   .     A
O2     Cu14    2.002   .     S
O3     C6      1.306   .     A
O3     Cu13    1.991   .     S
O4     C5      1.306   .     A
O4     Cu14    1.991   .     S
C5     C38     1.480   .     S
C6     C37     1.480   .     S
O7     C11     1.303   .     A
O7     Cu13    1.977   .     S
O8     C12     1.303   .     A
O8     Cu14    1.977   .     S
O9     Cu13    1.964   .     S
O9     C12     1.295   .     A
O10    Cu14    1.964   .     S
O10    C11     1.295   .     A
C11    C18     1.459   .     S
C12    C17     1.459   .     S
Cu13   Cu14    2.708   .     S
Cu13   N43     2.035   .     S
Cu14   N44     2.035   .     S
C15    C25     1.414   .     A
C15    C45     1.493   .     S
C15    C17     1.405   .     A
C16    C48     1.493   .     S
C16    C26     1.413   .     A
C16    C18     1.405   .     A
C17    C19     1.409   .     A
C18    C20     1.409   .     A
C19    C21     1.419   .     A
C19    C51     1.520   .     S
C20    C55     1.520   .     S
C20    C22     1.419   .     A
C21    C27     1.422   .     A
C21    C23     1.426   .     A
C22    C28     1.422   .     A
C22    C24     1.426   .     A
C23    C25     1.419   .     A
C23    C834    1.422   .     S
C24    C26     1.419   .     A
C24    C833    1.422   1_554 S
C25    C30     1.402   .     A
C26    C29     1.402   .     A
C27    C59     1.515   .     S
C27    C839    1.390   .     S
C28    C63     1.515   .     S
C28    C840    1.390   1_554 S
C29    H31     1.076   .     S
C29    C837    1.390   1_554 S
C30    H32     1.076   .     S
C30    C838    1.390   .     S
C33    C67     1.497   .     S
C33    C38     1.419   .     A
C33    C215    1.405   1_455 S
C34    C37     1.419   .     A
C34    C70     1.497   .     S
C34    C126    1.405   .     S
C35    C37     1.422   .     A
C35    C73     1.483   .     S
C35    C123    1.405   .     S
C36    C76     1.483   .     S
C36    C38     1.422   .     A
C36    C214    1.405   1_455 S
C39    C79     1.490   .     S
C39    N44     1.379   .     A
C39    C582    1.430   1_545 S
C40    N43     1.379   .     A
C40    C82     1.490   .     S
C40    C311    1.430   .     S
C41    N44     1.373   .     A
C41    C85     1.476   .     S
C41    C580    1.430   1_545 S
C42    C88     1.476   .     S
C42    N43     1.373   .     A
C42    C309    1.430   .     S
C45    H46     1.086   .     S
C45    O47     1.220   .     D
C48    O50     1.220   .     D
C48    H49     1.086   .     S
C51    H52     1.103   .     S
C51    H54     1.108   .     S
C51    H53     1.109   .     S
C55    H56     1.103   .     S
C55    H57     1.108   .     S
C55    H58     1.109   .     S
C59    H60     1.109   .     S
C59    H61     1.108   .     S
C59    H62     1.112   .     S
C63    H65     1.112   .     S
C63    H66     1.108   .     S
C63    H64     1.109   .     S
C67    H68     1.083   .     S
C67    O69     1.221   .     D
C70    H71     1.083   .     S
C70    O72     1.221   .     D
C73    H74     1.085   .     S
C73    O75     1.221   .     D
C76    O78     1.221   .     D
C76    H77     1.085   .     S
C79    O81     1.222   .     D
C79    H80     1.072   .     S
C82    O84     1.222   .     D
C82    H83     1.072   .     S
C85    O87     1.222   .     D
C85    H86     1.072   .     S
C88    O90     1.222   .     D
C88    H89     1.072   .     S
O91    C95     1.305   .     A
O91    Cu103   2.002   .     S
O92    C96     1.305   .     A
O92    Cu104   2.002   .     S
O93    C96     1.306   .     A
O93    Cu103   1.991   .     S
O94    C95     1.306   .     A
O94    Cu104   1.991   .     S
C95    C128    1.480   .     S
C96    C127    1.480   .     S
O97    C101    1.303   .     A
O97    Cu103   1.977   .     S
O98    C102    1.303   .     A
O98    Cu104   1.977   .     S
O99    Cu103   1.964   .     S
O99    C102    1.295   .     A
O100   Cu104   1.964   .     S
O100   C101    1.295   .     A
C101   C108    1.459   .     S
C102   C107    1.459   .     S
Cu103  Cu104   2.708   .     S
Cu103  N133    2.035   .     S
Cu104  N134    2.035   .     S
C105   C115    1.414   .     A
C105   C135    1.493   .     S
C105   C107    1.405   .     A
C106   C138    1.493   .     S
C106   C116    1.413   .     A
C106   C108    1.405   .     A
C107   C109    1.409   .     A
C108   C110    1.409   .     A
C109   C111    1.419   .     A
C109   C141    1.520   .     S
C110   C145    1.520   .     S
C110   C112    1.419   .     A
C111   C117    1.422   .     A
C111   C113    1.426   .     A
C112   C118    1.422   .     A
C112   C114    1.426   .     A
C113   C115    1.419   .     A
C113   C924    1.422   .     S
C114   C116    1.419   .     A
C114   C923    1.422   1_554 S
C115   C120    1.402   .     A
C116   C119    1.402   .     A
C117   C149    1.515   .     S
C117   C929    1.390   .     S
C118   C153    1.515   .     S
C118   C930    1.390   1_554 S
C119   H121    1.076   .     S
C119   C927    1.390   1_554 S
C120   H122    1.076   .     S
C120   C928    1.390   .     S
C123   C157    1.497   .     S
C123   C128    1.419   .     A
C124   C127    1.419   .     A
C124   C160    1.497   .     S
C124   C216    1.405   .     S
C125   C127    1.422   .     A
C125   C163    1.483   .     S
C125   C213    1.405   .     S
C126   C166    1.483   .     S
C126   C128    1.422   .     A
C129   C169    1.490   .     S
C129   N134    1.379   .     A
C129   C672    1.430   1_545 S
C130   N133    1.379   .     A
C130   C172    1.490   .     S
C130   C401    1.430   .     S
C131   N134    1.373   .     A
C131   C175    1.476   .     S
C131   C670    1.430   1_545 S
C132   C178    1.476   .     S
C132   N133    1.373   .     A
C132   C399    1.430   .     S
C135   H136    1.086   .     S
C135   O137    1.220   .     D
C138   O140    1.220   .     D
C138   H139    1.086   .     S
C141   H142    1.103   .     S
C141   H144    1.108   .     S
C141   H143    1.109   .     S
C145   H146    1.103   .     S
C145   H147    1.108   .     S
C145   H148    1.109   .     S
C149   H150    1.109   .     S
C149   H151    1.108   .     S
C149   H152    1.112   .     S
C153   H155    1.112   .     S
C153   H156    1.108   .     S
C153   H154    1.109   .     S
C157   H158    1.083   .     S
C157   O159    1.221   .     D
C160   H161    1.083   .     S
C160   O162    1.221   .     D
C163   H164    1.085   .     S
C163   O165    1.221   .     D
C166   O168    1.221   .     D
C166   H167    1.085   .     S
C169   O171    1.222   .     D
C169   H170    1.072   .     S
C172   O174    1.222   .     D
C172   H173    1.072   .     S
C175   O177    1.222   .     D
C175   H176    1.072   .     S
C178   O180    1.222   .     D
C178   H179    1.072   .     S
O181   C185    1.305   .     A
O181   Cu193   2.002   .     S
O182   C186    1.305   .     A
O182   Cu194   2.002   .     S
O183   C186    1.306   .     A
O183   Cu193   1.991   .     S
O184   C185    1.306   .     A
O184   Cu194   1.991   .     S
C185   C218    1.480   .     S
C186   C217    1.480   .     S
O187   C191    1.303   .     A
O187   Cu193   1.977   .     S
O188   C192    1.303   .     A
O188   Cu194   1.977   .     S
O189   Cu193   1.964   .     S
O189   C192    1.295   .     A
O190   Cu194   1.964   .     S
O190   C191    1.295   .     A
C191   C198    1.459   .     S
C192   C197    1.459   .     S
Cu193  Cu194   2.708   .     S
Cu193  N223    2.035   .     S
Cu194  N224    2.035   .     S
C195   C205    1.414   .     A
C195   C225    1.493   .     S
C195   C197    1.405   .     A
C196   C228    1.493   .     S
C196   C206    1.413   .     A
C196   C198    1.405   .     A
C197   C199    1.409   .     A
C198   C200    1.409   .     A
C199   C201    1.419   .     A
C199   C231    1.520   .     S
C200   C235    1.520   .     S
C200   C202    1.419   .     A
C201   C207    1.422   .     A
C201   C203    1.426   .     A
C202   C208    1.422   .     A
C202   C204    1.426   .     A
C203   C205    1.419   .     A
C203   C1014   1.422   .     S
C204   C206    1.419   .     A
C204   C1013   1.422   1_554 S
C205   C210    1.402   .     A
C206   C209    1.402   .     A
C207   C239    1.515   .     S
C207   C1019   1.390   .     S
C208   C243    1.515   .     S
C208   C1020   1.390   1_554 S
C209   H211    1.076   .     S
C209   C1017   1.390   1_554 S
C210   H212    1.076   .     S
C210   C1018   1.390   .     S
C213   C247    1.497   .     S
C213   C218    1.419   .     A
C214   C217    1.419   .     A
C214   C250    1.497   .     S
C214   C36     1.405   1_655 S
C215   C217    1.422   .     A
C215   C253    1.483   .     S
C215   C33     1.405   1_655 S
C216   C256    1.483   .     S
C216   C218    1.422   .     A
C219   C259    1.490   .     S
C219   N224    1.379   .     A
C219   C762    1.430   1_545 S
C220   N223    1.379   .     A
C220   C262    1.490   .     S
C220   C491    1.430   .     S
C221   N224    1.373   .     A
C221   C265    1.476   .     S
C221   C760    1.430   1_545 S
C222   C268    1.476   .     S
C222   N223    1.373   .     A
C222   C489    1.430   .     S
C225   H226    1.086   .     S
C225   O227    1.220   .     D
C228   O230    1.220   .     D
C228   H229    1.086   .     S
C231   H232    1.103   .     S
C231   H234    1.108   .     S
C231   H233    1.109   .     S
C235   H236    1.103   .     S
C235   H237    1.108   .     S
C235   H238    1.109   .     S
C239   H240    1.109   .     S
C239   H241    1.108   .     S
C239   H242    1.112   .     S
C243   H245    1.112   .     S
C243   H246    1.108   .     S
C243   H244    1.109   .     S
C247   H248    1.083   .     S
C247   O249    1.221   .     D
C250   H251    1.083   .     S
C250   O252    1.221   .     D
C253   H254    1.085   .     S
C253   O255    1.221   .     D
C256   O258    1.221   .     D
C256   H257    1.085   .     S
C259   O261    1.222   .     D
C259   H260    1.072   .     S
C262   O264    1.222   .     D
C262   H263    1.072   .     S
C265   O267    1.222   .     D
C265   H266    1.072   .     S
C268   O270    1.222   .     D
C268   H269    1.072   .     S
O271   C275    1.305   .     A
O271   Cu283   2.002   .     S
O272   C276    1.305   .     A
O272   Cu284   2.002   .     S
O273   C276    1.306   .     A
O273   Cu283   1.991   .     S
O274   C275    1.306   .     A
O274   Cu284   1.991   .     S
C275   C308    1.480   .     S
C276   C307    1.480   .     S
O277   C281    1.303   .     A
O277   Cu283   1.977   .     S
O278   C282    1.303   .     A
O278   Cu284   1.977   .     S
O279   Cu283   1.964   .     S
O279   C282    1.295   .     A
O280   Cu284   1.964   .     S
O280   C281    1.295   .     A
C281   C288    1.459   .     S
C282   C287    1.459   .     S
Cu283  Cu284   2.708   .     S
Cu283  N313    2.035   .     S
Cu284  N314    2.035   .     S
C285   C295    1.414   .     A
C285   C315    1.493   .     S
C285   C287    1.405   .     A
C286   C318    1.493   .     S
C286   C296    1.413   .     A
C286   C288    1.405   .     A
C287   C289    1.409   .     A
C288   C290    1.409   .     A
C289   C291    1.419   .     A
C289   C321    1.520   .     S
C290   C325    1.520   .     S
C290   C292    1.419   .     A
C291   C297    1.422   .     A
C291   C293    1.426   .     A
C292   C298    1.422   .     A
C292   C294    1.426   .     A
C293   C295    1.419   .     A
C293   C1104   1.422   .     S
C294   C296    1.419   .     A
C294   C1103   1.422   1_554 S
C295   C300    1.402   .     A
C296   C299    1.402   .     A
C297   C329    1.515   .     S
C297   C1109   1.390   .     S
C298   C333    1.515   .     S
C298   C1110   1.390   1_554 S
C299   H301    1.076   .     S
C299   C1107   1.390   1_554 S
C300   H302    1.076   .     S
C300   C1108   1.390   .     S
C303   C337    1.497   .     S
C303   C308    1.419   .     A
C303   C485    1.405   1_455 S
C304   C307    1.419   .     A
C304   C340    1.497   .     S
C304   C396    1.405   .     S
C305   C307    1.422   .     A
C305   C343    1.483   .     S
C305   C393    1.405   .     S
C306   C346    1.483   .     S
C306   C308    1.422   .     A
C306   C484    1.405   1_455 S
C309   C349    1.490   .     S
C309   N314    1.379   .     A
C310   N313    1.379   .     A
C310   C352    1.490   .     S
C310   C581    1.430   .     S
C311   N314    1.373   .     A
C311   C355    1.476   .     S
C312   C358    1.476   .     S
C312   N313    1.373   .     A
C312   C579    1.430   .     S
C315   H316    1.086   .     S
C315   O317    1.220   .     D
C318   O320    1.220   .     D
C318   H319    1.086   .     S
C321   H322    1.103   .     S
C321   H324    1.108   .     S
C321   H323    1.109   .     S
C325   H326    1.103   .     S
C325   H327    1.108   .     S
C325   H328    1.109   .     S
C329   H330    1.109   .     S
C329   H331    1.108   .     S
C329   H332    1.112   .     S
C333   H335    1.112   .     S
C333   H336    1.108   .     S
C333   H334    1.109   .     S
C337   H338    1.083   .     S
C337   O339    1.221   .     D
C340   H341    1.083   .     S
C340   O342    1.221   .     D
C343   H344    1.085   .     S
C343   O345    1.221   .     D
C346   O348    1.221   .     D
C346   H347    1.085   .     S
C349   O351    1.222   .     D
C349   H350    1.072   .     S
C352   O354    1.222   .     D
C352   H353    1.072   .     S
C355   O357    1.222   .     D
C355   H356    1.072   .     S
C358   O360    1.222   .     D
C358   H359    1.072   .     S
O361   C365    1.305   .     A
O361   Cu373   2.002   .     S
O362   C366    1.305   .     A
O362   Cu374   2.002   .     S
O363   C366    1.306   .     A
O363   Cu373   1.991   .     S
O364   C365    1.306   .     A
O364   Cu374   1.991   .     S
C365   C398    1.480   .     S
C366   C397    1.480   .     S
O367   C371    1.303   .     A
O367   Cu373   1.977   .     S
O368   C372    1.303   .     A
O368   Cu374   1.977   .     S
O369   Cu373   1.964   .     S
O369   C372    1.295   .     A
O370   Cu374   1.964   .     S
O370   C371    1.295   .     A
C371   C378    1.459   .     S
C372   C377    1.459   .     S
Cu373  Cu374   2.708   .     S
Cu373  N403    2.035   .     S
Cu374  N404    2.035   .     S
C375   C385    1.414   .     A
C375   C405    1.493   .     S
C375   C377    1.405   .     A
C376   C408    1.493   .     S
C376   C386    1.413   .     A
C376   C378    1.405   .     A
C377   C379    1.409   .     A
C378   C380    1.409   .     A
C379   C381    1.419   .     A
C379   C411    1.520   .     S
C380   C415    1.520   .     S
C380   C382    1.419   .     A
C381   C387    1.422   .     A
C381   C383    1.426   .     A
C382   C388    1.422   .     A
C382   C384    1.426   .     A
C383   C385    1.419   .     A
C383   C1194   1.422   .     S
C384   C386    1.419   .     A
C384   C1193   1.422   1_554 S
C385   C390    1.402   .     A
C386   C389    1.402   .     A
C387   C419    1.515   .     S
C387   C1199   1.390   .     S
C388   C423    1.515   .     S
C388   C1200   1.390   1_554 S
C389   H391    1.076   .     S
C389   C1197   1.390   1_554 S
C390   H392    1.076   .     S
C390   C1198   1.390   .     S
C393   C427    1.497   .     S
C393   C398    1.419   .     A
C394   C397    1.419   .     A
C394   C430    1.497   .     S
C394   C486    1.405   .     S
C395   C397    1.422   .     A
C395   C433    1.483   .     S
C395   C483    1.405   .     S
C396   C436    1.483   .     S
C396   C398    1.422   .     A
C399   C439    1.490   .     S
C399   N404    1.379   .     A
C400   N403    1.379   .     A
C400   C442    1.490   .     S
C400   C671    1.430   .     S
C401   N404    1.373   .     A
C401   C445    1.476   .     S
C402   C448    1.476   .     S
C402   N403    1.373   .     A
C402   C669    1.430   .     S
C405   H406    1.086   .     S
C405   O407    1.220   .     D
C408   O410    1.220   .     D
C408   H409    1.086   .     S
C411   H412    1.103   .     S
C411   H414    1.108   .     S
C411   H413    1.109   .     S
C415   H416    1.103   .     S
C415   H417    1.108   .     S
C415   H418    1.109   .     S
C419   H420    1.109   .     S
C419   H421    1.108   .     S
C419   H422    1.112   .     S
C423   H425    1.112   .     S
C423   H426    1.108   .     S
C423   H424    1.109   .     S
C427   H428    1.083   .     S
C427   O429    1.221   .     D
C430   H431    1.083   .     S
C430   O432    1.221   .     D
C433   H434    1.085   .     S
C433   O435    1.221   .     D
C436   O438    1.221   .     D
C436   H437    1.085   .     S
C439   O441    1.222   .     D
C439   H440    1.072   .     S
C442   O444    1.222   .     D
C442   H443    1.072   .     S
C445   O447    1.222   .     D
C445   H446    1.072   .     S
C448   O450    1.222   .     D
C448   H449    1.072   .     S
O451   C455    1.305   .     A
O451   Cu463   2.002   .     S
O452   C456    1.305   .     A
O452   Cu464   2.002   .     S
O453   C456    1.306   .     A
O453   Cu463   1.991   .     S
O454   C455    1.306   .     A
O454   Cu464   1.991   .     S
C455   C488    1.480   .     S
C456   C487    1.480   .     S
O457   C461    1.303   .     A
O457   Cu463   1.977   .     S
O458   C462    1.303   .     A
O458   Cu464   1.977   .     S
O459   Cu463   1.964   .     S
O459   C462    1.295   .     A
O460   Cu464   1.964   .     S
O460   C461    1.295   .     A
C461   C468    1.459   .     S
C462   C467    1.459   .     S
Cu463  Cu464   2.708   .     S
Cu463  N493    2.035   .     S
Cu464  N494    2.035   .     S
C465   C475    1.414   .     A
C465   C495    1.493   .     S
C465   C467    1.405   .     A
C466   C498    1.493   .     S
C466   C476    1.413   .     A
C466   C468    1.405   .     A
C467   C469    1.409   .     A
C468   C470    1.409   .     A
C469   C471    1.419   .     A
C469   C501    1.520   .     S
C470   C505    1.520   .     S
C470   C472    1.419   .     A
C471   C477    1.422   .     A
C471   C473    1.426   .     A
C472   C478    1.422   .     A
C472   C474    1.426   .     A
C473   C475    1.419   .     A
C473   C1284   1.422   .     S
C474   C476    1.419   .     A
C474   C1283   1.422   1_554 S
C475   C480    1.402   .     A
C476   C479    1.402   .     A
C477   C509    1.515   .     S
C477   C1289   1.390   .     S
C478   C513    1.515   .     S
C478   C1290   1.390   1_554 S
C479   H481    1.076   .     S
C479   C1287   1.390   1_554 S
C480   H482    1.076   .     S
C480   C1288   1.390   .     S
C483   C517    1.497   .     S
C483   C488    1.419   .     A
C484   C487    1.419   .     A
C484   C520    1.497   .     S
C484   C306    1.405   1_655 S
C485   C487    1.422   .     A
C485   C523    1.483   .     S
C485   C303    1.405   1_655 S
C486   C526    1.483   .     S
C486   C488    1.422   .     A
C489   C529    1.490   .     S
C489   N494    1.379   .     A
C490   N493    1.379   .     A
C490   C532    1.490   .     S
C490   C761    1.430   .     S
C491   N494    1.373   .     A
C491   C535    1.476   .     S
C492   C538    1.476   .     S
C492   N493    1.373   .     A
C492   C759    1.430   .     S
C495   H496    1.086   .     S
C495   O497    1.220   .     D
C498   O500    1.220   .     D
C498   H499    1.086   .     S
C501   H502    1.103   .     S
C501   H504    1.108   .     S
C501   H503    1.109   .     S
C505   H506    1.103   .     S
C505   H507    1.108   .     S
C505   H508    1.109   .     S
C509   H510    1.109   .     S
C509   H511    1.108   .     S
C509   H512    1.112   .     S
C513   H515    1.112   .     S
C513   H516    1.108   .     S
C513   H514    1.109   .     S
C517   H518    1.083   .     S
C517   O519    1.221   .     D
C520   H521    1.083   .     S
C520   O522    1.221   .     D
C523   H524    1.085   .     S
C523   O525    1.221   .     D
C526   O528    1.221   .     D
C526   H527    1.085   .     S
C529   O531    1.222   .     D
C529   H530    1.072   .     S
C532   O534    1.222   .     D
C532   H533    1.072   .     S
C535   O537    1.222   .     D
C535   H536    1.072   .     S
C538   O540    1.222   .     D
C538   H539    1.072   .     S
O541   C545    1.305   .     A
O541   Cu553   2.002   .     S
O542   C546    1.305   .     A
O542   Cu554   2.002   .     S
O543   C546    1.306   .     A
O543   Cu553   1.991   .     S
O544   C545    1.306   .     A
O544   Cu554   1.991   .     S
C545   C578    1.480   .     S
C546   C577    1.480   .     S
O547   C551    1.303   .     A
O547   Cu553   1.977   .     S
O548   C552    1.303   .     A
O548   Cu554   1.977   .     S
O549   Cu553   1.964   .     S
O549   C552    1.295   .     A
O550   Cu554   1.964   .     S
O550   C551    1.295   .     A
C551   C558    1.459   .     S
C552   C557    1.459   .     S
Cu553  Cu554   2.708   .     S
Cu553  N583    2.035   .     S
Cu554  N584    2.035   .     S
C555   C565    1.414   .     A
C555   C585    1.493   .     S
C555   C557    1.405   .     A
C556   C588    1.493   .     S
C556   C566    1.413   .     A
C556   C558    1.405   .     A
C557   C559    1.409   .     A
C558   C560    1.409   .     A
C559   C561    1.419   .     A
C559   C591    1.520   .     S
C560   C595    1.520   .     S
C560   C562    1.419   .     A
C561   C567    1.422   .     A
C561   C563    1.426   .     A
C562   C568    1.422   .     A
C562   C564    1.426   .     A
C563   C565    1.419   .     A
C563   C1374   1.422   .     S
C564   C566    1.419   .     A
C564   C1373   1.422   1_554 S
C565   C570    1.402   .     A
C566   C569    1.402   .     A
C567   C599    1.515   .     S
C567   C1379   1.390   .     S
C568   C603    1.515   .     S
C568   C1380   1.390   1_554 S
C569   H571    1.076   .     S
C569   C1377   1.390   1_554 S
C570   H572    1.076   .     S
C570   C1378   1.390   .     S
C573   C607    1.497   .     S
C573   C578    1.419   .     A
C573   C755    1.405   1_455 S
C574   C577    1.419   .     A
C574   C610    1.497   .     S
C574   C666    1.405   .     S
C575   C577    1.422   .     A
C575   C613    1.483   .     S
C575   C663    1.405   .     S
C576   C616    1.483   .     S
C576   C578    1.422   .     A
C576   C754    1.405   1_455 S
C579   C619    1.490   .     S
C579   N584    1.379   .     A
C580   N583    1.379   .     A
C580   C622    1.490   .     S
C580   C41     1.430   1_565 S
C581   N584    1.373   .     A
C581   C625    1.476   .     S
C582   C628    1.476   .     S
C582   N583    1.373   .     A
C582   C39     1.430   1_565 S
C585   H586    1.086   .     S
C585   O587    1.220   .     D
C588   O590    1.220   .     D
C588   H589    1.086   .     S
C591   H592    1.103   .     S
C591   H594    1.108   .     S
C591   H593    1.109   .     S
C595   H596    1.103   .     S
C595   H597    1.108   .     S
C595   H598    1.109   .     S
C599   H600    1.109   .     S
C599   H601    1.108   .     S
C599   H602    1.112   .     S
C603   H605    1.112   .     S
C603   H606    1.108   .     S
C603   H604    1.109   .     S
C607   H608    1.083   .     S
C607   O609    1.221   .     D
C610   H611    1.083   .     S
C610   O612    1.221   .     D
C613   H614    1.085   .     S
C613   O615    1.221   .     D
C616   O618    1.221   .     D
C616   H617    1.085   .     S
C619   O621    1.222   .     D
C619   H620    1.072   .     S
C622   O624    1.222   .     D
C622   H623    1.072   .     S
C625   O627    1.222   .     D
C625   H626    1.072   .     S
C628   O630    1.222   .     D
C628   H629    1.072   .     S
O631   C635    1.305   .     A
O631   Cu643   2.002   .     S
O632   C636    1.305   .     A
O632   Cu644   2.002   .     S
O633   C636    1.306   .     A
O633   Cu643   1.991   .     S
O634   C635    1.306   .     A
O634   Cu644   1.991   .     S
C635   C668    1.480   .     S
C636   C667    1.480   .     S
O637   C641    1.303   .     A
O637   Cu643   1.977   .     S
O638   C642    1.303   .     A
O638   Cu644   1.977   .     S
O639   Cu643   1.964   .     S
O639   C642    1.295   .     A
O640   Cu644   1.964   .     S
O640   C641    1.295   .     A
C641   C648    1.459   .     S
C642   C647    1.459   .     S
Cu643  Cu644   2.708   .     S
Cu643  N673    2.035   .     S
Cu644  N674    2.035   .     S
C645   C655    1.414   .     A
C645   C675    1.493   .     S
C645   C647    1.405   .     A
C646   C678    1.493   .     S
C646   C656    1.413   .     A
C646   C648    1.405   .     A
C647   C649    1.409   .     A
C648   C650    1.409   .     A
C649   C651    1.419   .     A
C649   C681    1.520   .     S
C650   C685    1.520   .     S
C650   C652    1.419   .     A
C651   C657    1.422   .     A
C651   C653    1.426   .     A
C652   C658    1.422   .     A
C652   C654    1.426   .     A
C653   C655    1.419   .     A
C653   C1464   1.422   .     S
C654   C656    1.419   .     A
C654   C1463   1.422   1_554 S
C655   C660    1.402   .     A
C656   C659    1.402   .     A
C657   C689    1.515   .     S
C657   C1469   1.390   .     S
C658   C693    1.515   .     S
C658   C1470   1.390   1_554 S
C659   H661    1.076   .     S
C659   C1467   1.390   1_554 S
C660   H662    1.076   .     S
C660   C1468   1.390   .     S
C663   C697    1.497   .     S
C663   C668    1.419   .     A
C664   C667    1.419   .     A
C664   C700    1.497   .     S
C664   C756    1.405   .     S
C665   C667    1.422   .     A
C665   C703    1.483   .     S
C665   C753    1.405   .     S
C666   C706    1.483   .     S
C666   C668    1.422   .     A
C669   C709    1.490   .     S
C669   N674    1.379   .     A
C670   N673    1.379   .     A
C670   C712    1.490   .     S
C670   C131    1.430   1_565 S
C671   N674    1.373   .     A
C671   C715    1.476   .     S
C672   C718    1.476   .     S
C672   N673    1.373   .     A
C672   C129    1.430   1_565 S
C675   H676    1.086   .     S
C675   O677    1.220   .     D
C678   O680    1.220   .     D
C678   H679    1.086   .     S
C681   H682    1.103   .     S
C681   H684    1.108   .     S
C681   H683    1.109   .     S
C685   H686    1.103   .     S
C685   H687    1.108   .     S
C685   H688    1.109   .     S
C689   H690    1.109   .     S
C689   H691    1.108   .     S
C689   H692    1.112   .     S
C693   H695    1.112   .     S
C693   H696    1.108   .     S
C693   H694    1.109   .     S
C697   H698    1.083   .     S
C697   O699    1.221   .     D
C700   H701    1.083   .     S
C700   O702    1.221   .     D
C703   H704    1.085   .     S
C703   O705    1.221   .     D
C706   O708    1.221   .     D
C706   H707    1.085   .     S
C709   O711    1.222   .     D
C709   H710    1.072   .     S
C712   O714    1.222   .     D
C712   H713    1.072   .     S
C715   O717    1.222   .     D
C715   H716    1.072   .     S
C718   O720    1.222   .     D
C718   H719    1.072   .     S
O721   C725    1.305   .     A
O721   Cu733   2.002   .     S
O722   C726    1.305   .     A
O722   Cu734   2.002   .     S
O723   C726    1.306   .     A
O723   Cu733   1.991   .     S
O724   C725    1.306   .     A
O724   Cu734   1.991   .     S
C725   C758    1.480   .     S
C726   C757    1.480   .     S
O727   C731    1.303   .     A
O727   Cu733   1.977   .     S
O728   C732    1.303   .     A
O728   Cu734   1.977   .     S
O729   Cu733   1.964   .     S
O729   C732    1.295   .     A
O730   Cu734   1.964   .     S
O730   C731    1.295   .     A
C731   C738    1.459   .     S
C732   C737    1.459   .     S
Cu733  Cu734   2.708   .     S
Cu733  N763    2.035   .     S
Cu734  N764    2.035   .     S
C735   C745    1.414   .     A
C735   C765    1.493   .     S
C735   C737    1.405   .     A
C736   C768    1.493   .     S
C736   C746    1.413   .     A
C736   C738    1.405   .     A
C737   C739    1.409   .     A
C738   C740    1.409   .     A
C739   C741    1.419   .     A
C739   C771    1.520   .     S
C740   C775    1.520   .     S
C740   C742    1.419   .     A
C741   C747    1.422   .     A
C741   C743    1.426   .     A
C742   C748    1.422   .     A
C742   C744    1.426   .     A
C743   C745    1.419   .     A
C743   C1554   1.422   .     S
C744   C746    1.419   .     A
C744   C1553   1.422   1_554 S
C745   C750    1.402   .     A
C746   C749    1.402   .     A
C747   C779    1.515   .     S
C747   C1559   1.390   .     S
C748   C783    1.515   .     S
C748   C1560   1.390   1_554 S
C749   H751    1.076   .     S
C749   C1557   1.390   1_554 S
C750   H752    1.076   .     S
C750   C1558   1.390   .     S
C753   C787    1.497   .     S
C753   C758    1.419   .     A
C754   C757    1.419   .     A
C754   C790    1.497   .     S
C754   C576    1.405   1_655 S
C755   C757    1.422   .     A
C755   C793    1.483   .     S
C755   C573    1.405   1_655 S
C756   C796    1.483   .     S
C756   C758    1.422   .     A
C759   C799    1.490   .     S
C759   N764    1.379   .     A
C760   N763    1.379   .     A
C760   C802    1.490   .     S
C760   C221    1.430   1_565 S
C761   N764    1.373   .     A
C761   C805    1.476   .     S
C762   C808    1.476   .     S
C762   N763    1.373   .     A
C762   C219    1.430   1_565 S
C765   H766    1.086   .     S
C765   O767    1.220   .     D
C768   O770    1.220   .     D
C768   H769    1.086   .     S
C771   H772    1.103   .     S
C771   H774    1.108   .     S
C771   H773    1.109   .     S
C775   H776    1.103   .     S
C775   H777    1.108   .     S
C775   H778    1.109   .     S
C779   H780    1.109   .     S
C779   H781    1.108   .     S
C779   H782    1.112   .     S
C783   H785    1.112   .     S
C783   H786    1.108   .     S
C783   H784    1.109   .     S
C787   H788    1.083   .     S
C787   O789    1.221   .     D
C790   H791    1.083   .     S
C790   O792    1.221   .     D
C793   H794    1.085   .     S
C793   O795    1.221   .     D
C796   O798    1.221   .     D
C796   H797    1.085   .     S
C799   O801    1.222   .     D
C799   H800    1.072   .     S
C802   O804    1.222   .     D
C802   H803    1.072   .     S
C805   O807    1.222   .     D
C805   H806    1.072   .     S
C808   O810    1.222   .     D
C808   H809    1.072   .     S
O811   C815    1.305   .     A
O811   Cu823   2.002   .     S
O812   C816    1.305   .     A
O812   Cu824   2.002   .     S
O813   C816    1.306   .     A
O813   Cu823   1.991   .     S
O814   C815    1.306   .     A
O814   Cu824   1.991   .     S
C815   C848    1.480   .     S
C816   C847    1.480   .     S
O817   C821    1.303   .     A
O817   Cu823   1.977   .     S
O818   C822    1.303   .     A
O818   Cu824   1.977   .     S
O819   Cu823   1.964   .     S
O819   C822    1.295   .     A
O820   Cu824   1.964   .     S
O820   C821    1.295   .     A
C821   C828    1.459   .     S
C822   C827    1.459   .     S
Cu823  Cu824   2.708   .     S
Cu823  N853    2.035   .     S
Cu824  N854    2.035   .     S
C825   C835    1.414   .     A
C825   C855    1.493   .     S
C825   C827    1.405   .     A
C826   C858    1.493   .     S
C826   C836    1.413   .     A
C826   C828    1.405   .     A
C827   C829    1.409   .     A
C828   C830    1.409   .     A
C829   C831    1.419   .     A
C829   C861    1.520   .     S
C830   C865    1.520   .     S
C830   C832    1.419   .     A
C831   C837    1.422   .     A
C831   C833    1.426   .     A
C832   C838    1.422   .     A
C832   C834    1.426   .     A
C833   C835    1.419   .     A
C833   C24     1.422   1_556 S
C834   C836    1.419   .     A
C835   C840    1.402   .     A
C836   C839    1.402   .     A
C837   C869    1.515   .     S
C837   C29     1.390   1_556 S
C838   C873    1.515   .     S
C839   H841    1.076   .     S
C840   H842    1.076   .     S
C840   C28     1.390   1_556 S
C843   C877    1.497   .     S
C843   C848    1.419   .     A
C843   C1025   1.405   1_455 S
C844   C847    1.419   .     A
C844   C880    1.497   .     S
C844   C936    1.405   .     S
C845   C847    1.422   .     A
C845   C883    1.483   .     S
C845   C933    1.405   .     S
C846   C886    1.483   .     S
C846   C848    1.422   .     A
C846   C1024   1.405   1_455 S
C849   C889    1.490   .     S
C849   N854    1.379   .     A
C849   C1392   1.430   1_545 S
C850   N853    1.379   .     A
C850   C892    1.490   .     S
C850   C1121   1.430   .     S
C851   N854    1.373   .     A
C851   C895    1.476   .     S
C851   C1390   1.430   1_545 S
C852   C898    1.476   .     S
C852   N853    1.373   .     A
C852   C1119   1.430   .     S
C855   H856    1.086   .     S
C855   O857    1.220   .     D
C858   O860    1.220   .     D
C858   H859    1.086   .     S
C861   H862    1.103   .     S
C861   H864    1.108   .     S
C861   H863    1.109   .     S
C865   H866    1.103   .     S
C865   H867    1.108   .     S
C865   H868    1.109   .     S
C869   H870    1.109   .     S
C869   H871    1.108   .     S
C869   H872    1.112   .     S
C873   H875    1.112   .     S
C873   H876    1.108   .     S
C873   H874    1.109   .     S
C877   H878    1.083   .     S
C877   O879    1.221   .     D
C880   H881    1.083   .     S
C880   O882    1.221   .     D
C883   H884    1.085   .     S
C883   O885    1.221   .     D
C886   O888    1.221   .     D
C886   H887    1.085   .     S
C889   O891    1.222   .     D
C889   H890    1.072   .     S
C892   O894    1.222   .     D
C892   H893    1.072   .     S
C895   O897    1.222   .     D
C895   H896    1.072   .     S
C898   O900    1.222   .     D
C898   H899    1.072   .     S
O901   C905    1.305   .     A
O901   Cu913   2.002   .     S
O902   C906    1.305   .     A
O902   Cu914   2.002   .     S
O903   C906    1.306   .     A
O903   Cu913   1.991   .     S
O904   C905    1.306   .     A
O904   Cu914   1.991   .     S
C905   C938    1.480   .     S
C906   C937    1.480   .     S
O907   C911    1.303   .     A
O907   Cu913   1.977   .     S
O908   C912    1.303   .     A
O908   Cu914   1.977   .     S
O909   Cu913   1.964   .     S
O909   C912    1.295   .     A
O910   Cu914   1.964   .     S
O910   C911    1.295   .     A
C911   C918    1.459   .     S
C912   C917    1.459   .     S
Cu913  Cu914   2.708   .     S
Cu913  N943    2.035   .     S
Cu914  N944    2.035   .     S
C915   C925    1.414   .     A
C915   C945    1.493   .     S
C915   C917    1.405   .     A
C916   C948    1.493   .     S
C916   C926    1.413   .     A
C916   C918    1.405   .     A
C917   C919    1.409   .     A
C918   C920    1.409   .     A
C919   C921    1.419   .     A
C919   C951    1.520   .     S
C920   C955    1.520   .     S
C920   C922    1.419   .     A
C921   C927    1.422   .     A
C921   C923    1.426   .     A
C922   C928    1.422   .     A
C922   C924    1.426   .     A
C923   C925    1.419   .     A
C923   C114    1.422   1_556 S
C924   C926    1.419   .     A
C925   C930    1.402   .     A
C926   C929    1.402   .     A
C927   C959    1.515   .     S
C927   C119    1.390   1_556 S
C928   C963    1.515   .     S
C929   H931    1.076   .     S
C930   H932    1.076   .     S
C930   C118    1.390   1_556 S
C933   C967    1.497   .     S
C933   C938    1.419   .     A
C934   C937    1.419   .     A
C934   C970    1.497   .     S
C934   C1026   1.405   .     S
C935   C937    1.422   .     A
C935   C973    1.483   .     S
C935   C1023   1.405   .     S
C936   C976    1.483   .     S
C936   C938    1.422   .     A
C939   C979    1.490   .     S
C939   N944    1.379   .     A
C939   C1482   1.430   1_545 S
C940   N943    1.379   .     A
C940   C982    1.490   .     S
C940   C1211   1.430   .     S
C941   N944    1.373   .     A
C941   C985    1.476   .     S
C941   C1480   1.430   1_545 S
C942   C988    1.476   .     S
C942   N943    1.373   .     A
C942   C1209   1.430   .     S
C945   H946    1.086   .     S
C945   O947    1.220   .     D
C948   O950    1.220   .     D
C948   H949    1.086   .     S
C951   H952    1.103   .     S
C951   H954    1.108   .     S
C951   H953    1.109   .     S
C955   H956    1.103   .     S
C955   H957    1.108   .     S
C955   H958    1.109   .     S
C959   H960    1.109   .     S
C959   H961    1.108   .     S
C959   H962    1.112   .     S
C963   H965    1.112   .     S
C963   H966    1.108   .     S
C963   H964    1.109   .     S
C967   H968    1.083   .     S
C967   O969    1.221   .     D
C970   H971    1.083   .     S
C970   O972    1.221   .     D
C973   H974    1.085   .     S
C973   O975    1.221   .     D
C976   O978    1.221   .     D
C976   H977    1.085   .     S
C979   O981    1.222   .     D
C979   H980    1.072   .     S
C982   O984    1.222   .     D
C982   H983    1.072   .     S
C985   O987    1.222   .     D
C985   H986    1.072   .     S
C988   O990    1.222   .     D
C988   H989    1.072   .     S
O991   C995    1.305   .     A
O991   Cu1003  2.002   .     S
O992   C996    1.305   .     A
O992   Cu1004  2.002   .     S
O993   C996    1.306   .     A
O993   Cu1003  1.991   .     S
O994   C995    1.306   .     A
O994   Cu1004  1.991   .     S
C995   C1028   1.480   .     S
C996   C1027   1.480   .     S
O997   C1001   1.303   .     A
O997   Cu1003  1.977   .     S
O998   C1002   1.303   .     A
O998   Cu1004  1.977   .     S
O999   Cu1003  1.964   .     S
O999   C1002   1.295   .     A
O1000  Cu1004  1.964   .     S
O1000  C1001   1.295   .     A
C1001  C1008   1.459   .     S
C1002  C1007   1.459   .     S
Cu1003 Cu1004  2.708   .     S
Cu1003 N1033   2.035   .     S
Cu1004 N1034   2.035   .     S
C1005  C1015   1.414   .     A
C1005  C1035   1.493   .     S
C1005  C1007   1.405   .     A
C1006  C1038   1.493   .     S
C1006  C1016   1.413   .     A
C1006  C1008   1.405   .     A
C1007  C1009   1.409   .     A
C1008  C1010   1.409   .     A
C1009  C1011   1.419   .     A
C1009  C1041   1.520   .     S
C1010  C1045   1.520   .     S
C1010  C1012   1.419   .     A
C1011  C1017   1.422   .     A
C1011  C1013   1.426   .     A
C1012  C1018   1.422   .     A
C1012  C1014   1.426   .     A
C1013  C1015   1.419   .     A
C1013  C204    1.422   1_556 S
C1014  C1016   1.419   .     A
C1015  C1020   1.402   .     A
C1016  C1019   1.402   .     A
C1017  C1049   1.515   .     S
C1017  C209    1.390   1_556 S
C1018  C1053   1.515   .     S
C1019  H1021   1.076   .     S
C1020  H1022   1.076   .     S
C1020  C208    1.390   1_556 S
C1023  C1057   1.497   .     S
C1023  C1028   1.419   .     A
C1024  C1027   1.419   .     A
C1024  C1060   1.497   .     S
C1024  C846    1.405   1_655 S
C1025  C1027   1.422   .     A
C1025  C1063   1.483   .     S
C1025  C843    1.405   1_655 S
C1026  C1066   1.483   .     S
C1026  C1028   1.422   .     A
C1029  C1069   1.490   .     S
C1029  N1034   1.379   .     A
C1029  C1572   1.430   1_545 S
C1030  N1033   1.379   .     A
C1030  C1072   1.490   .     S
C1030  C1301   1.430   .     S
C1031  N1034   1.373   .     A
C1031  C1075   1.476   .     S
C1031  C1570   1.430   1_545 S
C1032  C1078   1.476   .     S
C1032  N1033   1.373   .     A
C1032  C1299   1.430   .     S
C1035  H1036   1.086   .     S
C1035  O1037   1.220   .     D
C1038  O1040   1.220   .     D
C1038  H1039   1.086   .     S
C1041  H1042   1.103   .     S
C1041  H1044   1.108   .     S
C1041  H1043   1.109   .     S
C1045  H1046   1.103   .     S
C1045  H1047   1.108   .     S
C1045  H1048   1.109   .     S
C1049  H1050   1.109   .     S
C1049  H1051   1.108   .     S
C1049  H1052   1.112   .     S
C1053  H1055   1.112   .     S
C1053  H1056   1.108   .     S
C1053  H1054   1.109   .     S
C1057  H1058   1.083   .     S
C1057  O1059   1.221   .     D
C1060  H1061   1.083   .     S
C1060  O1062   1.221   .     D
C1063  H1064   1.085   .     S
C1063  O1065   1.221   .     D
C1066  O1068   1.221   .     D
C1066  H1067   1.085   .     S
C1069  O1071   1.222   .     D
C1069  H1070   1.072   .     S
C1072  O1074   1.222   .     D
C1072  H1073   1.072   .     S
C1075  O1077   1.222   .     D
C1075  H1076   1.072   .     S
C1078  O1080   1.222   .     D
C1078  H1079   1.072   .     S
O1081  C1085   1.305   .     A
O1081  Cu1093  2.002   .     S
O1082  C1086   1.305   .     A
O1082  Cu1094  2.002   .     S
O1083  C1086   1.306   .     A
O1083  Cu1093  1.991   .     S
O1084  C1085   1.306   .     A
O1084  Cu1094  1.991   .     S
C1085  C1118   1.480   .     S
C1086  C1117   1.480   .     S
O1087  C1091   1.303   .     A
O1087  Cu1093  1.977   .     S
O1088  C1092   1.303   .     A
O1088  Cu1094  1.977   .     S
O1089  Cu1093  1.964   .     S
O1089  C1092   1.295   .     A
O1090  Cu1094  1.964   .     S
O1090  C1091   1.295   .     A
C1091  C1098   1.459   .     S
C1092  C1097   1.459   .     S
Cu1093 Cu1094  2.708   .     S
Cu1093 N1123   2.035   .     S
Cu1094 N1124   2.035   .     S
C1095  C1105   1.414   .     A
C1095  C1125   1.493   .     S
C1095  C1097   1.405   .     A
C1096  C1128   1.493   .     S
C1096  C1106   1.413   .     A
C1096  C1098   1.405   .     A
C1097  C1099   1.409   .     A
C1098  C1100   1.409   .     A
C1099  C1101   1.419   .     A
C1099  C1131   1.520   .     S
C1100  C1135   1.520   .     S
C1100  C1102   1.419   .     A
C1101  C1107   1.422   .     A
C1101  C1103   1.426   .     A
C1102  C1108   1.422   .     A
C1102  C1104   1.426   .     A
C1103  C1105   1.419   .     A
C1103  C294    1.422   1_556 S
C1104  C1106   1.419   .     A
C1105  C1110   1.402   .     A
C1106  C1109   1.402   .     A
C1107  C1139   1.515   .     S
C1107  C299    1.390   1_556 S
C1108  C1143   1.515   .     S
C1109  H1111   1.076   .     S
C1110  H1112   1.076   .     S
C1110  C298    1.390   1_556 S
C1113  C1147   1.497   .     S
C1113  C1118   1.419   .     A
C1113  C1295   1.405   1_455 S
C1114  C1117   1.419   .     A
C1114  C1150   1.497   .     S
C1114  C1206   1.405   .     S
C1115  C1117   1.422   .     A
C1115  C1153   1.483   .     S
C1115  C1203   1.405   .     S
C1116  C1156   1.483   .     S
C1116  C1118   1.422   .     A
C1116  C1294   1.405   1_455 S
C1119  C1159   1.490   .     S
C1119  N1124   1.379   .     A
C1120  N1123   1.379   .     A
C1120  C1162   1.490   .     S
C1120  C1391   1.430   .     S
C1121  N1124   1.373   .     A
C1121  C1165   1.476   .     S
C1122  C1168   1.476   .     S
C1122  N1123   1.373   .     A
C1122  C1389   1.430   .     S
C1125  H1126   1.086   .     S
C1125  O1127   1.220   .     D
C1128  O1130   1.220   .     D
C1128  H1129   1.086   .     S
C1131  H1132   1.103   .     S
C1131  H1134   1.108   .     S
C1131  H1133   1.109   .     S
C1135  H1136   1.103   .     S
C1135  H1137   1.108   .     S
C1135  H1138   1.109   .     S
C1139  H1140   1.109   .     S
C1139  H1141   1.108   .     S
C1139  H1142   1.112   .     S
C1143  H1145   1.112   .     S
C1143  H1146   1.108   .     S
C1143  H1144   1.109   .     S
C1147  H1148   1.083   .     S
C1147  O1149   1.221   .     D
C1150  H1151   1.083   .     S
C1150  O1152   1.221   .     D
C1153  H1154   1.085   .     S
C1153  O1155   1.221   .     D
C1156  O1158   1.221   .     D
C1156  H1157   1.085   .     S
C1159  O1161   1.222   .     D
C1159  H1160   1.072   .     S
C1162  O1164   1.222   .     D
C1162  H1163   1.072   .     S
C1165  O1167   1.222   .     D
C1165  H1166   1.072   .     S
C1168  O1170   1.222   .     D
C1168  H1169   1.072   .     S
O1171  C1175   1.305   .     A
O1171  Cu1183  2.002   .     S
O1172  C1176   1.305   .     A
O1172  Cu1184  2.002   .     S
O1173  C1176   1.306   .     A
O1173  Cu1183  1.991   .     S
O1174  C1175   1.306   .     A
O1174  Cu1184  1.991   .     S
C1175  C1208   1.480   .     S
C1176  C1207   1.480   .     S
O1177  C1181   1.303   .     A
O1177  Cu1183  1.977   .     S
O1178  C1182   1.303   .     A
O1178  Cu1184  1.977   .     S
O1179  Cu1183  1.964   .     S
O1179  C1182   1.295   .     A
O1180  Cu1184  1.964   .     S
O1180  C1181   1.295   .     A
C1181  C1188   1.459   .     S
C1182  C1187   1.459   .     S
Cu1183 Cu1184  2.708   .     S
Cu1183 N1213   2.035   .     S
Cu1184 N1214   2.035   .     S
C1185  C1195   1.414   .     A
C1185  C1215   1.493   .     S
C1185  C1187   1.405   .     A
C1186  C1218   1.493   .     S
C1186  C1196   1.413   .     A
C1186  C1188   1.405   .     A
C1187  C1189   1.409   .     A
C1188  C1190   1.409   .     A
C1189  C1191   1.419   .     A
C1189  C1221   1.520   .     S
C1190  C1225   1.520   .     S
C1190  C1192   1.419   .     A
C1191  C1197   1.422   .     A
C1191  C1193   1.426   .     A
C1192  C1198   1.422   .     A
C1192  C1194   1.426   .     A
C1193  C1195   1.419   .     A
C1193  C384    1.422   1_556 S
C1194  C1196   1.419   .     A
C1195  C1200   1.402   .     A
C1196  C1199   1.402   .     A
C1197  C1229   1.515   .     S
C1197  C389    1.390   1_556 S
C1198  C1233   1.515   .     S
C1199  H1201   1.076   .     S
C1200  H1202   1.076   .     S
C1200  C388    1.390   1_556 S
C1203  C1237   1.497   .     S
C1203  C1208   1.419   .     A
C1204  C1207   1.419   .     A
C1204  C1240   1.497   .     S
C1204  C1296   1.405   .     S
C1205  C1207   1.422   .     A
C1205  C1243   1.483   .     S
C1205  C1293   1.405   .     S
C1206  C1246   1.483   .     S
C1206  C1208   1.422   .     A
C1209  C1249   1.490   .     S
C1209  N1214   1.379   .     A
C1210  N1213   1.379   .     A
C1210  C1252   1.490   .     S
C1210  C1481   1.430   .     S
C1211  N1214   1.373   .     A
C1211  C1255   1.476   .     S
C1212  C1258   1.476   .     S
C1212  N1213   1.373   .     A
C1212  C1479   1.430   .     S
C1215  H1216   1.086   .     S
C1215  O1217   1.220   .     D
C1218  O1220   1.220   .     D
C1218  H1219   1.086   .     S
C1221  H1222   1.103   .     S
C1221  H1224   1.108   .     S
C1221  H1223   1.109   .     S
C1225  H1226   1.103   .     S
C1225  H1227   1.108   .     S
C1225  H1228   1.109   .     S
C1229  H1230   1.109   .     S
C1229  H1231   1.108   .     S
C1229  H1232   1.112   .     S
C1233  H1235   1.112   .     S
C1233  H1236   1.108   .     S
C1233  H1234   1.109   .     S
C1237  H1238   1.083   .     S
C1237  O1239   1.221   .     D
C1240  H1241   1.083   .     S
C1240  O1242   1.221   .     D
C1243  H1244   1.085   .     S
C1243  O1245   1.221   .     D
C1246  O1248   1.221   .     D
C1246  H1247   1.085   .     S
C1249  O1251   1.222   .     D
C1249  H1250   1.072   .     S
C1252  O1254   1.222   .     D
C1252  H1253   1.072   .     S
C1255  O1257   1.222   .     D
C1255  H1256   1.072   .     S
C1258  O1260   1.222   .     D
C1258  H1259   1.072   .     S
O1261  C1265   1.305   .     A
O1261  Cu1273  2.002   .     S
O1262  C1266   1.305   .     A
O1262  Cu1274  2.002   .     S
O1263  C1266   1.306   .     A
O1263  Cu1273  1.991   .     S
O1264  C1265   1.306   .     A
O1264  Cu1274  1.991   .     S
C1265  C1298   1.480   .     S
C1266  C1297   1.480   .     S
O1267  C1271   1.303   .     A
O1267  Cu1273  1.977   .     S
O1268  C1272   1.303   .     A
O1268  Cu1274  1.977   .     S
O1269  Cu1273  1.964   .     S
O1269  C1272   1.295   .     A
O1270  Cu1274  1.964   .     S
O1270  C1271   1.295   .     A
C1271  C1278   1.459   .     S
C1272  C1277   1.459   .     S
Cu1273 Cu1274  2.708   .     S
Cu1273 N1303   2.035   .     S
Cu1274 N1304   2.035   .     S
C1275  C1285   1.414   .     A
C1275  C1305   1.493   .     S
C1275  C1277   1.405   .     A
C1276  C1308   1.493   .     S
C1276  C1286   1.413   .     A
C1276  C1278   1.405   .     A
C1277  C1279   1.409   .     A
C1278  C1280   1.409   .     A
C1279  C1281   1.419   .     A
C1279  C1311   1.520   .     S
C1280  C1315   1.520   .     S
C1280  C1282   1.419   .     A
C1281  C1287   1.422   .     A
C1281  C1283   1.426   .     A
C1282  C1288   1.422   .     A
C1282  C1284   1.426   .     A
C1283  C1285   1.419   .     A
C1283  C474    1.422   1_556 S
C1284  C1286   1.419   .     A
C1285  C1290   1.402   .     A
C1286  C1289   1.402   .     A
C1287  C1319   1.515   .     S
C1287  C479    1.390   1_556 S
C1288  C1323   1.515   .     S
C1289  H1291   1.076   .     S
C1290  H1292   1.076   .     S
C1290  C478    1.390   1_556 S
C1293  C1327   1.497   .     S
C1293  C1298   1.419   .     A
C1294  C1297   1.419   .     A
C1294  C1330   1.497   .     S
C1294  C1116   1.405   1_655 S
C1295  C1297   1.422   .     A
C1295  C1333   1.483   .     S
C1295  C1113   1.405   1_655 S
C1296  C1336   1.483   .     S
C1296  C1298   1.422   .     A
C1299  C1339   1.490   .     S
C1299  N1304   1.379   .     A
C1300  N1303   1.379   .     A
C1300  C1342   1.490   .     S
C1300  C1571   1.430   .     S
C1301  N1304   1.373   .     A
C1301  C1345   1.476   .     S
C1302  C1348   1.476   .     S
C1302  N1303   1.373   .     A
C1302  C1569   1.430   .     S
C1305  H1306   1.086   .     S
C1305  O1307   1.220   .     D
C1308  O1310   1.220   .     D
C1308  H1309   1.086   .     S
C1311  H1312   1.103   .     S
C1311  H1314   1.108   .     S
C1311  H1313   1.109   .     S
C1315  H1316   1.103   .     S
C1315  H1317   1.108   .     S
C1315  H1318   1.109   .     S
C1319  H1320   1.109   .     S
C1319  H1321   1.108   .     S
C1319  H1322   1.112   .     S
C1323  H1325   1.112   .     S
C1323  H1326   1.108   .     S
C1323  H1324   1.109   .     S
C1327  H1328   1.083   .     S
C1327  O1329   1.221   .     D
C1330  H1331   1.083   .     S
C1330  O1332   1.221   .     D
C1333  H1334   1.085   .     S
C1333  O1335   1.221   .     D
C1336  O1338   1.221   .     D
C1336  H1337   1.085   .     S
C1339  O1341   1.222   .     D
C1339  H1340   1.072   .     S
C1342  O1344   1.222   .     D
C1342  H1343   1.072   .     S
C1345  O1347   1.222   .     D
C1345  H1346   1.072   .     S
C1348  O1350   1.222   .     D
C1348  H1349   1.072   .     S
O1351  C1355   1.305   .     A
O1351  Cu1363  2.002   .     S
O1352  C1356   1.305   .     A
O1352  Cu1364  2.002   .     S
O1353  C1356   1.306   .     A
O1353  Cu1363  1.991   .     S
O1354  C1355   1.306   .     A
O1354  Cu1364  1.991   .     S
C1355  C1388   1.480   .     S
C1356  C1387   1.480   .     S
O1357  C1361   1.303   .     A
O1357  Cu1363  1.977   .     S
O1358  C1362   1.303   .     A
O1358  Cu1364  1.977   .     S
O1359  Cu1363  1.964   .     S
O1359  C1362   1.295   .     A
O1360  Cu1364  1.964   .     S
O1360  C1361   1.295   .     A
C1361  C1368   1.459   .     S
C1362  C1367   1.459   .     S
Cu1363 Cu1364  2.708   .     S
Cu1363 N1393   2.035   .     S
Cu1364 N1394   2.035   .     S
C1365  C1375   1.414   .     A
C1365  C1395   1.493   .     S
C1365  C1367   1.405   .     A
C1366  C1398   1.493   .     S
C1366  C1376   1.413   .     A
C1366  C1368   1.405   .     A
C1367  C1369   1.409   .     A
C1368  C1370   1.409   .     A
C1369  C1371   1.419   .     A
C1369  C1401   1.520   .     S
C1370  C1405   1.520   .     S
C1370  C1372   1.419   .     A
C1371  C1377   1.422   .     A
C1371  C1373   1.426   .     A
C1372  C1378   1.422   .     A
C1372  C1374   1.426   .     A
C1373  C1375   1.419   .     A
C1373  C564    1.422   1_556 S
C1374  C1376   1.419   .     A
C1375  C1380   1.402   .     A
C1376  C1379   1.402   .     A
C1377  C1409   1.515   .     S
C1377  C569    1.390   1_556 S
C1378  C1413   1.515   .     S
C1379  H1381   1.076   .     S
C1380  H1382   1.076   .     S
C1380  C568    1.390   1_556 S
C1383  C1417   1.497   .     S
C1383  C1388   1.419   .     A
C1383  C1565   1.405   1_455 S
C1384  C1387   1.419   .     A
C1384  C1420   1.497   .     S
C1384  C1476   1.405   .     S
C1385  C1387   1.422   .     A
C1385  C1423   1.483   .     S
C1385  C1473   1.405   .     S
C1386  C1426   1.483   .     S
C1386  C1388   1.422   .     A
C1386  C1564   1.405   1_455 S
C1389  C1429   1.490   .     S
C1389  N1394   1.379   .     A
C1390  N1393   1.379   .     A
C1390  C1432   1.490   .     S
C1390  C851    1.430   1_565 S
C1391  N1394   1.373   .     A
C1391  C1435   1.476   .     S
C1392  C1438   1.476   .     S
C1392  N1393   1.373   .     A
C1392  C849    1.430   1_565 S
C1395  H1396   1.086   .     S
C1395  O1397   1.220   .     D
C1398  O1400   1.220   .     D
C1398  H1399   1.086   .     S
C1401  H1402   1.103   .     S
C1401  H1404   1.108   .     S
C1401  H1403   1.109   .     S
C1405  H1406   1.103   .     S
C1405  H1407   1.108   .     S
C1405  H1408   1.109   .     S
C1409  H1410   1.109   .     S
C1409  H1411   1.108   .     S
C1409  H1412   1.112   .     S
C1413  H1415   1.112   .     S
C1413  H1416   1.108   .     S
C1413  H1414   1.109   .     S
C1417  H1418   1.083   .     S
C1417  O1419   1.221   .     D
C1420  H1421   1.083   .     S
C1420  O1422   1.221   .     D
C1423  H1424   1.085   .     S
C1423  O1425   1.221   .     D
C1426  O1428   1.221   .     D
C1426  H1427   1.085   .     S
C1429  O1431   1.222   .     D
C1429  H1430   1.072   .     S
C1432  O1434   1.222   .     D
C1432  H1433   1.072   .     S
C1435  O1437   1.222   .     D
C1435  H1436   1.072   .     S
C1438  O1440   1.222   .     D
C1438  H1439   1.072   .     S
O1441  C1445   1.305   .     A
O1441  Cu1453  2.002   .     S
O1442  C1446   1.305   .     A
O1442  Cu1454  2.002   .     S
O1443  C1446   1.306   .     A
O1443  Cu1453  1.991   .     S
O1444  C1445   1.306   .     A
O1444  Cu1454  1.991   .     S
C1445  C1478   1.480   .     S
C1446  C1477   1.480   .     S
O1447  C1451   1.303   .     A
O1447  Cu1453  1.977   .     S
O1448  C1452   1.303   .     A
O1448  Cu1454  1.977   .     S
O1449  Cu1453  1.964   .     S
O1449  C1452   1.295   .     A
O1450  Cu1454  1.964   .     S
O1450  C1451   1.295   .     A
C1451  C1458   1.459   .     S
C1452  C1457   1.459   .     S
Cu1453 Cu1454  2.708   .     S
Cu1453 N1483   2.035   .     S
Cu1454 N1484   2.035   .     S
C1455  C1465   1.414   .     A
C1455  C1485   1.493   .     S
C1455  C1457   1.405   .     A
C1456  C1488   1.493   .     S
C1456  C1466   1.413   .     A
C1456  C1458   1.405   .     A
C1457  C1459   1.409   .     A
C1458  C1460   1.409   .     A
C1459  C1461   1.419   .     A
C1459  C1491   1.520   .     S
C1460  C1495   1.520   .     S
C1460  C1462   1.419   .     A
C1461  C1467   1.422   .     A
C1461  C1463   1.426   .     A
C1462  C1468   1.422   .     A
C1462  C1464   1.426   .     A
C1463  C1465   1.419   .     A
C1463  C654    1.422   1_556 S
C1464  C1466   1.419   .     A
C1465  C1470   1.402   .     A
C1466  C1469   1.402   .     A
C1467  C1499   1.515   .     S
C1467  C659    1.390   1_556 S
C1468  C1503   1.515   .     S
C1469  H1471   1.076   .     S
C1470  H1472   1.076   .     S
C1470  C658    1.390   1_556 S
C1473  C1507   1.497   .     S
C1473  C1478   1.419   .     A
C1474  C1477   1.419   .     A
C1474  C1510   1.497   .     S
C1474  C1566   1.405   .     S
C1475  C1477   1.422   .     A
C1475  C1513   1.483   .     S
C1475  C1563   1.405   .     S
C1476  C1516   1.483   .     S
C1476  C1478   1.422   .     A
C1479  C1519   1.490   .     S
C1479  N1484   1.379   .     A
C1480  N1483   1.379   .     A
C1480  C1522   1.490   .     S
C1480  C941    1.430   1_565 S
C1481  N1484   1.373   .     A
C1481  C1525   1.476   .     S
C1482  C1528   1.476   .     S
C1482  N1483   1.373   .     A
C1482  C939    1.430   1_565 S
C1485  H1486   1.086   .     S
C1485  O1487   1.220   .     D
C1488  O1490   1.220   .     D
C1488  H1489   1.086   .     S
C1491  H1492   1.103   .     S
C1491  H1494   1.108   .     S
C1491  H1493   1.109   .     S
C1495  H1496   1.103   .     S
C1495  H1497   1.108   .     S
C1495  H1498   1.109   .     S
C1499  H1500   1.109   .     S
C1499  H1501   1.108   .     S
C1499  H1502   1.112   .     S
C1503  H1505   1.112   .     S
C1503  H1506   1.108   .     S
C1503  H1504   1.109   .     S
C1507  H1508   1.083   .     S
C1507  O1509   1.221   .     D
C1510  H1511   1.083   .     S
C1510  O1512   1.221   .     D
C1513  H1514   1.085   .     S
C1513  O1515   1.221   .     D
C1516  O1518   1.221   .     D
C1516  H1517   1.085   .     S
C1519  O1521   1.222   .     D
C1519  H1520   1.072   .     S
C1522  O1524   1.222   .     D
C1522  H1523   1.072   .     S
C1525  O1527   1.222   .     D
C1525  H1526   1.072   .     S
C1528  O1530   1.222   .     D
C1528  H1529   1.072   .     S
O1531  C1535   1.305   .     A
O1531  Cu1543  2.002   .     S
O1532  C1536   1.305   .     A
O1532  Cu1544  2.002   .     S
O1533  C1536   1.306   .     A
O1533  Cu1543  1.991   .     S
O1534  C1535   1.306   .     A
O1534  Cu1544  1.991   .     S
C1535  C1568   1.480   .     S
C1536  C1567   1.480   .     S
O1537  C1541   1.303   .     A
O1537  Cu1543  1.977   .     S
O1538  C1542   1.303   .     A
O1538  Cu1544  1.977   .     S
O1539  Cu1543  1.964   .     S
O1539  C1542   1.295   .     A
O1540  Cu1544  1.964   .     S
O1540  C1541   1.295   .     A
C1541  C1548   1.459   .     S
C1542  C1547   1.459   .     S
Cu1543 Cu1544  2.708   .     S
Cu1543 N1573   2.035   .     S
Cu1544 N1574   2.035   .     S
C1545  C1555   1.414   .     A
C1545  C1575   1.493   .     S
C1545  C1547   1.405   .     A
C1546  C1578   1.493   .     S
C1546  C1556   1.413   .     A
C1546  C1548   1.405   .     A
C1547  C1549   1.409   .     A
C1548  C1550   1.409   .     A
C1549  C1551   1.419   .     A
C1549  C1581   1.520   .     S
C1550  C1585   1.520   .     S
C1550  C1552   1.419   .     A
C1551  C1557   1.422   .     A
C1551  C1553   1.426   .     A
C1552  C1558   1.422   .     A
C1552  C1554   1.426   .     A
C1553  C1555   1.419   .     A
C1553  C744    1.422   1_556 S
C1554  C1556   1.419   .     A
C1555  C1560   1.402   .     A
C1556  C1559   1.402   .     A
C1557  C1589   1.515   .     S
C1557  C749    1.390   1_556 S
C1558  C1593   1.515   .     S
C1559  H1561   1.076   .     S
C1560  H1562   1.076   .     S
C1560  C748    1.390   1_556 S
C1563  C1597   1.497   .     S
C1563  C1568   1.419   .     A
C1564  C1567   1.419   .     A
C1564  C1600   1.497   .     S
C1564  C1386   1.405   1_655 S
C1565  C1567   1.422   .     A
C1565  C1603   1.483   .     S
C1565  C1383   1.405   1_655 S
C1566  C1606   1.483   .     S
C1566  C1568   1.422   .     A
C1569  C1609   1.490   .     S
C1569  N1574   1.379   .     A
C1570  N1573   1.379   .     A
C1570  C1612   1.490   .     S
C1570  C1031   1.430   1_565 S
C1571  N1574   1.373   .     A
C1571  C1615   1.476   .     S
C1572  C1618   1.476   .     S
C1572  N1573   1.373   .     A
C1572  C1029   1.430   1_565 S
C1575  H1576   1.086   .     S
C1575  O1577   1.220   .     D
C1578  O1580   1.220   .     D
C1578  H1579   1.086   .     S
C1581  H1582   1.103   .     S
C1581  H1584   1.108   .     S
C1581  H1583   1.109   .     S
C1585  H1586   1.103   .     S
C1585  H1587   1.108   .     S
C1585  H1588   1.109   .     S
C1589  H1590   1.109   .     S
C1589  H1591   1.108   .     S
C1589  H1592   1.112   .     S
C1593  H1595   1.112   .     S
C1593  H1596   1.108   .     S
C1593  H1594   1.109   .     S
C1597  H1598   1.083   .     S
C1597  O1599   1.221   .     D
C1600  H1601   1.083   .     S
C1600  O1602   1.221   .     D
C1603  H1604   1.085   .     S
C1603  O1605   1.221   .     D
C1606  O1608   1.221   .     D
C1606  H1607   1.085   .     S
C1609  O1611   1.222   .     D
C1609  H1610   1.072   .     S
C1612  O1614   1.222   .     D
C1612  H1613   1.072   .     S
C1615  O1617   1.222   .     D
C1615  H1616   1.072   .     S
C1618  O1620   1.222   .     D
C1618  H1619   1.072   .     S
