data_str_m2_o1_o2_pcu_sym.100
_audit_creation_date              2020-01-03
_audit_creation_method            'Materials Studio'
_symmetry_space_group_name_H-M    'P1'
_symmetry_Int_Tables_number       1
_symmetry_cell_setting            triclinic
loop_
_symmetry_equiv_pos_as_xyz
  x,y,z
_cell_length_a                    32.8206
_cell_length_b                    28.8280
_cell_length_c                    30.1196
_cell_angle_alpha                 89.9804
_cell_angle_beta                  96.0397
_cell_angle_gamma                 90.0223
loop_
_atom_site_label
_atom_site_type_symbol
_atom_site_fract_x
_atom_site_fract_y
_atom_site_fract_z
_atom_site_U_iso_or_equiv
_atom_site_adp_type
_atom_site_occupancy
C1     C     0.08769   0.16666   0.25271   0.00000  Uiso   1.00
C2     C     0.31211   0.20907   0.24590   0.00000  Uiso   1.00
C3     C     0.31204   0.12430   0.24556   0.00000  Uiso   1.00
C4     C     0.02129   0.20903   0.25444   0.00000  Uiso   1.00
C5     C     0.18546   0.20794   0.04799   0.00000  Uiso   1.00
C6     C     0.14785   0.12539   0.45200   0.00000  Uiso   1.00
C7     C     0.14769   0.20783   0.45195   0.00000  Uiso   1.00
C8     C     0.18561   0.12549   0.04805   0.00000  Uiso   1.00
C9     C     0.18446   0.20878   0.09445   0.00000  Uiso   1.00
C10    C     0.14886   0.12454   0.40555   0.00000  Uiso   1.00
C11    C     0.14868   0.20867   0.40549   0.00000  Uiso   1.00
C12    C     0.24564   0.16668   0.24729   0.00000  Uiso   1.00
C13    C     0.18464   0.12465   0.09451   0.00000  Uiso   1.00
C14    C     0.17818   0.16670   0.11745   0.00000  Uiso   1.00
C15    C     0.15515   0.16663   0.38255   0.00000  Uiso   1.00
C16    C     0.17504   0.16668   0.02434   0.00000  Uiso   1.00
C17    C     0.15827   0.16664   0.47565   0.00000  Uiso   1.00
C18    C     0.29024   0.16669   0.24482   0.00000  Uiso   1.00
C19    C     0.04309   0.16664   0.25519   0.00000  Uiso   1.00
C20    C     0.11015   0.04897   0.18559   0.00000  Uiso   1.00
C21    C     0.22318   0.28436   0.31441   0.00000  Uiso   1.00
C22    C     0.22330   0.04898   0.31429   0.00000  Uiso   1.00
C23    C     0.17020   0.16668   0.16525   0.00000  Uiso   1.00
C24    C     0.11003   0.28436   0.18571   0.00000  Uiso   1.00
C25    C     0.16314   0.16666   0.33475   0.00000  Uiso   1.00
C26    C     0.14015   0.02479   0.22001   0.00000  Uiso   1.00
C27    C     0.19319   0.30854   0.28000   0.00000  Uiso   1.00
C28    C     0.19320   0.02479   0.27998   0.00000  Uiso   1.00
C29    C     0.14014   0.30854   0.22002   0.00000  Uiso   1.00
C30    C     0.02122   0.12426   0.25411   0.00000  Uiso   1.00
Cl31   Cl    0.21099   0.25341   0.02243   0.00000  Uiso   1.00
Cl32   Cl    0.28821   0.26316   0.23172   0.00000  Uiso   1.00
Cl33   Cl    0.28804   0.07036   0.23094   0.00000  Uiso   1.00
Cl34   Cl    0.04530   0.26297   0.26906   0.00000  Uiso   1.00
Cl35   Cl    0.12225   0.07997   0.47753   0.00000  Uiso   1.00
Cl36   Cl    0.12196   0.25314   0.47745   0.00000  Uiso   1.00
Cl37   Cl    0.21125   0.08012   0.02254   0.00000  Uiso   1.00
Cl38   Cl    0.19569   0.26208   0.12243   0.00000  Uiso   1.00
Cl39   Cl    0.13763   0.07125   0.37757   0.00000  Uiso   1.00
Cl40   Cl    0.13717   0.26186   0.37742   0.00000  Uiso   1.00
Cl41   Cl    0.19615   0.07146   0.12258   0.00000  Uiso   1.00
Cl42   Cl    0.04512   0.07017   0.26829   0.00000  Uiso   1.00
Cu43   Cu    0.16667   0.21355   0.25000   0.00000  Uiso   1.00
Cu44   Cu    0.16667   0.11978   0.25000   0.00000  Uiso   1.00
H45    H     0.10907   0.08649   0.18695   0.00000  Uiso   1.00
H46    H     0.10911   0.24683   0.18691   0.00000  Uiso   1.00
H47    H     0.07824   0.29501   0.18988   0.00000  Uiso   1.00
H48    H     0.11690   0.29345   0.15151   0.00000  Uiso   1.00
H49    H     0.11730   0.04009   0.15143   0.00000  Uiso   1.00
H50    H     0.07834   0.03812   0.18944   0.00000  Uiso   1.00
H51    H     0.22426   0.24684   0.31305   0.00000  Uiso   1.00
H52    H     0.25499   0.29522   0.31057   0.00000  Uiso   1.00
H53    H     0.21603   0.29324   0.34857   0.00000  Uiso   1.00
H54    H     0.22422   0.08651   0.31310   0.00000  Uiso   1.00
H55    H     0.21643   0.03988   0.34850   0.00000  Uiso   1.00
H56    H     0.25509   0.03832   0.31012   0.00000  Uiso   1.00
N57    N     0.16667   0.28402   0.25000   0.00000  Uiso   1.00
N58    N     0.16667   0.04931   0.25000   0.00000  Uiso   1.00
O59    O     0.10655   0.20625   0.25000   0.00000  Uiso   1.00
O60    O     0.22679   0.12709   0.25001   0.00000  Uiso   1.00
O61    O     0.22679   0.20625   0.25001   0.00000  Uiso   1.00
O62    O     0.10655   0.12709   0.25000   0.00000  Uiso   1.00
O63    O     0.16666   0.20626   0.18573   0.00000  Uiso   1.00
O64    O     0.16667   0.12707   0.31427   0.00000  Uiso   1.00
O65    O     0.16667   0.20626   0.31427   0.00000  Uiso   1.00
O66    O     0.16666   0.12707   0.18573   0.00000  Uiso   1.00
C67    C     0.42103   0.16666   0.25271   0.00000  Uiso   1.00
C68    C     0.64545   0.20907   0.24590   0.00000  Uiso   1.00
C69    C     0.64538   0.12430   0.24556   0.00000  Uiso   1.00
C70    C     0.35462   0.20903   0.25444   0.00000  Uiso   1.00
C71    C     0.51879   0.20794   0.04799   0.00000  Uiso   1.00
C72    C     0.48119   0.12539   0.45200   0.00000  Uiso   1.00
C73    C     0.48102   0.20783   0.45195   0.00000  Uiso   1.00
C74    C     0.51894   0.12549   0.04805   0.00000  Uiso   1.00
C75    C     0.51779   0.20878   0.09445   0.00000  Uiso   1.00
C76    C     0.48220   0.12454   0.40555   0.00000  Uiso   1.00
C77    C     0.48201   0.20867   0.40549   0.00000  Uiso   1.00
C78    C     0.57897   0.16668   0.24729   0.00000  Uiso   1.00
C79    C     0.51797   0.12465   0.09451   0.00000  Uiso   1.00
C80    C     0.51151   0.16670   0.11745   0.00000  Uiso   1.00
C81    C     0.48848   0.16663   0.38255   0.00000  Uiso   1.00
C82    C     0.50837   0.16668   0.02434   0.00000  Uiso   1.00
C83    C     0.49161   0.16664   0.47565   0.00000  Uiso   1.00
C84    C     0.62358   0.16669   0.24482   0.00000  Uiso   1.00
C85    C     0.37643   0.16664   0.25519   0.00000  Uiso   1.00
C86    C     0.44348   0.04897   0.18559   0.00000  Uiso   1.00
C87    C     0.55651   0.28436   0.31441   0.00000  Uiso   1.00
C88    C     0.55664   0.04898   0.31429   0.00000  Uiso   1.00
C89    C     0.50353   0.16668   0.16525   0.00000  Uiso   1.00
C90    C     0.44336   0.28436   0.18571   0.00000  Uiso   1.00
C91    C     0.49647   0.16666   0.33475   0.00000  Uiso   1.00
C92    C     0.47348   0.02479   0.22001   0.00000  Uiso   1.00
C93    C     0.52652   0.30854   0.28000   0.00000  Uiso   1.00
C94    C     0.52653   0.02479   0.27998   0.00000  Uiso   1.00
C95    C     0.47347   0.30854   0.22002   0.00000  Uiso   1.00
C96    C     0.35455   0.12426   0.25411   0.00000  Uiso   1.00
Cl97   Cl    0.54432   0.25341   0.02243   0.00000  Uiso   1.00
Cl98   Cl    0.62155   0.26316   0.23172   0.00000  Uiso   1.00
Cl99   Cl    0.62137   0.07036   0.23094   0.00000  Uiso   1.00
Cl100  Cl    0.37863   0.26297   0.26906   0.00000  Uiso   1.00
Cl101  Cl    0.45558   0.07997   0.47753   0.00000  Uiso   1.00
Cl102  Cl    0.45530   0.25314   0.47745   0.00000  Uiso   1.00
Cl103  Cl    0.54459   0.08012   0.02254   0.00000  Uiso   1.00
Cl104  Cl    0.52903   0.26208   0.12243   0.00000  Uiso   1.00
Cl105  Cl    0.47096   0.07125   0.37757   0.00000  Uiso   1.00
Cl106  Cl    0.47050   0.26186   0.37742   0.00000  Uiso   1.00
Cl107  Cl    0.52948   0.07146   0.12258   0.00000  Uiso   1.00
Cl108  Cl    0.37846   0.07017   0.26829   0.00000  Uiso   1.00
Cu109  Cu    0.50000   0.21355   0.25000   0.00000  Uiso   1.00
Cu110  Cu    0.50000   0.11978   0.25000   0.00000  Uiso   1.00
H111   H     0.44241   0.08649   0.18695   0.00000  Uiso   1.00
H112   H     0.44245   0.24683   0.18691   0.00000  Uiso   1.00
H113   H     0.41157   0.29501   0.18988   0.00000  Uiso   1.00
H114   H     0.45024   0.29345   0.15151   0.00000  Uiso   1.00
H115   H     0.45063   0.04009   0.15143   0.00000  Uiso   1.00
H116   H     0.41168   0.03812   0.18944   0.00000  Uiso   1.00
H117   H     0.55759   0.24684   0.31305   0.00000  Uiso   1.00
H118   H     0.58832   0.29522   0.31057   0.00000  Uiso   1.00
H119   H     0.54936   0.29324   0.34857   0.00000  Uiso   1.00
H120   H     0.55755   0.08651   0.31310   0.00000  Uiso   1.00
H121   H     0.54976   0.03988   0.34850   0.00000  Uiso   1.00
H122   H     0.58843   0.03832   0.31012   0.00000  Uiso   1.00
N123   N     0.50000   0.28402   0.25000   0.00000  Uiso   1.00
N124   N     0.50000   0.04931   0.25000   0.00000  Uiso   1.00
O125   O     0.43988   0.20625   0.25000   0.00000  Uiso   1.00
O126   O     0.56012   0.12709   0.25001   0.00000  Uiso   1.00
O127   O     0.56012   0.20625   0.25001   0.00000  Uiso   1.00
O128   O     0.43988   0.12709   0.25000   0.00000  Uiso   1.00
O129   O     0.50000   0.20626   0.18573   0.00000  Uiso   1.00
O130   O     0.50000   0.12707   0.31427   0.00000  Uiso   1.00
O131   O     0.50000   0.20626   0.31427   0.00000  Uiso   1.00
O132   O     0.50000   0.12707   0.18573   0.00000  Uiso   1.00
C133   C     0.75436   0.16666   0.25271   0.00000  Uiso   1.00
C134   C     0.97878   0.20907   0.24590   0.00000  Uiso   1.00
C135   C     0.97871   0.12430   0.24556   0.00000  Uiso   1.00
C136   C     0.68796   0.20903   0.25444   0.00000  Uiso   1.00
C137   C     0.85212   0.20794   0.04799   0.00000  Uiso   1.00
C138   C     0.81452   0.12539   0.45200   0.00000  Uiso   1.00
C139   C     0.81436   0.20783   0.45195   0.00000  Uiso   1.00
C140   C     0.85228   0.12549   0.04805   0.00000  Uiso   1.00
C141   C     0.85113   0.20878   0.09445   0.00000  Uiso   1.00
C142   C     0.81553   0.12454   0.40555   0.00000  Uiso   1.00
C143   C     0.81535   0.20867   0.40549   0.00000  Uiso   1.00
C144   C     0.91231   0.16668   0.24729   0.00000  Uiso   1.00
C145   C     0.85130   0.12465   0.09451   0.00000  Uiso   1.00
C146   C     0.84484   0.16670   0.11745   0.00000  Uiso   1.00
C147   C     0.82182   0.16663   0.38255   0.00000  Uiso   1.00
C148   C     0.84170   0.16668   0.02434   0.00000  Uiso   1.00
C149   C     0.82494   0.16664   0.47565   0.00000  Uiso   1.00
C150   C     0.95691   0.16669   0.24482   0.00000  Uiso   1.00
C151   C     0.70976   0.16664   0.25519   0.00000  Uiso   1.00
C152   C     0.77682   0.04897   0.18559   0.00000  Uiso   1.00
C153   C     0.88985   0.28436   0.31441   0.00000  Uiso   1.00
C154   C     0.88997   0.04898   0.31429   0.00000  Uiso   1.00
C155   C     0.83686   0.16668   0.16525   0.00000  Uiso   1.00
C156   C     0.77670   0.28436   0.18571   0.00000  Uiso   1.00
C157   C     0.82980   0.16666   0.33475   0.00000  Uiso   1.00
C158   C     0.80681   0.02479   0.22001   0.00000  Uiso   1.00
C159   C     0.85985   0.30854   0.28000   0.00000  Uiso   1.00
C160   C     0.85986   0.02479   0.27998   0.00000  Uiso   1.00
C161   C     0.80680   0.30854   0.22002   0.00000  Uiso   1.00
C162   C     0.68789   0.12426   0.25411   0.00000  Uiso   1.00
Cl163  Cl    0.87765   0.25341   0.02243   0.00000  Uiso   1.00
Cl164  Cl    0.95488   0.26316   0.23172   0.00000  Uiso   1.00
Cl165  Cl    0.95471   0.07036   0.23094   0.00000  Uiso   1.00
Cl166  Cl    0.71196   0.26297   0.26906   0.00000  Uiso   1.00
Cl167  Cl    0.78891   0.07997   0.47753   0.00000  Uiso   1.00
Cl168  Cl    0.78863   0.25314   0.47745   0.00000  Uiso   1.00
Cl169  Cl    0.87792   0.08012   0.02254   0.00000  Uiso   1.00
Cl170  Cl    0.86236   0.26208   0.12243   0.00000  Uiso   1.00
Cl171  Cl    0.80429   0.07125   0.37757   0.00000  Uiso   1.00
Cl172  Cl    0.80383   0.26186   0.37742   0.00000  Uiso   1.00
Cl173  Cl    0.86281   0.07146   0.12258   0.00000  Uiso   1.00
Cl174  Cl    0.71179   0.07017   0.26829   0.00000  Uiso   1.00
Cu175  Cu    0.83333   0.21355   0.25000   0.00000  Uiso   1.00
Cu176  Cu    0.83333   0.11978   0.25000   0.00000  Uiso   1.00
H177   H     0.77574   0.08649   0.18695   0.00000  Uiso   1.00
H178   H     0.77578   0.24683   0.18691   0.00000  Uiso   1.00
H179   H     0.74491   0.29501   0.18988   0.00000  Uiso   1.00
H180   H     0.78357   0.29345   0.15151   0.00000  Uiso   1.00
H181   H     0.78396   0.04009   0.15143   0.00000  Uiso   1.00
H182   H     0.74501   0.03812   0.18944   0.00000  Uiso   1.00
H183   H     0.89093   0.24684   0.31305   0.00000  Uiso   1.00
H184   H     0.92165   0.29522   0.31057   0.00000  Uiso   1.00
H185   H     0.88270   0.29324   0.34857   0.00000  Uiso   1.00
H186   H     0.89089   0.08651   0.31310   0.00000  Uiso   1.00
H187   H     0.88310   0.03988   0.34850   0.00000  Uiso   1.00
H188   H     0.92176   0.03832   0.31012   0.00000  Uiso   1.00
N189   N     0.83333   0.28402   0.25000   0.00000  Uiso   1.00
N190   N     0.83333   0.04931   0.25000   0.00000  Uiso   1.00
O191   O     0.77321   0.20625   0.25000   0.00000  Uiso   1.00
O192   O     0.89345   0.12709   0.25001   0.00000  Uiso   1.00
O193   O     0.89345   0.20625   0.25001   0.00000  Uiso   1.00
O194   O     0.77321   0.12709   0.25000   0.00000  Uiso   1.00
O195   O     0.83333   0.20626   0.18573   0.00000  Uiso   1.00
O196   O     0.83334   0.12707   0.31427   0.00000  Uiso   1.00
O197   O     0.83334   0.20626   0.31427   0.00000  Uiso   1.00
O198   O     0.83333   0.12707   0.18573   0.00000  Uiso   1.00
C199   C     0.08769   0.49999   0.25271   0.00000  Uiso   1.00
C200   C     0.31211   0.54241   0.24590   0.00000  Uiso   1.00
C201   C     0.31204   0.45764   0.24556   0.00000  Uiso   1.00
C202   C     0.02129   0.54236   0.25444   0.00000  Uiso   1.00
C203   C     0.18546   0.54127   0.04799   0.00000  Uiso   1.00
C204   C     0.14785   0.45872   0.45200   0.00000  Uiso   1.00
C205   C     0.14769   0.54117   0.45195   0.00000  Uiso   1.00
C206   C     0.18561   0.45882   0.04805   0.00000  Uiso   1.00
C207   C     0.18446   0.54212   0.09445   0.00000  Uiso   1.00
C208   C     0.14886   0.45788   0.40555   0.00000  Uiso   1.00
C209   C     0.14868   0.54201   0.40549   0.00000  Uiso   1.00
C210   C     0.24564   0.50001   0.24729   0.00000  Uiso   1.00
C211   C     0.18464   0.45799   0.09451   0.00000  Uiso   1.00
C212   C     0.17818   0.50004   0.11745   0.00000  Uiso   1.00
C213   C     0.15515   0.49996   0.38255   0.00000  Uiso   1.00
C214   C     0.17504   0.50002   0.02434   0.00000  Uiso   1.00
C215   C     0.15827   0.49997   0.47565   0.00000  Uiso   1.00
C216   C     0.29024   0.50003   0.24482   0.00000  Uiso   1.00
C217   C     0.04309   0.49997   0.25519   0.00000  Uiso   1.00
C218   C     0.11015   0.38231   0.18559   0.00000  Uiso   1.00
C219   C     0.22318   0.61769   0.31441   0.00000  Uiso   1.00
C220   C     0.22330   0.38231   0.31429   0.00000  Uiso   1.00
C221   C     0.17020   0.50001   0.16525   0.00000  Uiso   1.00
C222   C     0.11003   0.61769   0.18571   0.00000  Uiso   1.00
C223   C     0.16314   0.49999   0.33475   0.00000  Uiso   1.00
C224   C     0.14015   0.35813   0.22001   0.00000  Uiso   1.00
C225   C     0.19319   0.64187   0.28000   0.00000  Uiso   1.00
C226   C     0.19320   0.35813   0.27998   0.00000  Uiso   1.00
C227   C     0.14014   0.64187   0.22002   0.00000  Uiso   1.00
C228   C     0.02122   0.45759   0.25411   0.00000  Uiso   1.00
Cl229  Cl    0.21099   0.58674   0.02243   0.00000  Uiso   1.00
Cl230  Cl    0.28821   0.59649   0.23172   0.00000  Uiso   1.00
Cl231  Cl    0.28804   0.40369   0.23094   0.00000  Uiso   1.00
Cl232  Cl    0.04530   0.59631   0.26906   0.00000  Uiso   1.00
Cl233  Cl    0.12225   0.41331   0.47753   0.00000  Uiso   1.00
Cl234  Cl    0.12196   0.58648   0.47745   0.00000  Uiso   1.00
Cl235  Cl    0.21125   0.41346   0.02254   0.00000  Uiso   1.00
Cl236  Cl    0.19569   0.59541   0.12243   0.00000  Uiso   1.00
Cl237  Cl    0.13763   0.40458   0.37757   0.00000  Uiso   1.00
Cl238  Cl    0.13717   0.59520   0.37742   0.00000  Uiso   1.00
Cl239  Cl    0.19615   0.40480   0.12258   0.00000  Uiso   1.00
Cl240  Cl    0.04512   0.40351   0.26829   0.00000  Uiso   1.00
Cu241  Cu    0.16667   0.54689   0.25000   0.00000  Uiso   1.00
Cu242  Cu    0.16667   0.45311   0.25000   0.00000  Uiso   1.00
H243   H     0.10907   0.41983   0.18695   0.00000  Uiso   1.00
H244   H     0.10911   0.58016   0.18691   0.00000  Uiso   1.00
H245   H     0.07824   0.62835   0.18988   0.00000  Uiso   1.00
H246   H     0.11690   0.62679   0.15151   0.00000  Uiso   1.00
H247   H     0.11730   0.37342   0.15143   0.00000  Uiso   1.00
H248   H     0.07834   0.37145   0.18944   0.00000  Uiso   1.00
H249   H     0.22426   0.58018   0.31305   0.00000  Uiso   1.00
H250   H     0.25499   0.62855   0.31057   0.00000  Uiso   1.00
H251   H     0.21603   0.62657   0.34857   0.00000  Uiso   1.00
H252   H     0.22422   0.41984   0.31310   0.00000  Uiso   1.00
H253   H     0.21643   0.37321   0.34850   0.00000  Uiso   1.00
H254   H     0.25509   0.37165   0.31012   0.00000  Uiso   1.00
N255   N     0.16667   0.61736   0.25000   0.00000  Uiso   1.00
N256   N     0.16667   0.38264   0.25000   0.00000  Uiso   1.00
O257   O     0.10655   0.53958   0.25000   0.00000  Uiso   1.00
O258   O     0.22679   0.46042   0.25001   0.00000  Uiso   1.00
O259   O     0.22679   0.53958   0.25001   0.00000  Uiso   1.00
O260   O     0.10655   0.46042   0.25000   0.00000  Uiso   1.00
O261   O     0.16666   0.53959   0.18573   0.00000  Uiso   1.00
O262   O     0.16667   0.46041   0.31427   0.00000  Uiso   1.00
O263   O     0.16667   0.53959   0.31427   0.00000  Uiso   1.00
O264   O     0.16666   0.46041   0.18573   0.00000  Uiso   1.00
C265   C     0.42103   0.49999   0.25271   0.00000  Uiso   1.00
C266   C     0.64545   0.54241   0.24590   0.00000  Uiso   1.00
C267   C     0.64538   0.45764   0.24556   0.00000  Uiso   1.00
C268   C     0.35462   0.54236   0.25444   0.00000  Uiso   1.00
C269   C     0.51879   0.54127   0.04799   0.00000  Uiso   1.00
C270   C     0.48119   0.45872   0.45200   0.00000  Uiso   1.00
C271   C     0.48102   0.54117   0.45195   0.00000  Uiso   1.00
C272   C     0.51894   0.45882   0.04805   0.00000  Uiso   1.00
C273   C     0.51779   0.54212   0.09445   0.00000  Uiso   1.00
C274   C     0.48220   0.45788   0.40555   0.00000  Uiso   1.00
C275   C     0.48201   0.54201   0.40549   0.00000  Uiso   1.00
C276   C     0.57897   0.50001   0.24729   0.00000  Uiso   1.00
C277   C     0.51797   0.45799   0.09451   0.00000  Uiso   1.00
C278   C     0.51151   0.50004   0.11745   0.00000  Uiso   1.00
C279   C     0.48848   0.49996   0.38255   0.00000  Uiso   1.00
C280   C     0.50837   0.50002   0.02434   0.00000  Uiso   1.00
C281   C     0.49161   0.49997   0.47565   0.00000  Uiso   1.00
C282   C     0.62358   0.50003   0.24482   0.00000  Uiso   1.00
C283   C     0.37643   0.49997   0.25519   0.00000  Uiso   1.00
C284   C     0.44348   0.38231   0.18559   0.00000  Uiso   1.00
C285   C     0.55651   0.61769   0.31441   0.00000  Uiso   1.00
C286   C     0.55664   0.38231   0.31429   0.00000  Uiso   1.00
C287   C     0.50353   0.50001   0.16525   0.00000  Uiso   1.00
C288   C     0.44336   0.61769   0.18571   0.00000  Uiso   1.00
C289   C     0.49647   0.49999   0.33475   0.00000  Uiso   1.00
C290   C     0.47348   0.35813   0.22001   0.00000  Uiso   1.00
C291   C     0.52652   0.64187   0.28000   0.00000  Uiso   1.00
C292   C     0.52653   0.35813   0.27998   0.00000  Uiso   1.00
C293   C     0.47347   0.64187   0.22002   0.00000  Uiso   1.00
C294   C     0.35455   0.45759   0.25411   0.00000  Uiso   1.00
Cl295  Cl    0.54432   0.58674   0.02243   0.00000  Uiso   1.00
Cl296  Cl    0.62155   0.59649   0.23172   0.00000  Uiso   1.00
Cl297  Cl    0.62137   0.40369   0.23094   0.00000  Uiso   1.00
Cl298  Cl    0.37863   0.59631   0.26906   0.00000  Uiso   1.00
Cl299  Cl    0.45558   0.41331   0.47753   0.00000  Uiso   1.00
Cl300  Cl    0.45530   0.58648   0.47745   0.00000  Uiso   1.00
Cl301  Cl    0.54459   0.41346   0.02254   0.00000  Uiso   1.00
Cl302  Cl    0.52903   0.59541   0.12243   0.00000  Uiso   1.00
Cl303  Cl    0.47096   0.40458   0.37757   0.00000  Uiso   1.00
Cl304  Cl    0.47050   0.59520   0.37742   0.00000  Uiso   1.00
Cl305  Cl    0.52948   0.40480   0.12258   0.00000  Uiso   1.00
Cl306  Cl    0.37846   0.40351   0.26829   0.00000  Uiso   1.00
Cu307  Cu    0.50000   0.54689   0.25000   0.00000  Uiso   1.00
Cu308  Cu    0.50000   0.45311   0.25000   0.00000  Uiso   1.00
H309   H     0.44241   0.41983   0.18695   0.00000  Uiso   1.00
H310   H     0.44245   0.58016   0.18691   0.00000  Uiso   1.00
H311   H     0.41157   0.62835   0.18988   0.00000  Uiso   1.00
H312   H     0.45024   0.62679   0.15151   0.00000  Uiso   1.00
H313   H     0.45063   0.37342   0.15143   0.00000  Uiso   1.00
H314   H     0.41168   0.37145   0.18944   0.00000  Uiso   1.00
H315   H     0.55759   0.58018   0.31305   0.00000  Uiso   1.00
H316   H     0.58832   0.62855   0.31057   0.00000  Uiso   1.00
H317   H     0.54936   0.62657   0.34857   0.00000  Uiso   1.00
H318   H     0.55755   0.41984   0.31310   0.00000  Uiso   1.00
H319   H     0.54976   0.37321   0.34850   0.00000  Uiso   1.00
H320   H     0.58843   0.37165   0.31012   0.00000  Uiso   1.00
N321   N     0.50000   0.61736   0.25000   0.00000  Uiso   1.00
N322   N     0.50000   0.38264   0.25000   0.00000  Uiso   1.00
O323   O     0.43988   0.53958   0.25000   0.00000  Uiso   1.00
O324   O     0.56012   0.46042   0.25001   0.00000  Uiso   1.00
O325   O     0.56012   0.53958   0.25001   0.00000  Uiso   1.00
O326   O     0.43988   0.46042   0.25000   0.00000  Uiso   1.00
O327   O     0.50000   0.53959   0.18573   0.00000  Uiso   1.00
O328   O     0.50000   0.46041   0.31427   0.00000  Uiso   1.00
O329   O     0.50000   0.53959   0.31427   0.00000  Uiso   1.00
O330   O     0.50000   0.46041   0.18573   0.00000  Uiso   1.00
C331   C     0.75436   0.49999   0.25271   0.00000  Uiso   1.00
C332   C     0.97878   0.54241   0.24590   0.00000  Uiso   1.00
C333   C     0.97871   0.45764   0.24556   0.00000  Uiso   1.00
C334   C     0.68796   0.54236   0.25444   0.00000  Uiso   1.00
C335   C     0.85212   0.54127   0.04799   0.00000  Uiso   1.00
C336   C     0.81452   0.45872   0.45200   0.00000  Uiso   1.00
C337   C     0.81436   0.54117   0.45195   0.00000  Uiso   1.00
C338   C     0.85228   0.45882   0.04805   0.00000  Uiso   1.00
C339   C     0.85113   0.54212   0.09445   0.00000  Uiso   1.00
C340   C     0.81553   0.45788   0.40555   0.00000  Uiso   1.00
C341   C     0.81535   0.54201   0.40549   0.00000  Uiso   1.00
C342   C     0.91231   0.50001   0.24729   0.00000  Uiso   1.00
C343   C     0.85130   0.45799   0.09451   0.00000  Uiso   1.00
C344   C     0.84484   0.50004   0.11745   0.00000  Uiso   1.00
C345   C     0.82182   0.49996   0.38255   0.00000  Uiso   1.00
C346   C     0.84170   0.50002   0.02434   0.00000  Uiso   1.00
C347   C     0.82494   0.49997   0.47565   0.00000  Uiso   1.00
C348   C     0.95691   0.50003   0.24482   0.00000  Uiso   1.00
C349   C     0.70976   0.49997   0.25519   0.00000  Uiso   1.00
C350   C     0.77682   0.38231   0.18559   0.00000  Uiso   1.00
C351   C     0.88985   0.61769   0.31441   0.00000  Uiso   1.00
C352   C     0.88997   0.38231   0.31429   0.00000  Uiso   1.00
C353   C     0.83686   0.50001   0.16525   0.00000  Uiso   1.00
C354   C     0.77670   0.61769   0.18571   0.00000  Uiso   1.00
C355   C     0.82980   0.49999   0.33475   0.00000  Uiso   1.00
C356   C     0.80681   0.35813   0.22001   0.00000  Uiso   1.00
C357   C     0.85985   0.64187   0.28000   0.00000  Uiso   1.00
C358   C     0.85986   0.35813   0.27998   0.00000  Uiso   1.00
C359   C     0.80680   0.64187   0.22002   0.00000  Uiso   1.00
C360   C     0.68789   0.45759   0.25411   0.00000  Uiso   1.00
Cl361  Cl    0.87765   0.58674   0.02243   0.00000  Uiso   1.00
Cl362  Cl    0.95488   0.59649   0.23172   0.00000  Uiso   1.00
Cl363  Cl    0.95471   0.40369   0.23094   0.00000  Uiso   1.00
Cl364  Cl    0.71196   0.59631   0.26906   0.00000  Uiso   1.00
Cl365  Cl    0.78891   0.41331   0.47753   0.00000  Uiso   1.00
Cl366  Cl    0.78863   0.58648   0.47745   0.00000  Uiso   1.00
Cl367  Cl    0.87792   0.41346   0.02254   0.00000  Uiso   1.00
Cl368  Cl    0.86236   0.59541   0.12243   0.00000  Uiso   1.00
Cl369  Cl    0.80429   0.40458   0.37757   0.00000  Uiso   1.00
Cl370  Cl    0.80383   0.59520   0.37742   0.00000  Uiso   1.00
Cl371  Cl    0.86281   0.40480   0.12258   0.00000  Uiso   1.00
Cl372  Cl    0.71179   0.40351   0.26829   0.00000  Uiso   1.00
Cu373  Cu    0.83333   0.54689   0.25000   0.00000  Uiso   1.00
Cu374  Cu    0.83333   0.45311   0.25000   0.00000  Uiso   1.00
H375   H     0.77574   0.41983   0.18695   0.00000  Uiso   1.00
H376   H     0.77578   0.58016   0.18691   0.00000  Uiso   1.00
H377   H     0.74491   0.62835   0.18988   0.00000  Uiso   1.00
H378   H     0.78357   0.62679   0.15151   0.00000  Uiso   1.00
H379   H     0.78396   0.37342   0.15143   0.00000  Uiso   1.00
H380   H     0.74501   0.37145   0.18944   0.00000  Uiso   1.00
H381   H     0.89093   0.58018   0.31305   0.00000  Uiso   1.00
H382   H     0.92165   0.62855   0.31057   0.00000  Uiso   1.00
H383   H     0.88270   0.62657   0.34857   0.00000  Uiso   1.00
H384   H     0.89089   0.41984   0.31310   0.00000  Uiso   1.00
H385   H     0.88310   0.37321   0.34850   0.00000  Uiso   1.00
H386   H     0.92176   0.37165   0.31012   0.00000  Uiso   1.00
N387   N     0.83333   0.61736   0.25000   0.00000  Uiso   1.00
N388   N     0.83333   0.38264   0.25000   0.00000  Uiso   1.00
O389   O     0.77321   0.53958   0.25000   0.00000  Uiso   1.00
O390   O     0.89345   0.46042   0.25001   0.00000  Uiso   1.00
O391   O     0.89345   0.53958   0.25001   0.00000  Uiso   1.00
O392   O     0.77321   0.46042   0.25000   0.00000  Uiso   1.00
O393   O     0.83333   0.53959   0.18573   0.00000  Uiso   1.00
O394   O     0.83334   0.46041   0.31427   0.00000  Uiso   1.00
O395   O     0.83334   0.53959   0.31427   0.00000  Uiso   1.00
O396   O     0.83333   0.46041   0.18573   0.00000  Uiso   1.00
C397   C     0.08769   0.83332   0.25271   0.00000  Uiso   1.00
C398   C     0.31211   0.87574   0.24590   0.00000  Uiso   1.00
C399   C     0.31204   0.79097   0.24556   0.00000  Uiso   1.00
C400   C     0.02129   0.87570   0.25444   0.00000  Uiso   1.00
C401   C     0.18546   0.87461   0.04799   0.00000  Uiso   1.00
C402   C     0.14785   0.79205   0.45200   0.00000  Uiso   1.00
C403   C     0.14769   0.87450   0.45195   0.00000  Uiso   1.00
C404   C     0.18561   0.79215   0.04805   0.00000  Uiso   1.00
C405   C     0.18446   0.87545   0.09445   0.00000  Uiso   1.00
C406   C     0.14886   0.79121   0.40555   0.00000  Uiso   1.00
C407   C     0.14868   0.87534   0.40549   0.00000  Uiso   1.00
C408   C     0.24564   0.83334   0.24729   0.00000  Uiso   1.00
C409   C     0.18464   0.79132   0.09451   0.00000  Uiso   1.00
C410   C     0.17818   0.83337   0.11745   0.00000  Uiso   1.00
C411   C     0.15515   0.83329   0.38255   0.00000  Uiso   1.00
C412   C     0.17504   0.83335   0.02434   0.00000  Uiso   1.00
C413   C     0.15827   0.83331   0.47565   0.00000  Uiso   1.00
C414   C     0.29024   0.83336   0.24482   0.00000  Uiso   1.00
C415   C     0.04309   0.83331   0.25519   0.00000  Uiso   1.00
C416   C     0.11015   0.71564   0.18559   0.00000  Uiso   1.00
C417   C     0.22318   0.95103   0.31441   0.00000  Uiso   1.00
C418   C     0.22330   0.71564   0.31429   0.00000  Uiso   1.00
C419   C     0.17020   0.83334   0.16525   0.00000  Uiso   1.00
C420   C     0.11003   0.95102   0.18571   0.00000  Uiso   1.00
C421   C     0.16314   0.83332   0.33475   0.00000  Uiso   1.00
C422   C     0.14015   0.69146   0.22001   0.00000  Uiso   1.00
C423   C     0.19319   0.97521   0.28000   0.00000  Uiso   1.00
C424   C     0.19320   0.69146   0.27998   0.00000  Uiso   1.00
C425   C     0.14014   0.97521   0.22002   0.00000  Uiso   1.00
C426   C     0.02122   0.79093   0.25411   0.00000  Uiso   1.00
Cl427  Cl    0.21099   0.92008   0.02243   0.00000  Uiso   1.00
Cl428  Cl    0.28821   0.92983   0.23172   0.00000  Uiso   1.00
Cl429  Cl    0.28804   0.73703   0.23094   0.00000  Uiso   1.00
Cl430  Cl    0.04530   0.92964   0.26906   0.00000  Uiso   1.00
Cl431  Cl    0.12225   0.74664   0.47753   0.00000  Uiso   1.00
Cl432  Cl    0.12196   0.91981   0.47745   0.00000  Uiso   1.00
Cl433  Cl    0.21125   0.74679   0.02254   0.00000  Uiso   1.00
Cl434  Cl    0.19569   0.92874   0.12243   0.00000  Uiso   1.00
Cl435  Cl    0.13763   0.73792   0.37757   0.00000  Uiso   1.00
Cl436  Cl    0.13717   0.92853   0.37742   0.00000  Uiso   1.00
Cl437  Cl    0.19615   0.73813   0.12258   0.00000  Uiso   1.00
Cl438  Cl    0.04512   0.73684   0.26829   0.00000  Uiso   1.00
Cu439  Cu    0.16667   0.88022   0.25000   0.00000  Uiso   1.00
Cu440  Cu    0.16667   0.78645   0.25000   0.00000  Uiso   1.00
H441   H     0.10907   0.75316   0.18695   0.00000  Uiso   1.00
H442   H     0.10911   0.91349   0.18691   0.00000  Uiso   1.00
H443   H     0.07824   0.96168   0.18988   0.00000  Uiso   1.00
H444   H     0.11690   0.96012   0.15151   0.00000  Uiso   1.00
H445   H     0.11730   0.70676   0.15143   0.00000  Uiso   1.00
H446   H     0.07834   0.70478   0.18944   0.00000  Uiso   1.00
H447   H     0.22426   0.91351   0.31305   0.00000  Uiso   1.00
H448   H     0.25499   0.96188   0.31057   0.00000  Uiso   1.00
H449   H     0.21603   0.95991   0.34857   0.00000  Uiso   1.00
H450   H     0.22422   0.75317   0.31310   0.00000  Uiso   1.00
H451   H     0.21643   0.70655   0.34850   0.00000  Uiso   1.00
H452   H     0.25509   0.70499   0.31012   0.00000  Uiso   1.00
N453   N     0.16667   0.95069   0.25000   0.00000  Uiso   1.00
N454   N     0.16667   0.71598   0.25000   0.00000  Uiso   1.00
O455   O     0.10655   0.87291   0.25000   0.00000  Uiso   1.00
O456   O     0.22679   0.79375   0.25001   0.00000  Uiso   1.00
O457   O     0.22679   0.87291   0.25001   0.00000  Uiso   1.00
O458   O     0.10655   0.79375   0.25000   0.00000  Uiso   1.00
O459   O     0.16666   0.87293   0.18573   0.00000  Uiso   1.00
O460   O     0.16667   0.79374   0.31427   0.00000  Uiso   1.00
O461   O     0.16667   0.87293   0.31427   0.00000  Uiso   1.00
O462   O     0.16666   0.79374   0.18573   0.00000  Uiso   1.00
C463   C     0.42103   0.83332   0.25271   0.00000  Uiso   1.00
C464   C     0.64545   0.87574   0.24590   0.00000  Uiso   1.00
C465   C     0.64538   0.79097   0.24556   0.00000  Uiso   1.00
C466   C     0.35462   0.87570   0.25444   0.00000  Uiso   1.00
C467   C     0.51879   0.87461   0.04799   0.00000  Uiso   1.00
C468   C     0.48119   0.79205   0.45200   0.00000  Uiso   1.00
C469   C     0.48102   0.87450   0.45195   0.00000  Uiso   1.00
C470   C     0.51894   0.79215   0.04805   0.00000  Uiso   1.00
C471   C     0.51779   0.87545   0.09445   0.00000  Uiso   1.00
C472   C     0.48220   0.79121   0.40555   0.00000  Uiso   1.00
C473   C     0.48201   0.87534   0.40549   0.00000  Uiso   1.00
C474   C     0.57897   0.83334   0.24729   0.00000  Uiso   1.00
C475   C     0.51797   0.79132   0.09451   0.00000  Uiso   1.00
C476   C     0.51151   0.83337   0.11745   0.00000  Uiso   1.00
C477   C     0.48848   0.83329   0.38255   0.00000  Uiso   1.00
C478   C     0.50837   0.83335   0.02434   0.00000  Uiso   1.00
C479   C     0.49161   0.83331   0.47565   0.00000  Uiso   1.00
C480   C     0.62358   0.83336   0.24482   0.00000  Uiso   1.00
C481   C     0.37643   0.83331   0.25519   0.00000  Uiso   1.00
C482   C     0.44348   0.71564   0.18559   0.00000  Uiso   1.00
C483   C     0.55651   0.95103   0.31441   0.00000  Uiso   1.00
C484   C     0.55664   0.71564   0.31429   0.00000  Uiso   1.00
C485   C     0.50353   0.83334   0.16525   0.00000  Uiso   1.00
C486   C     0.44336   0.95102   0.18571   0.00000  Uiso   1.00
C487   C     0.49647   0.83332   0.33475   0.00000  Uiso   1.00
C488   C     0.47348   0.69146   0.22001   0.00000  Uiso   1.00
C489   C     0.52652   0.97521   0.28000   0.00000  Uiso   1.00
C490   C     0.52653   0.69146   0.27998   0.00000  Uiso   1.00
C491   C     0.47347   0.97521   0.22002   0.00000  Uiso   1.00
C492   C     0.35455   0.79093   0.25411   0.00000  Uiso   1.00
Cl493  Cl    0.54432   0.92008   0.02243   0.00000  Uiso   1.00
Cl494  Cl    0.62155   0.92983   0.23172   0.00000  Uiso   1.00
Cl495  Cl    0.62137   0.73703   0.23094   0.00000  Uiso   1.00
Cl496  Cl    0.37863   0.92964   0.26906   0.00000  Uiso   1.00
Cl497  Cl    0.45558   0.74664   0.47753   0.00000  Uiso   1.00
Cl498  Cl    0.45530   0.91981   0.47745   0.00000  Uiso   1.00
Cl499  Cl    0.54459   0.74679   0.02254   0.00000  Uiso   1.00
Cl500  Cl    0.52903   0.92874   0.12243   0.00000  Uiso   1.00
Cl501  Cl    0.47096   0.73792   0.37757   0.00000  Uiso   1.00
Cl502  Cl    0.47050   0.92853   0.37742   0.00000  Uiso   1.00
Cl503  Cl    0.52948   0.73813   0.12258   0.00000  Uiso   1.00
Cl504  Cl    0.37846   0.73684   0.26829   0.00000  Uiso   1.00
Cu505  Cu    0.50000   0.88022   0.25000   0.00000  Uiso   1.00
Cu506  Cu    0.50000   0.78645   0.25000   0.00000  Uiso   1.00
H507   H     0.44241   0.75316   0.18695   0.00000  Uiso   1.00
H508   H     0.44245   0.91349   0.18691   0.00000  Uiso   1.00
H509   H     0.41157   0.96168   0.18988   0.00000  Uiso   1.00
H510   H     0.45024   0.96012   0.15151   0.00000  Uiso   1.00
H511   H     0.45063   0.70676   0.15143   0.00000  Uiso   1.00
H512   H     0.41168   0.70478   0.18944   0.00000  Uiso   1.00
H513   H     0.55759   0.91351   0.31305   0.00000  Uiso   1.00
H514   H     0.58832   0.96188   0.31057   0.00000  Uiso   1.00
H515   H     0.54936   0.95991   0.34857   0.00000  Uiso   1.00
H516   H     0.55755   0.75317   0.31310   0.00000  Uiso   1.00
H517   H     0.54976   0.70655   0.34850   0.00000  Uiso   1.00
H518   H     0.58843   0.70499   0.31012   0.00000  Uiso   1.00
N519   N     0.50000   0.95069   0.25000   0.00000  Uiso   1.00
N520   N     0.50000   0.71598   0.25000   0.00000  Uiso   1.00
O521   O     0.43988   0.87291   0.25000   0.00000  Uiso   1.00
O522   O     0.56012   0.79375   0.25001   0.00000  Uiso   1.00
O523   O     0.56012   0.87291   0.25001   0.00000  Uiso   1.00
O524   O     0.43988   0.79375   0.25000   0.00000  Uiso   1.00
O525   O     0.50000   0.87293   0.18573   0.00000  Uiso   1.00
O526   O     0.50000   0.79374   0.31427   0.00000  Uiso   1.00
O527   O     0.50000   0.87293   0.31427   0.00000  Uiso   1.00
O528   O     0.50000   0.79374   0.18573   0.00000  Uiso   1.00
C529   C     0.75436   0.83332   0.25271   0.00000  Uiso   1.00
C530   C     0.97878   0.87574   0.24590   0.00000  Uiso   1.00
C531   C     0.97871   0.79097   0.24556   0.00000  Uiso   1.00
C532   C     0.68796   0.87570   0.25444   0.00000  Uiso   1.00
C533   C     0.85212   0.87461   0.04799   0.00000  Uiso   1.00
C534   C     0.81452   0.79205   0.45200   0.00000  Uiso   1.00
C535   C     0.81436   0.87450   0.45195   0.00000  Uiso   1.00
C536   C     0.85228   0.79215   0.04805   0.00000  Uiso   1.00
C537   C     0.85113   0.87545   0.09445   0.00000  Uiso   1.00
C538   C     0.81553   0.79121   0.40555   0.00000  Uiso   1.00
C539   C     0.81535   0.87534   0.40549   0.00000  Uiso   1.00
C540   C     0.91231   0.83334   0.24729   0.00000  Uiso   1.00
C541   C     0.85130   0.79132   0.09451   0.00000  Uiso   1.00
C542   C     0.84484   0.83337   0.11745   0.00000  Uiso   1.00
C543   C     0.82182   0.83329   0.38255   0.00000  Uiso   1.00
C544   C     0.84170   0.83335   0.02434   0.00000  Uiso   1.00
C545   C     0.82494   0.83331   0.47565   0.00000  Uiso   1.00
C546   C     0.95691   0.83336   0.24482   0.00000  Uiso   1.00
C547   C     0.70976   0.83331   0.25519   0.00000  Uiso   1.00
C548   C     0.77682   0.71564   0.18559   0.00000  Uiso   1.00
C549   C     0.88985   0.95103   0.31441   0.00000  Uiso   1.00
C550   C     0.88997   0.71564   0.31429   0.00000  Uiso   1.00
C551   C     0.83686   0.83334   0.16525   0.00000  Uiso   1.00
C552   C     0.77670   0.95102   0.18571   0.00000  Uiso   1.00
C553   C     0.82980   0.83332   0.33475   0.00000  Uiso   1.00
C554   C     0.80681   0.69146   0.22001   0.00000  Uiso   1.00
C555   C     0.85985   0.97521   0.28000   0.00000  Uiso   1.00
C556   C     0.85986   0.69146   0.27998   0.00000  Uiso   1.00
C557   C     0.80680   0.97521   0.22002   0.00000  Uiso   1.00
C558   C     0.68789   0.79093   0.25411   0.00000  Uiso   1.00
Cl559  Cl    0.87765   0.92008   0.02243   0.00000  Uiso   1.00
Cl560  Cl    0.95488   0.92983   0.23172   0.00000  Uiso   1.00
Cl561  Cl    0.95471   0.73703   0.23094   0.00000  Uiso   1.00
Cl562  Cl    0.71196   0.92964   0.26906   0.00000  Uiso   1.00
Cl563  Cl    0.78891   0.74664   0.47753   0.00000  Uiso   1.00
Cl564  Cl    0.78863   0.91981   0.47745   0.00000  Uiso   1.00
Cl565  Cl    0.87792   0.74679   0.02254   0.00000  Uiso   1.00
Cl566  Cl    0.86236   0.92874   0.12243   0.00000  Uiso   1.00
Cl567  Cl    0.80429   0.73792   0.37757   0.00000  Uiso   1.00
Cl568  Cl    0.80383   0.92853   0.37742   0.00000  Uiso   1.00
Cl569  Cl    0.86281   0.73813   0.12258   0.00000  Uiso   1.00
Cl570  Cl    0.71179   0.73684   0.26829   0.00000  Uiso   1.00
Cu571  Cu    0.83333   0.88022   0.25000   0.00000  Uiso   1.00
Cu572  Cu    0.83333   0.78645   0.25000   0.00000  Uiso   1.00
H573   H     0.77574   0.75316   0.18695   0.00000  Uiso   1.00
H574   H     0.77578   0.91349   0.18691   0.00000  Uiso   1.00
H575   H     0.74491   0.96168   0.18988   0.00000  Uiso   1.00
H576   H     0.78357   0.96012   0.15151   0.00000  Uiso   1.00
H577   H     0.78396   0.70676   0.15143   0.00000  Uiso   1.00
H578   H     0.74501   0.70478   0.18944   0.00000  Uiso   1.00
H579   H     0.89093   0.91351   0.31305   0.00000  Uiso   1.00
H580   H     0.92165   0.96188   0.31057   0.00000  Uiso   1.00
H581   H     0.88270   0.95991   0.34857   0.00000  Uiso   1.00
H582   H     0.89089   0.75317   0.31310   0.00000  Uiso   1.00
H583   H     0.88310   0.70655   0.34850   0.00000  Uiso   1.00
H584   H     0.92176   0.70499   0.31012   0.00000  Uiso   1.00
N585   N     0.83333   0.95069   0.25000   0.00000  Uiso   1.00
N586   N     0.83333   0.71598   0.25000   0.00000  Uiso   1.00
O587   O     0.77321   0.87291   0.25000   0.00000  Uiso   1.00
O588   O     0.89345   0.79375   0.25001   0.00000  Uiso   1.00
O589   O     0.89345   0.87291   0.25001   0.00000  Uiso   1.00
O590   O     0.77321   0.79375   0.25000   0.00000  Uiso   1.00
O591   O     0.83333   0.87293   0.18573   0.00000  Uiso   1.00
O592   O     0.83334   0.79374   0.31427   0.00000  Uiso   1.00
O593   O     0.83334   0.87293   0.31427   0.00000  Uiso   1.00
O594   O     0.83333   0.79374   0.18573   0.00000  Uiso   1.00
C595   C     0.08769   0.16666   0.75271   0.00000  Uiso   1.00
C596   C     0.31211   0.20907   0.74590   0.00000  Uiso   1.00
C597   C     0.31204   0.12430   0.74556   0.00000  Uiso   1.00
C598   C     0.02129   0.20903   0.75444   0.00000  Uiso   1.00
C599   C     0.18546   0.20794   0.54799   0.00000  Uiso   1.00
C600   C     0.14785   0.12539   0.95200   0.00000  Uiso   1.00
C601   C     0.14769   0.20783   0.95195   0.00000  Uiso   1.00
C602   C     0.18561   0.12549   0.54805   0.00000  Uiso   1.00
C603   C     0.18446   0.20878   0.59445   0.00000  Uiso   1.00
C604   C     0.14886   0.12454   0.90555   0.00000  Uiso   1.00
C605   C     0.14868   0.20867   0.90549   0.00000  Uiso   1.00
C606   C     0.24564   0.16668   0.74729   0.00000  Uiso   1.00
C607   C     0.18464   0.12465   0.59451   0.00000  Uiso   1.00
C608   C     0.17818   0.16670   0.61745   0.00000  Uiso   1.00
C609   C     0.15515   0.16663   0.88255   0.00000  Uiso   1.00
C610   C     0.17504   0.16668   0.52434   0.00000  Uiso   1.00
C611   C     0.15827   0.16664   0.97565   0.00000  Uiso   1.00
C612   C     0.29024   0.16669   0.74482   0.00000  Uiso   1.00
C613   C     0.04309   0.16664   0.75519   0.00000  Uiso   1.00
C614   C     0.11015   0.04897   0.68559   0.00000  Uiso   1.00
C615   C     0.22318   0.28436   0.81441   0.00000  Uiso   1.00
C616   C     0.22330   0.04898   0.81429   0.00000  Uiso   1.00
C617   C     0.17020   0.16668   0.66525   0.00000  Uiso   1.00
C618   C     0.11003   0.28436   0.68571   0.00000  Uiso   1.00
C619   C     0.16314   0.16666   0.83475   0.00000  Uiso   1.00
C620   C     0.14015   0.02479   0.72001   0.00000  Uiso   1.00
C621   C     0.19319   0.30854   0.78000   0.00000  Uiso   1.00
C622   C     0.19320   0.02479   0.77998   0.00000  Uiso   1.00
C623   C     0.14014   0.30854   0.72002   0.00000  Uiso   1.00
C624   C     0.02122   0.12426   0.75411   0.00000  Uiso   1.00
Cl625  Cl    0.21099   0.25341   0.52243   0.00000  Uiso   1.00
Cl626  Cl    0.28821   0.26316   0.73172   0.00000  Uiso   1.00
Cl627  Cl    0.28804   0.07036   0.73094   0.00000  Uiso   1.00
Cl628  Cl    0.04530   0.26297   0.76906   0.00000  Uiso   1.00
Cl629  Cl    0.12225   0.07997   0.97753   0.00000  Uiso   1.00
Cl630  Cl    0.12196   0.25314   0.97745   0.00000  Uiso   1.00
Cl631  Cl    0.21125   0.08012   0.52254   0.00000  Uiso   1.00
Cl632  Cl    0.19569   0.26208   0.62243   0.00000  Uiso   1.00
Cl633  Cl    0.13763   0.07125   0.87757   0.00000  Uiso   1.00
Cl634  Cl    0.13717   0.26186   0.87742   0.00000  Uiso   1.00
Cl635  Cl    0.19615   0.07146   0.62258   0.00000  Uiso   1.00
Cl636  Cl    0.04512   0.07017   0.76829   0.00000  Uiso   1.00
Cu637  Cu    0.16667   0.21355   0.75000   0.00000  Uiso   1.00
Cu638  Cu    0.16667   0.11978   0.75000   0.00000  Uiso   1.00
H639   H     0.10907   0.08649   0.68695   0.00000  Uiso   1.00
H640   H     0.10911   0.24683   0.68691   0.00000  Uiso   1.00
H641   H     0.07824   0.29501   0.68988   0.00000  Uiso   1.00
H642   H     0.11690   0.29345   0.65151   0.00000  Uiso   1.00
H643   H     0.11730   0.04009   0.65143   0.00000  Uiso   1.00
H644   H     0.07834   0.03812   0.68944   0.00000  Uiso   1.00
H645   H     0.22426   0.24684   0.81305   0.00000  Uiso   1.00
H646   H     0.25499   0.29522   0.81057   0.00000  Uiso   1.00
H647   H     0.21603   0.29324   0.84857   0.00000  Uiso   1.00
H648   H     0.22422   0.08651   0.81310   0.00000  Uiso   1.00
H649   H     0.21643   0.03988   0.84850   0.00000  Uiso   1.00
H650   H     0.25509   0.03832   0.81012   0.00000  Uiso   1.00
N651   N     0.16667   0.28402   0.75000   0.00000  Uiso   1.00
N652   N     0.16667   0.04931   0.75000   0.00000  Uiso   1.00
O653   O     0.10655   0.20625   0.75000   0.00000  Uiso   1.00
O654   O     0.22679   0.12709   0.75001   0.00000  Uiso   1.00
O655   O     0.22679   0.20625   0.75001   0.00000  Uiso   1.00
O656   O     0.10655   0.12709   0.75000   0.00000  Uiso   1.00
O657   O     0.16666   0.20626   0.68573   0.00000  Uiso   1.00
O658   O     0.16667   0.12707   0.81427   0.00000  Uiso   1.00
O659   O     0.16667   0.20626   0.81427   0.00000  Uiso   1.00
O660   O     0.16666   0.12707   0.68573   0.00000  Uiso   1.00
C661   C     0.42103   0.16666   0.75271   0.00000  Uiso   1.00
C662   C     0.64545   0.20907   0.74590   0.00000  Uiso   1.00
C663   C     0.64538   0.12430   0.74556   0.00000  Uiso   1.00
C664   C     0.35462   0.20903   0.75444   0.00000  Uiso   1.00
C665   C     0.51879   0.20794   0.54799   0.00000  Uiso   1.00
C666   C     0.48119   0.12539   0.95200   0.00000  Uiso   1.00
C667   C     0.48102   0.20783   0.95195   0.00000  Uiso   1.00
C668   C     0.51894   0.12549   0.54805   0.00000  Uiso   1.00
C669   C     0.51779   0.20878   0.59445   0.00000  Uiso   1.00
C670   C     0.48220   0.12454   0.90555   0.00000  Uiso   1.00
C671   C     0.48201   0.20867   0.90549   0.00000  Uiso   1.00
C672   C     0.57897   0.16668   0.74729   0.00000  Uiso   1.00
C673   C     0.51797   0.12465   0.59451   0.00000  Uiso   1.00
C674   C     0.51151   0.16670   0.61745   0.00000  Uiso   1.00
C675   C     0.48848   0.16663   0.88255   0.00000  Uiso   1.00
C676   C     0.50837   0.16668   0.52434   0.00000  Uiso   1.00
C677   C     0.49161   0.16664   0.97565   0.00000  Uiso   1.00
C678   C     0.62358   0.16669   0.74482   0.00000  Uiso   1.00
C679   C     0.37643   0.16664   0.75519   0.00000  Uiso   1.00
C680   C     0.44348   0.04897   0.68559   0.00000  Uiso   1.00
C681   C     0.55651   0.28436   0.81441   0.00000  Uiso   1.00
C682   C     0.55664   0.04898   0.81429   0.00000  Uiso   1.00
C683   C     0.50353   0.16668   0.66525   0.00000  Uiso   1.00
C684   C     0.44336   0.28436   0.68571   0.00000  Uiso   1.00
C685   C     0.49647   0.16666   0.83475   0.00000  Uiso   1.00
C686   C     0.47348   0.02479   0.72001   0.00000  Uiso   1.00
C687   C     0.52652   0.30854   0.78000   0.00000  Uiso   1.00
C688   C     0.52653   0.02479   0.77998   0.00000  Uiso   1.00
C689   C     0.47347   0.30854   0.72002   0.00000  Uiso   1.00
C690   C     0.35455   0.12426   0.75411   0.00000  Uiso   1.00
Cl691  Cl    0.54432   0.25341   0.52243   0.00000  Uiso   1.00
Cl692  Cl    0.62155   0.26316   0.73172   0.00000  Uiso   1.00
Cl693  Cl    0.62137   0.07036   0.73094   0.00000  Uiso   1.00
Cl694  Cl    0.37863   0.26297   0.76906   0.00000  Uiso   1.00
Cl695  Cl    0.45558   0.07997   0.97753   0.00000  Uiso   1.00
Cl696  Cl    0.45530   0.25314   0.97745   0.00000  Uiso   1.00
Cl697  Cl    0.54459   0.08012   0.52254   0.00000  Uiso   1.00
Cl698  Cl    0.52903   0.26208   0.62243   0.00000  Uiso   1.00
Cl699  Cl    0.47096   0.07125   0.87757   0.00000  Uiso   1.00
Cl700  Cl    0.47050   0.26186   0.87742   0.00000  Uiso   1.00
Cl701  Cl    0.52948   0.07146   0.62258   0.00000  Uiso   1.00
Cl702  Cl    0.37846   0.07017   0.76829   0.00000  Uiso   1.00
Cu703  Cu    0.50000   0.21355   0.75000   0.00000  Uiso   1.00
Cu704  Cu    0.50000   0.11978   0.75000   0.00000  Uiso   1.00
H705   H     0.44241   0.08649   0.68695   0.00000  Uiso   1.00
H706   H     0.44245   0.24683   0.68691   0.00000  Uiso   1.00
H707   H     0.41157   0.29501   0.68988   0.00000  Uiso   1.00
H708   H     0.45024   0.29345   0.65151   0.00000  Uiso   1.00
H709   H     0.45063   0.04009   0.65143   0.00000  Uiso   1.00
H710   H     0.41168   0.03812   0.68944   0.00000  Uiso   1.00
H711   H     0.55759   0.24684   0.81305   0.00000  Uiso   1.00
H712   H     0.58832   0.29522   0.81057   0.00000  Uiso   1.00
H713   H     0.54936   0.29324   0.84857   0.00000  Uiso   1.00
H714   H     0.55755   0.08651   0.81310   0.00000  Uiso   1.00
H715   H     0.54976   0.03988   0.84850   0.00000  Uiso   1.00
H716   H     0.58843   0.03832   0.81012   0.00000  Uiso   1.00
N717   N     0.50000   0.28402   0.75000   0.00000  Uiso   1.00
N718   N     0.50000   0.04931   0.75000   0.00000  Uiso   1.00
O719   O     0.43988   0.20625   0.75000   0.00000  Uiso   1.00
O720   O     0.56012   0.12709   0.75001   0.00000  Uiso   1.00
O721   O     0.56012   0.20625   0.75001   0.00000  Uiso   1.00
O722   O     0.43988   0.12709   0.75000   0.00000  Uiso   1.00
O723   O     0.50000   0.20626   0.68573   0.00000  Uiso   1.00
O724   O     0.50000   0.12707   0.81427   0.00000  Uiso   1.00
O725   O     0.50000   0.20626   0.81427   0.00000  Uiso   1.00
O726   O     0.50000   0.12707   0.68573   0.00000  Uiso   1.00
C727   C     0.75436   0.16666   0.75271   0.00000  Uiso   1.00
C728   C     0.97878   0.20907   0.74590   0.00000  Uiso   1.00
C729   C     0.97871   0.12430   0.74556   0.00000  Uiso   1.00
C730   C     0.68796   0.20903   0.75444   0.00000  Uiso   1.00
C731   C     0.85212   0.20794   0.54799   0.00000  Uiso   1.00
C732   C     0.81452   0.12539   0.95200   0.00000  Uiso   1.00
C733   C     0.81436   0.20783   0.95195   0.00000  Uiso   1.00
C734   C     0.85228   0.12549   0.54805   0.00000  Uiso   1.00
C735   C     0.85113   0.20878   0.59445   0.00000  Uiso   1.00
C736   C     0.81553   0.12454   0.90555   0.00000  Uiso   1.00
C737   C     0.81535   0.20867   0.90549   0.00000  Uiso   1.00
C738   C     0.91231   0.16668   0.74729   0.00000  Uiso   1.00
C739   C     0.85130   0.12465   0.59451   0.00000  Uiso   1.00
C740   C     0.84484   0.16670   0.61745   0.00000  Uiso   1.00
C741   C     0.82182   0.16663   0.88255   0.00000  Uiso   1.00
C742   C     0.84170   0.16668   0.52434   0.00000  Uiso   1.00
C743   C     0.82494   0.16664   0.97565   0.00000  Uiso   1.00
C744   C     0.95691   0.16669   0.74482   0.00000  Uiso   1.00
C745   C     0.70976   0.16664   0.75519   0.00000  Uiso   1.00
C746   C     0.77682   0.04897   0.68559   0.00000  Uiso   1.00
C747   C     0.88985   0.28436   0.81441   0.00000  Uiso   1.00
C748   C     0.88997   0.04898   0.81429   0.00000  Uiso   1.00
C749   C     0.83686   0.16668   0.66525   0.00000  Uiso   1.00
C750   C     0.77670   0.28436   0.68571   0.00000  Uiso   1.00
C751   C     0.82980   0.16666   0.83475   0.00000  Uiso   1.00
C752   C     0.80681   0.02479   0.72001   0.00000  Uiso   1.00
C753   C     0.85985   0.30854   0.78000   0.00000  Uiso   1.00
C754   C     0.85986   0.02479   0.77998   0.00000  Uiso   1.00
C755   C     0.80680   0.30854   0.72002   0.00000  Uiso   1.00
C756   C     0.68789   0.12426   0.75411   0.00000  Uiso   1.00
Cl757  Cl    0.87765   0.25341   0.52243   0.00000  Uiso   1.00
Cl758  Cl    0.95488   0.26316   0.73172   0.00000  Uiso   1.00
Cl759  Cl    0.95471   0.07036   0.73094   0.00000  Uiso   1.00
Cl760  Cl    0.71196   0.26297   0.76906   0.00000  Uiso   1.00
Cl761  Cl    0.78891   0.07997   0.97753   0.00000  Uiso   1.00
Cl762  Cl    0.78863   0.25314   0.97745   0.00000  Uiso   1.00
Cl763  Cl    0.87792   0.08012   0.52254   0.00000  Uiso   1.00
Cl764  Cl    0.86236   0.26208   0.62243   0.00000  Uiso   1.00
Cl765  Cl    0.80429   0.07125   0.87757   0.00000  Uiso   1.00
Cl766  Cl    0.80383   0.26186   0.87742   0.00000  Uiso   1.00
Cl767  Cl    0.86281   0.07146   0.62258   0.00000  Uiso   1.00
Cl768  Cl    0.71179   0.07017   0.76829   0.00000  Uiso   1.00
Cu769  Cu    0.83333   0.21355   0.75000   0.00000  Uiso   1.00
Cu770  Cu    0.83333   0.11978   0.75000   0.00000  Uiso   1.00
H771   H     0.77574   0.08649   0.68695   0.00000  Uiso   1.00
H772   H     0.77578   0.24683   0.68691   0.00000  Uiso   1.00
H773   H     0.74491   0.29501   0.68988   0.00000  Uiso   1.00
H774   H     0.78357   0.29345   0.65151   0.00000  Uiso   1.00
H775   H     0.78396   0.04009   0.65143   0.00000  Uiso   1.00
H776   H     0.74501   0.03812   0.68944   0.00000  Uiso   1.00
H777   H     0.89093   0.24684   0.81305   0.00000  Uiso   1.00
H778   H     0.92165   0.29522   0.81057   0.00000  Uiso   1.00
H779   H     0.88270   0.29324   0.84857   0.00000  Uiso   1.00
H780   H     0.89089   0.08651   0.81310   0.00000  Uiso   1.00
H781   H     0.88310   0.03988   0.84850   0.00000  Uiso   1.00
H782   H     0.92176   0.03832   0.81012   0.00000  Uiso   1.00
N783   N     0.83333   0.28402   0.75000   0.00000  Uiso   1.00
N784   N     0.83333   0.04931   0.75000   0.00000  Uiso   1.00
O785   O     0.77321   0.20625   0.75000   0.00000  Uiso   1.00
O786   O     0.89345   0.12709   0.75001   0.00000  Uiso   1.00
O787   O     0.89345   0.20625   0.75001   0.00000  Uiso   1.00
O788   O     0.77321   0.12709   0.75000   0.00000  Uiso   1.00
O789   O     0.83333   0.20626   0.68573   0.00000  Uiso   1.00
O790   O     0.83334   0.12707   0.81427   0.00000  Uiso   1.00
O791   O     0.83334   0.20626   0.81427   0.00000  Uiso   1.00
O792   O     0.83333   0.12707   0.68573   0.00000  Uiso   1.00
C793   C     0.08769   0.49999   0.75271   0.00000  Uiso   1.00
C794   C     0.31211   0.54241   0.74590   0.00000  Uiso   1.00
C795   C     0.31204   0.45764   0.74556   0.00000  Uiso   1.00
C796   C     0.02129   0.54236   0.75444   0.00000  Uiso   1.00
C797   C     0.18546   0.54127   0.54799   0.00000  Uiso   1.00
C798   C     0.14785   0.45872   0.95200   0.00000  Uiso   1.00
C799   C     0.14769   0.54117   0.95195   0.00000  Uiso   1.00
C800   C     0.18561   0.45882   0.54805   0.00000  Uiso   1.00
C801   C     0.18446   0.54212   0.59445   0.00000  Uiso   1.00
C802   C     0.14886   0.45788   0.90555   0.00000  Uiso   1.00
C803   C     0.14868   0.54201   0.90549   0.00000  Uiso   1.00
C804   C     0.24564   0.50001   0.74729   0.00000  Uiso   1.00
C805   C     0.18464   0.45799   0.59451   0.00000  Uiso   1.00
C806   C     0.17818   0.50004   0.61745   0.00000  Uiso   1.00
C807   C     0.15515   0.49996   0.88255   0.00000  Uiso   1.00
C808   C     0.17504   0.50002   0.52434   0.00000  Uiso   1.00
C809   C     0.15827   0.49997   0.97565   0.00000  Uiso   1.00
C810   C     0.29024   0.50003   0.74482   0.00000  Uiso   1.00
C811   C     0.04309   0.49997   0.75519   0.00000  Uiso   1.00
C812   C     0.11015   0.38231   0.68559   0.00000  Uiso   1.00
C813   C     0.22318   0.61769   0.81441   0.00000  Uiso   1.00
C814   C     0.22330   0.38231   0.81429   0.00000  Uiso   1.00
C815   C     0.17020   0.50001   0.66525   0.00000  Uiso   1.00
C816   C     0.11003   0.61769   0.68571   0.00000  Uiso   1.00
C817   C     0.16314   0.49999   0.83475   0.00000  Uiso   1.00
C818   C     0.14015   0.35813   0.72001   0.00000  Uiso   1.00
C819   C     0.19319   0.64187   0.78000   0.00000  Uiso   1.00
C820   C     0.19320   0.35813   0.77998   0.00000  Uiso   1.00
C821   C     0.14014   0.64187   0.72002   0.00000  Uiso   1.00
C822   C     0.02122   0.45759   0.75411   0.00000  Uiso   1.00
Cl823  Cl    0.21099   0.58674   0.52243   0.00000  Uiso   1.00
Cl824  Cl    0.28821   0.59649   0.73172   0.00000  Uiso   1.00
Cl825  Cl    0.28804   0.40369   0.73094   0.00000  Uiso   1.00
Cl826  Cl    0.04530   0.59631   0.76906   0.00000  Uiso   1.00
Cl827  Cl    0.12225   0.41331   0.97753   0.00000  Uiso   1.00
Cl828  Cl    0.12196   0.58648   0.97745   0.00000  Uiso   1.00
Cl829  Cl    0.21125   0.41346   0.52254   0.00000  Uiso   1.00
Cl830  Cl    0.19569   0.59541   0.62243   0.00000  Uiso   1.00
Cl831  Cl    0.13763   0.40458   0.87757   0.00000  Uiso   1.00
Cl832  Cl    0.13717   0.59520   0.87742   0.00000  Uiso   1.00
Cl833  Cl    0.19615   0.40480   0.62258   0.00000  Uiso   1.00
Cl834  Cl    0.04512   0.40351   0.76829   0.00000  Uiso   1.00
Cu835  Cu    0.16667   0.54689   0.75000   0.00000  Uiso   1.00
Cu836  Cu    0.16667   0.45311   0.75000   0.00000  Uiso   1.00
H837   H     0.10907   0.41983   0.68695   0.00000  Uiso   1.00
H838   H     0.10911   0.58016   0.68691   0.00000  Uiso   1.00
H839   H     0.07824   0.62835   0.68988   0.00000  Uiso   1.00
H840   H     0.11690   0.62679   0.65151   0.00000  Uiso   1.00
H841   H     0.11730   0.37342   0.65143   0.00000  Uiso   1.00
H842   H     0.07834   0.37145   0.68944   0.00000  Uiso   1.00
H843   H     0.22426   0.58018   0.81305   0.00000  Uiso   1.00
H844   H     0.25499   0.62855   0.81057   0.00000  Uiso   1.00
H845   H     0.21603   0.62657   0.84857   0.00000  Uiso   1.00
H846   H     0.22422   0.41984   0.81310   0.00000  Uiso   1.00
H847   H     0.21643   0.37321   0.84850   0.00000  Uiso   1.00
H848   H     0.25509   0.37165   0.81012   0.00000  Uiso   1.00
N849   N     0.16667   0.61736   0.75000   0.00000  Uiso   1.00
N850   N     0.16667   0.38264   0.75000   0.00000  Uiso   1.00
O851   O     0.10655   0.53958   0.75000   0.00000  Uiso   1.00
O852   O     0.22679   0.46042   0.75001   0.00000  Uiso   1.00
O853   O     0.22679   0.53958   0.75001   0.00000  Uiso   1.00
O854   O     0.10655   0.46042   0.75000   0.00000  Uiso   1.00
O855   O     0.16666   0.53959   0.68573   0.00000  Uiso   1.00
O856   O     0.16667   0.46041   0.81427   0.00000  Uiso   1.00
O857   O     0.16667   0.53959   0.81427   0.00000  Uiso   1.00
O858   O     0.16666   0.46041   0.68573   0.00000  Uiso   1.00
C859   C     0.42103   0.49999   0.75271   0.00000  Uiso   1.00
C860   C     0.64545   0.54241   0.74590   0.00000  Uiso   1.00
C861   C     0.64538   0.45764   0.74556   0.00000  Uiso   1.00
C862   C     0.35462   0.54236   0.75444   0.00000  Uiso   1.00
C863   C     0.51879   0.54127   0.54799   0.00000  Uiso   1.00
C864   C     0.48119   0.45872   0.95200   0.00000  Uiso   1.00
C865   C     0.48102   0.54117   0.95195   0.00000  Uiso   1.00
C866   C     0.51894   0.45882   0.54805   0.00000  Uiso   1.00
C867   C     0.51779   0.54212   0.59445   0.00000  Uiso   1.00
C868   C     0.48220   0.45788   0.90555   0.00000  Uiso   1.00
C869   C     0.48201   0.54201   0.90549   0.00000  Uiso   1.00
C870   C     0.57897   0.50001   0.74729   0.00000  Uiso   1.00
C871   C     0.51797   0.45799   0.59451   0.00000  Uiso   1.00
C872   C     0.51151   0.50004   0.61745   0.00000  Uiso   1.00
C873   C     0.48848   0.49996   0.88255   0.00000  Uiso   1.00
C874   C     0.50837   0.50002   0.52434   0.00000  Uiso   1.00
C875   C     0.49161   0.49997   0.97565   0.00000  Uiso   1.00
C876   C     0.62358   0.50003   0.74482   0.00000  Uiso   1.00
C877   C     0.37643   0.49997   0.75519   0.00000  Uiso   1.00
C878   C     0.44348   0.38231   0.68559   0.00000  Uiso   1.00
C879   C     0.55651   0.61769   0.81441   0.00000  Uiso   1.00
C880   C     0.55664   0.38231   0.81429   0.00000  Uiso   1.00
C881   C     0.50353   0.50001   0.66525   0.00000  Uiso   1.00
C882   C     0.44336   0.61769   0.68571   0.00000  Uiso   1.00
C883   C     0.49647   0.49999   0.83475   0.00000  Uiso   1.00
C884   C     0.47348   0.35813   0.72001   0.00000  Uiso   1.00
C885   C     0.52652   0.64187   0.78000   0.00000  Uiso   1.00
C886   C     0.52653   0.35813   0.77998   0.00000  Uiso   1.00
C887   C     0.47347   0.64187   0.72002   0.00000  Uiso   1.00
C888   C     0.35455   0.45759   0.75411   0.00000  Uiso   1.00
Cl889  Cl    0.54432   0.58674   0.52243   0.00000  Uiso   1.00
Cl890  Cl    0.62155   0.59649   0.73172   0.00000  Uiso   1.00
Cl891  Cl    0.62137   0.40369   0.73094   0.00000  Uiso   1.00
Cl892  Cl    0.37863   0.59631   0.76906   0.00000  Uiso   1.00
Cl893  Cl    0.45558   0.41331   0.97753   0.00000  Uiso   1.00
Cl894  Cl    0.45530   0.58648   0.97745   0.00000  Uiso   1.00
Cl895  Cl    0.54459   0.41346   0.52254   0.00000  Uiso   1.00
Cl896  Cl    0.52903   0.59541   0.62243   0.00000  Uiso   1.00
Cl897  Cl    0.47096   0.40458   0.87757   0.00000  Uiso   1.00
Cl898  Cl    0.47050   0.59520   0.87742   0.00000  Uiso   1.00
Cl899  Cl    0.52948   0.40480   0.62258   0.00000  Uiso   1.00
Cl900  Cl    0.37846   0.40351   0.76829   0.00000  Uiso   1.00
Cu901  Cu    0.50000   0.54689   0.75000   0.00000  Uiso   1.00
Cu902  Cu    0.50000   0.45311   0.75000   0.00000  Uiso   1.00
H903   H     0.44241   0.41983   0.68695   0.00000  Uiso   1.00
H904   H     0.44245   0.58016   0.68691   0.00000  Uiso   1.00
H905   H     0.41157   0.62835   0.68988   0.00000  Uiso   1.00
H906   H     0.45024   0.62679   0.65151   0.00000  Uiso   1.00
H907   H     0.45063   0.37342   0.65143   0.00000  Uiso   1.00
H908   H     0.41168   0.37145   0.68944   0.00000  Uiso   1.00
H909   H     0.55759   0.58018   0.81305   0.00000  Uiso   1.00
H910   H     0.58832   0.62855   0.81057   0.00000  Uiso   1.00
H911   H     0.54936   0.62657   0.84857   0.00000  Uiso   1.00
H912   H     0.55755   0.41984   0.81310   0.00000  Uiso   1.00
H913   H     0.54976   0.37321   0.84850   0.00000  Uiso   1.00
H914   H     0.58843   0.37165   0.81012   0.00000  Uiso   1.00
N915   N     0.50000   0.61736   0.75000   0.00000  Uiso   1.00
N916   N     0.50000   0.38264   0.75000   0.00000  Uiso   1.00
O917   O     0.43988   0.53958   0.75000   0.00000  Uiso   1.00
O918   O     0.56012   0.46042   0.75001   0.00000  Uiso   1.00
O919   O     0.56012   0.53958   0.75001   0.00000  Uiso   1.00
O920   O     0.43988   0.46042   0.75000   0.00000  Uiso   1.00
O921   O     0.50000   0.53959   0.68573   0.00000  Uiso   1.00
O922   O     0.50000   0.46041   0.81427   0.00000  Uiso   1.00
O923   O     0.50000   0.53959   0.81427   0.00000  Uiso   1.00
O924   O     0.50000   0.46041   0.68573   0.00000  Uiso   1.00
C925   C     0.75436   0.49999   0.75271   0.00000  Uiso   1.00
C926   C     0.97878   0.54241   0.74590   0.00000  Uiso   1.00
C927   C     0.97871   0.45764   0.74556   0.00000  Uiso   1.00
C928   C     0.68796   0.54236   0.75444   0.00000  Uiso   1.00
C929   C     0.85212   0.54127   0.54799   0.00000  Uiso   1.00
C930   C     0.81452   0.45872   0.95200   0.00000  Uiso   1.00
C931   C     0.81436   0.54117   0.95195   0.00000  Uiso   1.00
C932   C     0.85228   0.45882   0.54805   0.00000  Uiso   1.00
C933   C     0.85113   0.54212   0.59445   0.00000  Uiso   1.00
C934   C     0.81553   0.45788   0.90555   0.00000  Uiso   1.00
C935   C     0.81535   0.54201   0.90549   0.00000  Uiso   1.00
C936   C     0.91231   0.50001   0.74729   0.00000  Uiso   1.00
C937   C     0.85130   0.45799   0.59451   0.00000  Uiso   1.00
C938   C     0.84484   0.50004   0.61745   0.00000  Uiso   1.00
C939   C     0.82182   0.49996   0.88255   0.00000  Uiso   1.00
C940   C     0.84170   0.50002   0.52434   0.00000  Uiso   1.00
C941   C     0.82494   0.49997   0.97565   0.00000  Uiso   1.00
C942   C     0.95691   0.50003   0.74482   0.00000  Uiso   1.00
C943   C     0.70976   0.49997   0.75519   0.00000  Uiso   1.00
C944   C     0.77682   0.38231   0.68559   0.00000  Uiso   1.00
C945   C     0.88985   0.61769   0.81441   0.00000  Uiso   1.00
C946   C     0.88997   0.38231   0.81429   0.00000  Uiso   1.00
C947   C     0.83686   0.50001   0.66525   0.00000  Uiso   1.00
C948   C     0.77670   0.61769   0.68571   0.00000  Uiso   1.00
C949   C     0.82980   0.49999   0.83475   0.00000  Uiso   1.00
C950   C     0.80681   0.35813   0.72001   0.00000  Uiso   1.00
C951   C     0.85985   0.64187   0.78000   0.00000  Uiso   1.00
C952   C     0.85986   0.35813   0.77998   0.00000  Uiso   1.00
C953   C     0.80680   0.64187   0.72002   0.00000  Uiso   1.00
C954   C     0.68789   0.45759   0.75411   0.00000  Uiso   1.00
Cl955  Cl    0.87765   0.58674   0.52243   0.00000  Uiso   1.00
Cl956  Cl    0.95488   0.59649   0.73172   0.00000  Uiso   1.00
Cl957  Cl    0.95471   0.40369   0.73094   0.00000  Uiso   1.00
Cl958  Cl    0.71196   0.59631   0.76906   0.00000  Uiso   1.00
Cl959  Cl    0.78891   0.41331   0.97753   0.00000  Uiso   1.00
Cl960  Cl    0.78863   0.58648   0.97745   0.00000  Uiso   1.00
Cl961  Cl    0.87792   0.41346   0.52254   0.00000  Uiso   1.00
Cl962  Cl    0.86236   0.59541   0.62243   0.00000  Uiso   1.00
Cl963  Cl    0.80429   0.40458   0.87757   0.00000  Uiso   1.00
Cl964  Cl    0.80383   0.59520   0.87742   0.00000  Uiso   1.00
Cl965  Cl    0.86281   0.40480   0.62258   0.00000  Uiso   1.00
Cl966  Cl    0.71179   0.40351   0.76829   0.00000  Uiso   1.00
Cu967  Cu    0.83333   0.54689   0.75000   0.00000  Uiso   1.00
Cu968  Cu    0.83333   0.45311   0.75000   0.00000  Uiso   1.00
H969   H     0.77574   0.41983   0.68695   0.00000  Uiso   1.00
H970   H     0.77578   0.58016   0.68691   0.00000  Uiso   1.00
H971   H     0.74491   0.62835   0.68988   0.00000  Uiso   1.00
H972   H     0.78357   0.62679   0.65151   0.00000  Uiso   1.00
H973   H     0.78396   0.37342   0.65143   0.00000  Uiso   1.00
H974   H     0.74501   0.37145   0.68944   0.00000  Uiso   1.00
H975   H     0.89093   0.58018   0.81305   0.00000  Uiso   1.00
H976   H     0.92165   0.62855   0.81057   0.00000  Uiso   1.00
H977   H     0.88270   0.62657   0.84857   0.00000  Uiso   1.00
H978   H     0.89089   0.41984   0.81310   0.00000  Uiso   1.00
H979   H     0.88310   0.37321   0.84850   0.00000  Uiso   1.00
H980   H     0.92176   0.37165   0.81012   0.00000  Uiso   1.00
N981   N     0.83333   0.61736   0.75000   0.00000  Uiso   1.00
N982   N     0.83333   0.38264   0.75000   0.00000  Uiso   1.00
O983   O     0.77321   0.53958   0.75000   0.00000  Uiso   1.00
O984   O     0.89345   0.46042   0.75001   0.00000  Uiso   1.00
O985   O     0.89345   0.53958   0.75001   0.00000  Uiso   1.00
O986   O     0.77321   0.46042   0.75000   0.00000  Uiso   1.00
O987   O     0.83333   0.53959   0.68573   0.00000  Uiso   1.00
O988   O     0.83334   0.46041   0.81427   0.00000  Uiso   1.00
O989   O     0.83334   0.53959   0.81427   0.00000  Uiso   1.00
O990   O     0.83333   0.46041   0.68573   0.00000  Uiso   1.00
C991   C     0.08769   0.83332   0.75271   0.00000  Uiso   1.00
C992   C     0.31211   0.87574   0.74590   0.00000  Uiso   1.00
C993   C     0.31204   0.79097   0.74556   0.00000  Uiso   1.00
C994   C     0.02129   0.87570   0.75444   0.00000  Uiso   1.00
C995   C     0.18546   0.87461   0.54799   0.00000  Uiso   1.00
C996   C     0.14785   0.79205   0.95200   0.00000  Uiso   1.00
C997   C     0.14769   0.87450   0.95195   0.00000  Uiso   1.00
C998   C     0.18561   0.79215   0.54805   0.00000  Uiso   1.00
C999   C     0.18446   0.87545   0.59445   0.00000  Uiso   1.00
C1000  C     0.14886   0.79121   0.90555   0.00000  Uiso   1.00
C1001  C     0.14868   0.87534   0.90549   0.00000  Uiso   1.00
C1002  C     0.24564   0.83334   0.74729   0.00000  Uiso   1.00
C1003  C     0.18464   0.79132   0.59451   0.00000  Uiso   1.00
C1004  C     0.17818   0.83337   0.61745   0.00000  Uiso   1.00
C1005  C     0.15515   0.83329   0.88255   0.00000  Uiso   1.00
C1006  C     0.17504   0.83335   0.52434   0.00000  Uiso   1.00
C1007  C     0.15827   0.83331   0.97565   0.00000  Uiso   1.00
C1008  C     0.29024   0.83336   0.74482   0.00000  Uiso   1.00
C1009  C     0.04309   0.83331   0.75519   0.00000  Uiso   1.00
C1010  C     0.11015   0.71564   0.68559   0.00000  Uiso   1.00
C1011  C     0.22318   0.95103   0.81441   0.00000  Uiso   1.00
C1012  C     0.22330   0.71564   0.81429   0.00000  Uiso   1.00
C1013  C     0.17020   0.83334   0.66525   0.00000  Uiso   1.00
C1014  C     0.11003   0.95102   0.68571   0.00000  Uiso   1.00
C1015  C     0.16314   0.83332   0.83475   0.00000  Uiso   1.00
C1016  C     0.14015   0.69146   0.72001   0.00000  Uiso   1.00
C1017  C     0.19319   0.97521   0.78000   0.00000  Uiso   1.00
C1018  C     0.19320   0.69146   0.77998   0.00000  Uiso   1.00
C1019  C     0.14014   0.97521   0.72002   0.00000  Uiso   1.00
C1020  C     0.02122   0.79093   0.75411   0.00000  Uiso   1.00
Cl1021 Cl    0.21099   0.92008   0.52243   0.00000  Uiso   1.00
Cl1022 Cl    0.28821   0.92983   0.73172   0.00000  Uiso   1.00
Cl1023 Cl    0.28804   0.73703   0.73094   0.00000  Uiso   1.00
Cl1024 Cl    0.04530   0.92964   0.76906   0.00000  Uiso   1.00
Cl1025 Cl    0.12225   0.74664   0.97753   0.00000  Uiso   1.00
Cl1026 Cl    0.12196   0.91981   0.97745   0.00000  Uiso   1.00
Cl1027 Cl    0.21125   0.74679   0.52254   0.00000  Uiso   1.00
Cl1028 Cl    0.19569   0.92874   0.62243   0.00000  Uiso   1.00
Cl1029 Cl    0.13763   0.73792   0.87757   0.00000  Uiso   1.00
Cl1030 Cl    0.13717   0.92853   0.87742   0.00000  Uiso   1.00
Cl1031 Cl    0.19615   0.73813   0.62258   0.00000  Uiso   1.00
Cl1032 Cl    0.04512   0.73684   0.76829   0.00000  Uiso   1.00
Cu1033 Cu    0.16667   0.88022   0.75000   0.00000  Uiso   1.00
Cu1034 Cu    0.16667   0.78645   0.75000   0.00000  Uiso   1.00
H1035  H     0.10907   0.75316   0.68695   0.00000  Uiso   1.00
H1036  H     0.10911   0.91349   0.68691   0.00000  Uiso   1.00
H1037  H     0.07824   0.96168   0.68988   0.00000  Uiso   1.00
H1038  H     0.11690   0.96012   0.65151   0.00000  Uiso   1.00
H1039  H     0.11730   0.70676   0.65143   0.00000  Uiso   1.00
H1040  H     0.07834   0.70478   0.68944   0.00000  Uiso   1.00
H1041  H     0.22426   0.91351   0.81305   0.00000  Uiso   1.00
H1042  H     0.25499   0.96188   0.81057   0.00000  Uiso   1.00
H1043  H     0.21603   0.95991   0.84857   0.00000  Uiso   1.00
H1044  H     0.22422   0.75317   0.81310   0.00000  Uiso   1.00
H1045  H     0.21643   0.70655   0.84850   0.00000  Uiso   1.00
H1046  H     0.25509   0.70499   0.81012   0.00000  Uiso   1.00
N1047  N     0.16667   0.95069   0.75000   0.00000  Uiso   1.00
N1048  N     0.16667   0.71598   0.75000   0.00000  Uiso   1.00
O1049  O     0.10655   0.87291   0.75000   0.00000  Uiso   1.00
O1050  O     0.22679   0.79375   0.75001   0.00000  Uiso   1.00
O1051  O     0.22679   0.87291   0.75001   0.00000  Uiso   1.00
O1052  O     0.10655   0.79375   0.75000   0.00000  Uiso   1.00
O1053  O     0.16666   0.87293   0.68573   0.00000  Uiso   1.00
O1054  O     0.16667   0.79374   0.81427   0.00000  Uiso   1.00
O1055  O     0.16667   0.87293   0.81427   0.00000  Uiso   1.00
O1056  O     0.16666   0.79374   0.68573   0.00000  Uiso   1.00
C1057  C     0.42103   0.83332   0.75271   0.00000  Uiso   1.00
C1058  C     0.64545   0.87574   0.74590   0.00000  Uiso   1.00
C1059  C     0.64538   0.79097   0.74556   0.00000  Uiso   1.00
C1060  C     0.35462   0.87570   0.75444   0.00000  Uiso   1.00
C1061  C     0.51879   0.87461   0.54799   0.00000  Uiso   1.00
C1062  C     0.48119   0.79205   0.95200   0.00000  Uiso   1.00
C1063  C     0.48102   0.87450   0.95195   0.00000  Uiso   1.00
C1064  C     0.51894   0.79215   0.54805   0.00000  Uiso   1.00
C1065  C     0.51779   0.87545   0.59445   0.00000  Uiso   1.00
C1066  C     0.48220   0.79121   0.90555   0.00000  Uiso   1.00
C1067  C     0.48201   0.87534   0.90549   0.00000  Uiso   1.00
C1068  C     0.57897   0.83334   0.74729   0.00000  Uiso   1.00
C1069  C     0.51797   0.79132   0.59451   0.00000  Uiso   1.00
C1070  C     0.51151   0.83337   0.61745   0.00000  Uiso   1.00
C1071  C     0.48848   0.83329   0.88255   0.00000  Uiso   1.00
C1072  C     0.50837   0.83335   0.52434   0.00000  Uiso   1.00
C1073  C     0.49161   0.83331   0.97565   0.00000  Uiso   1.00
C1074  C     0.62358   0.83336   0.74482   0.00000  Uiso   1.00
C1075  C     0.37643   0.83331   0.75519   0.00000  Uiso   1.00
C1076  C     0.44348   0.71564   0.68559   0.00000  Uiso   1.00
C1077  C     0.55651   0.95103   0.81441   0.00000  Uiso   1.00
C1078  C     0.55664   0.71564   0.81429   0.00000  Uiso   1.00
C1079  C     0.50353   0.83334   0.66525   0.00000  Uiso   1.00
C1080  C     0.44336   0.95102   0.68571   0.00000  Uiso   1.00
C1081  C     0.49647   0.83332   0.83475   0.00000  Uiso   1.00
C1082  C     0.47348   0.69146   0.72001   0.00000  Uiso   1.00
C1083  C     0.52652   0.97521   0.78000   0.00000  Uiso   1.00
C1084  C     0.52653   0.69146   0.77998   0.00000  Uiso   1.00
C1085  C     0.47347   0.97521   0.72002   0.00000  Uiso   1.00
C1086  C     0.35455   0.79093   0.75411   0.00000  Uiso   1.00
Cl1087 Cl    0.54432   0.92008   0.52243   0.00000  Uiso   1.00
Cl1088 Cl    0.62155   0.92983   0.73172   0.00000  Uiso   1.00
Cl1089 Cl    0.62137   0.73703   0.73094   0.00000  Uiso   1.00
Cl1090 Cl    0.37863   0.92964   0.76906   0.00000  Uiso   1.00
Cl1091 Cl    0.45558   0.74664   0.97753   0.00000  Uiso   1.00
Cl1092 Cl    0.45530   0.91981   0.97745   0.00000  Uiso   1.00
Cl1093 Cl    0.54459   0.74679   0.52254   0.00000  Uiso   1.00
Cl1094 Cl    0.52903   0.92874   0.62243   0.00000  Uiso   1.00
Cl1095 Cl    0.47096   0.73792   0.87757   0.00000  Uiso   1.00
Cl1096 Cl    0.47050   0.92853   0.87742   0.00000  Uiso   1.00
Cl1097 Cl    0.52948   0.73813   0.62258   0.00000  Uiso   1.00
Cl1098 Cl    0.37846   0.73684   0.76829   0.00000  Uiso   1.00
Cu1099 Cu    0.50000   0.88022   0.75000   0.00000  Uiso   1.00
Cu1100 Cu    0.50000   0.78645   0.75000   0.00000  Uiso   1.00
H1101  H     0.44241   0.75316   0.68695   0.00000  Uiso   1.00
H1102  H     0.44245   0.91349   0.68691   0.00000  Uiso   1.00
H1103  H     0.41157   0.96168   0.68988   0.00000  Uiso   1.00
H1104  H     0.45024   0.96012   0.65151   0.00000  Uiso   1.00
H1105  H     0.45063   0.70676   0.65143   0.00000  Uiso   1.00
H1106  H     0.41168   0.70478   0.68944   0.00000  Uiso   1.00
H1107  H     0.55759   0.91351   0.81305   0.00000  Uiso   1.00
H1108  H     0.58832   0.96188   0.81057   0.00000  Uiso   1.00
H1109  H     0.54936   0.95991   0.84857   0.00000  Uiso   1.00
H1110  H     0.55755   0.75317   0.81310   0.00000  Uiso   1.00
H1111  H     0.54976   0.70655   0.84850   0.00000  Uiso   1.00
H1112  H     0.58843   0.70499   0.81012   0.00000  Uiso   1.00
N1113  N     0.50000   0.95069   0.75000   0.00000  Uiso   1.00
N1114  N     0.50000   0.71598   0.75000   0.00000  Uiso   1.00
O1115  O     0.43988   0.87291   0.75000   0.00000  Uiso   1.00
O1116  O     0.56012   0.79375   0.75001   0.00000  Uiso   1.00
O1117  O     0.56012   0.87291   0.75001   0.00000  Uiso   1.00
O1118  O     0.43988   0.79375   0.75000   0.00000  Uiso   1.00
O1119  O     0.50000   0.87293   0.68573   0.00000  Uiso   1.00
O1120  O     0.50000   0.79374   0.81427   0.00000  Uiso   1.00
O1121  O     0.50000   0.87293   0.81427   0.00000  Uiso   1.00
O1122  O     0.50000   0.79374   0.68573   0.00000  Uiso   1.00
C1123  C     0.75436   0.83332   0.75271   0.00000  Uiso   1.00
C1124  C     0.97878   0.87574   0.74590   0.00000  Uiso   1.00
C1125  C     0.97871   0.79097   0.74556   0.00000  Uiso   1.00
C1126  C     0.68796   0.87570   0.75444   0.00000  Uiso   1.00
C1127  C     0.85212   0.87461   0.54799   0.00000  Uiso   1.00
C1128  C     0.81452   0.79205   0.95200   0.00000  Uiso   1.00
C1129  C     0.81436   0.87450   0.95195   0.00000  Uiso   1.00
C1130  C     0.85228   0.79215   0.54805   0.00000  Uiso   1.00
C1131  C     0.85113   0.87545   0.59445   0.00000  Uiso   1.00
C1132  C     0.81553   0.79121   0.90555   0.00000  Uiso   1.00
C1133  C     0.81535   0.87534   0.90549   0.00000  Uiso   1.00
C1134  C     0.91231   0.83334   0.74729   0.00000  Uiso   1.00
C1135  C     0.85130   0.79132   0.59451   0.00000  Uiso   1.00
C1136  C     0.84484   0.83337   0.61745   0.00000  Uiso   1.00
C1137  C     0.82182   0.83329   0.88255   0.00000  Uiso   1.00
C1138  C     0.84170   0.83335   0.52434   0.00000  Uiso   1.00
C1139  C     0.82494   0.83331   0.97565   0.00000  Uiso   1.00
C1140  C     0.95691   0.83336   0.74482   0.00000  Uiso   1.00
C1141  C     0.70976   0.83331   0.75519   0.00000  Uiso   1.00
C1142  C     0.77682   0.71564   0.68559   0.00000  Uiso   1.00
C1143  C     0.88985   0.95103   0.81441   0.00000  Uiso   1.00
C1144  C     0.88997   0.71564   0.81429   0.00000  Uiso   1.00
C1145  C     0.83686   0.83334   0.66525   0.00000  Uiso   1.00
C1146  C     0.77670   0.95102   0.68571   0.00000  Uiso   1.00
C1147  C     0.82980   0.83332   0.83475   0.00000  Uiso   1.00
C1148  C     0.80681   0.69146   0.72001   0.00000  Uiso   1.00
C1149  C     0.85985   0.97521   0.78000   0.00000  Uiso   1.00
C1150  C     0.85986   0.69146   0.77998   0.00000  Uiso   1.00
C1151  C     0.80680   0.97521   0.72002   0.00000  Uiso   1.00
C1152  C     0.68789   0.79093   0.75411   0.00000  Uiso   1.00
Cl1153 Cl    0.87765   0.92008   0.52243   0.00000  Uiso   1.00
Cl1154 Cl    0.95488   0.92983   0.73172   0.00000  Uiso   1.00
Cl1155 Cl    0.95471   0.73703   0.73094   0.00000  Uiso   1.00
Cl1156 Cl    0.71196   0.92964   0.76906   0.00000  Uiso   1.00
Cl1157 Cl    0.78891   0.74664   0.97753   0.00000  Uiso   1.00
Cl1158 Cl    0.78863   0.91981   0.97745   0.00000  Uiso   1.00
Cl1159 Cl    0.87792   0.74679   0.52254   0.00000  Uiso   1.00
Cl1160 Cl    0.86236   0.92874   0.62243   0.00000  Uiso   1.00
Cl1161 Cl    0.80429   0.73792   0.87757   0.00000  Uiso   1.00
Cl1162 Cl    0.80383   0.92853   0.87742   0.00000  Uiso   1.00
Cl1163 Cl    0.86281   0.73813   0.62258   0.00000  Uiso   1.00
Cl1164 Cl    0.71179   0.73684   0.76829   0.00000  Uiso   1.00
Cu1165 Cu    0.83333   0.88022   0.75000   0.00000  Uiso   1.00
Cu1166 Cu    0.83333   0.78645   0.75000   0.00000  Uiso   1.00
H1167  H     0.77574   0.75316   0.68695   0.00000  Uiso   1.00
H1168  H     0.77578   0.91349   0.68691   0.00000  Uiso   1.00
H1169  H     0.74491   0.96168   0.68988   0.00000  Uiso   1.00
H1170  H     0.78357   0.96012   0.65151   0.00000  Uiso   1.00
H1171  H     0.78396   0.70676   0.65143   0.00000  Uiso   1.00
H1172  H     0.74501   0.70478   0.68944   0.00000  Uiso   1.00
H1173  H     0.89093   0.91351   0.81305   0.00000  Uiso   1.00
H1174  H     0.92165   0.96188   0.81057   0.00000  Uiso   1.00
H1175  H     0.88270   0.95991   0.84857   0.00000  Uiso   1.00
H1176  H     0.89089   0.75317   0.81310   0.00000  Uiso   1.00
H1177  H     0.88310   0.70655   0.84850   0.00000  Uiso   1.00
H1178  H     0.92176   0.70499   0.81012   0.00000  Uiso   1.00
N1179  N     0.83333   0.95069   0.75000   0.00000  Uiso   1.00
N1180  N     0.83333   0.71598   0.75000   0.00000  Uiso   1.00
O1181  O     0.77321   0.87291   0.75000   0.00000  Uiso   1.00
O1182  O     0.89345   0.79375   0.75001   0.00000  Uiso   1.00
O1183  O     0.89345   0.87291   0.75001   0.00000  Uiso   1.00
O1184  O     0.77321   0.79375   0.75000   0.00000  Uiso   1.00
O1185  O     0.83333   0.87293   0.68573   0.00000  Uiso   1.00
O1186  O     0.83334   0.79374   0.81427   0.00000  Uiso   1.00
O1187  O     0.83334   0.87293   0.81427   0.00000  Uiso   1.00
O1188  O     0.83333   0.79374   0.68573   0.00000  Uiso   1.00
loop_
_geom_bond_atom_site_label_1
_geom_bond_atom_site_label_2
_geom_bond_distance
_geom_bond_site_symmetry_2
_ccdc_geom_bond_type
C1     O62     1.305   .     A
C1     O59     1.305   .     A
C1     C19     1.474   .     S
C2     C18     1.415   .     A
C2     Cl32    1.777   .     S
C2     C70     1.392   .     S
C3     Cl33    1.777   .     S
C3     C18     1.415   .     A
C3     C96     1.392   .     S
C4     Cl34    1.777   .     S
C4     C19     1.415   .     A
C4     C134    1.392   1_455 S
C5     C9      1.403   .     A
C5     C16     1.410   .     A
C5     Cl31    1.774   .     S
C6     C10     1.403   .     A
C6     Cl35    1.774   .     S
C6     C17     1.410   .     A
C7     Cl36    1.774   .     S
C7     C11     1.403   .     A
C7     C17     1.410   .     A
C8     C16     1.410   .     A
C8     Cl37    1.774   .     S
C8     C13     1.403   .     A
C9     C14     1.422   .     A
C9     Cl38    1.772   .     S
C10    C15     1.423   .     A
C10    Cl39    1.772   .     S
C11    Cl40    1.772   .     S
C11    C15     1.422   .     A
C12    O61     1.305   .     A
C12    O60     1.305   .     A
C12    C18     1.474   .     S
C13    C14     1.422   .     A
C13    Cl41    1.772   .     S
C14    C23     1.490   .     S
C15    C25     1.490   .     S
C16    C611    1.511   1_554 S
C17    C610    1.511   .     S
C19    C30     1.415   .     A
C20    H45     1.083   .     S
C20    H49     1.109   .     S
C20    C26     1.521   .     S
C20    H50     1.107   .     S
C21    C27     1.521   .     S
C21    H53     1.109   .     S
C21    H51     1.083   .     S
C21    H52     1.107   .     S
C22    H55     1.109   .     S
C22    C28     1.521   .     S
C22    H56     1.108   .     S
C22    H54     1.083   .     S
C23    O63     1.308   .     A
C23    O66     1.308   .     A
C24    H48     1.109   .     S
C24    H46     1.083   .     S
C24    H47     1.108   .     S
C24    C29     1.521   .     S
C25    O65     1.308   .     A
C25    O64     1.308   .     A
C26    N58     1.381   .     A
C26    C425    1.430   1_545 S
C27    N57     1.381   .     A
C27    C226    1.430   .     S
C28    N58     1.381   .     A
C28    C423    1.430   1_545 S
C29    N57     1.381   .     A
C29    C224    1.430   .     S
C30    Cl42    1.777   .     S
C30    C135    1.392   1_455 S
Cu43   O59     1.984   .     S
Cu43   O65     1.947   .     S
Cu43   O63     1.947   .     S
Cu43   Cu44    2.703   .     S
Cu43   O61     1.984   .     S
Cu43   N57     2.032   .     S
Cu44   O66     1.947   .     S
Cu44   O64     1.947   .     S
Cu44   O60     1.984   .     S
Cu44   O62     1.984   .     S
Cu44   N58     2.032   .     S
C67    O128    1.305   .     A
C67    O125    1.305   .     A
C67    C85     1.474   .     S
C68    C84     1.415   .     A
C68    Cl98    1.777   .     S
C68    C136    1.392   .     S
C69    Cl99    1.777   .     S
C69    C84     1.415   .     A
C69    C162    1.392   .     S
C70    Cl100   1.777   .     S
C70    C85     1.415   .     A
C71    C75     1.403   .     A
C71    C82     1.410   .     A
C71    Cl97    1.774   .     S
C72    C76     1.403   .     A
C72    Cl101   1.774   .     S
C72    C83     1.410   .     A
C73    Cl102   1.774   .     S
C73    C77     1.403   .     A
C73    C83     1.410   .     A
C74    C82     1.410   .     A
C74    Cl103   1.774   .     S
C74    C79     1.403   .     A
C75    C80     1.422   .     A
C75    Cl104   1.772   .     S
C76    C81     1.423   .     A
C76    Cl105   1.772   .     S
C77    Cl106   1.772   .     S
C77    C81     1.422   .     A
C78    O127    1.305   .     A
C78    O126    1.305   .     A
C78    C84     1.474   .     S
C79    C80     1.422   .     A
C79    Cl107   1.772   .     S
C80    C89     1.490   .     S
C81    C91     1.490   .     S
C82    C677    1.511   1_554 S
C83    C676    1.511   .     S
C85    C96     1.415   .     A
C86    H111    1.083   .     S
C86    H115    1.109   .     S
C86    C92     1.521   .     S
C86    H116    1.107   .     S
C87    C93     1.521   .     S
C87    H119    1.109   .     S
C87    H117    1.083   .     S
C87    H118    1.107   .     S
C88    H121    1.109   .     S
C88    C94     1.521   .     S
C88    H122    1.108   .     S
C88    H120    1.083   .     S
C89    O129    1.308   .     A
C89    O132    1.308   .     A
C90    H114    1.109   .     S
C90    H112    1.083   .     S
C90    H113    1.108   .     S
C90    C95     1.521   .     S
C91    O131    1.308   .     A
C91    O130    1.308   .     A
C92    N124    1.381   .     A
C92    C491    1.430   1_545 S
C93    N123    1.381   .     A
C93    C292    1.430   .     S
C94    N124    1.381   .     A
C94    C489    1.430   1_545 S
C95    N123    1.381   .     A
C95    C290    1.430   .     S
C96    Cl108   1.777   .     S
Cu109  O125    1.984   .     S
Cu109  O131    1.947   .     S
Cu109  O129    1.947   .     S
Cu109  Cu110   2.703   .     S
Cu109  O127    1.984   .     S
Cu109  N123    2.032   .     S
Cu110  O132    1.947   .     S
Cu110  O130    1.947   .     S
Cu110  O126    1.984   .     S
Cu110  O128    1.984   .     S
Cu110  N124    2.032   .     S
C133   O194    1.305   .     A
C133   O191    1.305   .     A
C133   C151    1.474   .     S
C134   C150    1.415   .     A
C134   Cl164   1.777   .     S
C134   C4      1.392   1_655 S
C135   Cl165   1.777   .     S
C135   C150    1.415   .     A
C135   C30     1.392   1_655 S
C136   Cl166   1.777   .     S
C136   C151    1.415   .     A
C137   C141    1.403   .     A
C137   C148    1.410   .     A
C137   Cl163   1.774   .     S
C138   C142    1.403   .     A
C138   Cl167   1.774   .     S
C138   C149    1.410   .     A
C139   Cl168   1.774   .     S
C139   C143    1.403   .     A
C139   C149    1.410   .     A
C140   C148    1.410   .     A
C140   Cl169   1.774   .     S
C140   C145    1.403   .     A
C141   C146    1.422   .     A
C141   Cl170   1.772   .     S
C142   C147    1.423   .     A
C142   Cl171   1.772   .     S
C143   Cl172   1.772   .     S
C143   C147    1.422   .     A
C144   O193    1.305   .     A
C144   O192    1.305   .     A
C144   C150    1.474   .     S
C145   C146    1.422   .     A
C145   Cl173   1.772   .     S
C146   C155    1.490   .     S
C147   C157    1.490   .     S
C148   C743    1.511   1_554 S
C149   C742    1.511   .     S
C151   C162    1.415   .     A
C152   H177    1.083   .     S
C152   H181    1.109   .     S
C152   C158    1.521   .     S
C152   H182    1.107   .     S
C153   C159    1.521   .     S
C153   H185    1.109   .     S
C153   H183    1.083   .     S
C153   H184    1.107   .     S
C154   H187    1.109   .     S
C154   C160    1.521   .     S
C154   H188    1.108   .     S
C154   H186    1.083   .     S
C155   O195    1.308   .     A
C155   O198    1.308   .     A
C156   H180    1.109   .     S
C156   H178    1.083   .     S
C156   H179    1.108   .     S
C156   C161    1.521   .     S
C157   O197    1.308   .     A
C157   O196    1.308   .     A
C158   N190    1.381   .     A
C158   C557    1.430   1_545 S
C159   N189    1.381   .     A
C159   C358    1.430   .     S
C160   N190    1.381   .     A
C160   C555    1.430   1_545 S
C161   N189    1.381   .     A
C161   C356    1.430   .     S
C162   Cl174   1.777   .     S
Cu175  O191    1.984   .     S
Cu175  O197    1.947   .     S
Cu175  O195    1.947   .     S
Cu175  Cu176   2.703   .     S
Cu175  O193    1.984   .     S
Cu175  N189    2.032   .     S
Cu176  O198    1.947   .     S
Cu176  O196    1.947   .     S
Cu176  O192    1.984   .     S
Cu176  O194    1.984   .     S
Cu176  N190    2.032   .     S
C199   O260    1.305   .     A
C199   O257    1.305   .     A
C199   C217    1.474   .     S
C200   C216    1.415   .     A
C200   Cl230   1.777   .     S
C200   C268    1.392   .     S
C201   Cl231   1.777   .     S
C201   C216    1.415   .     A
C201   C294    1.392   .     S
C202   Cl232   1.777   .     S
C202   C217    1.415   .     A
C202   C332    1.392   1_455 S
C203   C207    1.403   .     A
C203   C214    1.410   .     A
C203   Cl229   1.774   .     S
C204   C208    1.403   .     A
C204   Cl233   1.774   .     S
C204   C215    1.410   .     A
C205   Cl234   1.774   .     S
C205   C209    1.403   .     A
C205   C215    1.410   .     A
C206   C214    1.410   .     A
C206   Cl235   1.774   .     S
C206   C211    1.403   .     A
C207   C212    1.422   .     A
C207   Cl236   1.772   .     S
C208   C213    1.423   .     A
C208   Cl237   1.772   .     S
C209   Cl238   1.772   .     S
C209   C213    1.422   .     A
C210   O259    1.305   .     A
C210   O258    1.305   .     A
C210   C216    1.474   .     S
C211   C212    1.422   .     A
C211   Cl239   1.772   .     S
C212   C221    1.490   .     S
C213   C223    1.490   .     S
C214   C809    1.511   1_554 S
C215   C808    1.511   .     S
C217   C228    1.415   .     A
C218   H243    1.083   .     S
C218   H247    1.109   .     S
C218   C224    1.521   .     S
C218   H248    1.107   .     S
C219   C225    1.521   .     S
C219   H251    1.109   .     S
C219   H249    1.083   .     S
C219   H250    1.107   .     S
C220   H253    1.109   .     S
C220   C226    1.521   .     S
C220   H254    1.108   .     S
C220   H252    1.083   .     S
C221   O261    1.308   .     A
C221   O264    1.308   .     A
C222   H246    1.109   .     S
C222   H244    1.083   .     S
C222   H245    1.108   .     S
C222   C227    1.521   .     S
C223   O263    1.308   .     A
C223   O262    1.308   .     A
C224   N256    1.381   .     A
C225   N255    1.381   .     A
C225   C424    1.430   .     S
C226   N256    1.381   .     A
C227   N255    1.381   .     A
C227   C422    1.430   .     S
C228   Cl240   1.777   .     S
C228   C333    1.392   1_455 S
Cu241  O257    1.984   .     S
Cu241  O263    1.947   .     S
Cu241  O261    1.947   .     S
Cu241  Cu242   2.703   .     S
Cu241  O259    1.984   .     S
Cu241  N255    2.032   .     S
Cu242  O264    1.947   .     S
Cu242  O262    1.947   .     S
Cu242  O258    1.984   .     S
Cu242  O260    1.984   .     S
Cu242  N256    2.032   .     S
C265   O326    1.305   .     A
C265   O323    1.305   .     A
C265   C283    1.474   .     S
C266   C282    1.415   .     A
C266   Cl296   1.777   .     S
C266   C334    1.392   .     S
C267   Cl297   1.777   .     S
C267   C282    1.415   .     A
C267   C360    1.392   .     S
C268   Cl298   1.777   .     S
C268   C283    1.415   .     A
C269   C273    1.403   .     A
C269   C280    1.410   .     A
C269   Cl295   1.774   .     S
C270   C274    1.403   .     A
C270   Cl299   1.774   .     S
C270   C281    1.410   .     A
C271   Cl300   1.774   .     S
C271   C275    1.403   .     A
C271   C281    1.410   .     A
C272   C280    1.410   .     A
C272   Cl301   1.774   .     S
C272   C277    1.403   .     A
C273   C278    1.422   .     A
C273   Cl302   1.772   .     S
C274   C279    1.423   .     A
C274   Cl303   1.772   .     S
C275   Cl304   1.772   .     S
C275   C279    1.422   .     A
C276   O325    1.305   .     A
C276   O324    1.305   .     A
C276   C282    1.474   .     S
C277   C278    1.422   .     A
C277   Cl305   1.772   .     S
C278   C287    1.490   .     S
C279   C289    1.490   .     S
C280   C875    1.511   1_554 S
C281   C874    1.511   .     S
C283   C294    1.415   .     A
C284   H309    1.083   .     S
C284   H313    1.109   .     S
C284   C290    1.521   .     S
C284   H314    1.107   .     S
C285   C291    1.521   .     S
C285   H317    1.109   .     S
C285   H315    1.083   .     S
C285   H316    1.107   .     S
C286   H319    1.109   .     S
C286   C292    1.521   .     S
C286   H320    1.108   .     S
C286   H318    1.083   .     S
C287   O327    1.308   .     A
C287   O330    1.308   .     A
C288   H312    1.109   .     S
C288   H310    1.083   .     S
C288   H311    1.108   .     S
C288   C293    1.521   .     S
C289   O329    1.308   .     A
C289   O328    1.308   .     A
C290   N322    1.381   .     A
C291   N321    1.381   .     A
C291   C490    1.430   .     S
C292   N322    1.381   .     A
C293   N321    1.381   .     A
C293   C488    1.430   .     S
C294   Cl306   1.777   .     S
Cu307  O323    1.984   .     S
Cu307  O329    1.947   .     S
Cu307  O327    1.947   .     S
Cu307  Cu308   2.703   .     S
Cu307  O325    1.984   .     S
Cu307  N321    2.032   .     S
Cu308  O330    1.947   .     S
Cu308  O328    1.947   .     S
Cu308  O324    1.984   .     S
Cu308  O326    1.984   .     S
Cu308  N322    2.032   .     S
C331   O392    1.305   .     A
C331   O389    1.305   .     A
C331   C349    1.474   .     S
C332   C348    1.415   .     A
C332   Cl362   1.777   .     S
C332   C202    1.392   1_655 S
C333   Cl363   1.777   .     S
C333   C348    1.415   .     A
C333   C228    1.392   1_655 S
C334   Cl364   1.777   .     S
C334   C349    1.415   .     A
C335   C339    1.403   .     A
C335   C346    1.410   .     A
C335   Cl361   1.774   .     S
C336   C340    1.403   .     A
C336   Cl365   1.774   .     S
C336   C347    1.410   .     A
C337   Cl366   1.774   .     S
C337   C341    1.403   .     A
C337   C347    1.410   .     A
C338   C346    1.410   .     A
C338   Cl367   1.774   .     S
C338   C343    1.403   .     A
C339   C344    1.422   .     A
C339   Cl368   1.772   .     S
C340   C345    1.423   .     A
C340   Cl369   1.772   .     S
C341   Cl370   1.772   .     S
C341   C345    1.422   .     A
C342   O391    1.305   .     A
C342   O390    1.305   .     A
C342   C348    1.474   .     S
C343   C344    1.422   .     A
C343   Cl371   1.772   .     S
C344   C353    1.490   .     S
C345   C355    1.490   .     S
C346   C941    1.511   1_554 S
C347   C940    1.511   .     S
C349   C360    1.415   .     A
C350   H375    1.083   .     S
C350   H379    1.109   .     S
C350   C356    1.521   .     S
C350   H380    1.107   .     S
C351   C357    1.521   .     S
C351   H383    1.109   .     S
C351   H381    1.083   .     S
C351   H382    1.107   .     S
C352   H385    1.109   .     S
C352   C358    1.521   .     S
C352   H386    1.108   .     S
C352   H384    1.083   .     S
C353   O393    1.308   .     A
C353   O396    1.308   .     A
C354   H378    1.109   .     S
C354   H376    1.083   .     S
C354   H377    1.108   .     S
C354   C359    1.521   .     S
C355   O395    1.308   .     A
C355   O394    1.308   .     A
C356   N388    1.381   .     A
C357   N387    1.381   .     A
C357   C556    1.430   .     S
C358   N388    1.381   .     A
C359   N387    1.381   .     A
C359   C554    1.430   .     S
C360   Cl372   1.777   .     S
Cu373  O389    1.984   .     S
Cu373  O395    1.947   .     S
Cu373  O393    1.947   .     S
Cu373  Cu374   2.703   .     S
Cu373  O391    1.984   .     S
Cu373  N387    2.032   .     S
Cu374  O396    1.947   .     S
Cu374  O394    1.947   .     S
Cu374  O390    1.984   .     S
Cu374  O392    1.984   .     S
Cu374  N388    2.032   .     S
C397   O458    1.305   .     A
C397   O455    1.305   .     A
C397   C415    1.474   .     S
C398   C414    1.415   .     A
C398   Cl428   1.777   .     S
C398   C466    1.392   .     S
C399   Cl429   1.777   .     S
C399   C414    1.415   .     A
C399   C492    1.392   .     S
C400   Cl430   1.777   .     S
C400   C415    1.415   .     A
C400   C530    1.392   1_455 S
C401   C405    1.403   .     A
C401   C412    1.410   .     A
C401   Cl427   1.774   .     S
C402   C406    1.403   .     A
C402   Cl431   1.774   .     S
C402   C413    1.410   .     A
C403   Cl432   1.774   .     S
C403   C407    1.403   .     A
C403   C413    1.410   .     A
C404   C412    1.410   .     A
C404   Cl433   1.774   .     S
C404   C409    1.403   .     A
C405   C410    1.422   .     A
C405   Cl434   1.772   .     S
C406   C411    1.423   .     A
C406   Cl435   1.772   .     S
C407   Cl436   1.772   .     S
C407   C411    1.422   .     A
C408   O457    1.305   .     A
C408   O456    1.305   .     A
C408   C414    1.474   .     S
C409   C410    1.422   .     A
C409   Cl437   1.772   .     S
C410   C419    1.490   .     S
C411   C421    1.490   .     S
C412   C1007   1.511   1_554 S
C413   C1006   1.511   .     S
C415   C426    1.415   .     A
C416   H441    1.083   .     S
C416   H445    1.109   .     S
C416   C422    1.521   .     S
C416   H446    1.107   .     S
C417   C423    1.521   .     S
C417   H449    1.109   .     S
C417   H447    1.083   .     S
C417   H448    1.107   .     S
C418   H451    1.109   .     S
C418   C424    1.521   .     S
C418   H452    1.108   .     S
C418   H450    1.083   .     S
C419   O459    1.308   .     A
C419   O462    1.308   .     A
C420   H444    1.109   .     S
C420   H442    1.083   .     S
C420   H443    1.108   .     S
C420   C425    1.521   .     S
C421   O461    1.308   .     A
C421   O460    1.308   .     A
C422   N454    1.381   .     A
C423   N453    1.381   .     A
C423   C28     1.430   1_565 S
C424   N454    1.381   .     A
C425   N453    1.381   .     A
C425   C26     1.430   1_565 S
C426   Cl438   1.777   .     S
C426   C531    1.392   1_455 S
Cu439  O455    1.984   .     S
Cu439  O461    1.947   .     S
Cu439  O459    1.947   .     S
Cu439  Cu440   2.703   .     S
Cu439  O457    1.984   .     S
Cu439  N453    2.032   .     S
Cu440  O462    1.947   .     S
Cu440  O460    1.947   .     S
Cu440  O456    1.984   .     S
Cu440  O458    1.984   .     S
Cu440  N454    2.032   .     S
C463   O524    1.305   .     A
C463   O521    1.305   .     A
C463   C481    1.474   .     S
C464   C480    1.415   .     A
C464   Cl494   1.777   .     S
C464   C532    1.392   .     S
C465   Cl495   1.777   .     S
C465   C480    1.415   .     A
C465   C558    1.392   .     S
C466   Cl496   1.777   .     S
C466   C481    1.415   .     A
C467   C471    1.403   .     A
C467   C478    1.410   .     A
C467   Cl493   1.774   .     S
C468   C472    1.403   .     A
C468   Cl497   1.774   .     S
C468   C479    1.410   .     A
C469   Cl498   1.774   .     S
C469   C473    1.403   .     A
C469   C479    1.410   .     A
C470   C478    1.410   .     A
C470   Cl499   1.774   .     S
C470   C475    1.403   .     A
C471   C476    1.422   .     A
C471   Cl500   1.772   .     S
C472   C477    1.423   .     A
C472   Cl501   1.772   .     S
C473   Cl502   1.772   .     S
C473   C477    1.422   .     A
C474   O523    1.305   .     A
C474   O522    1.305   .     A
C474   C480    1.474   .     S
C475   C476    1.422   .     A
C475   Cl503   1.772   .     S
C476   C485    1.490   .     S
C477   C487    1.490   .     S
C478   C1073   1.511   1_554 S
C479   C1072   1.511   .     S
C481   C492    1.415   .     A
C482   H507    1.083   .     S
C482   H511    1.109   .     S
C482   C488    1.521   .     S
C482   H512    1.107   .     S
C483   C489    1.521   .     S
C483   H515    1.109   .     S
C483   H513    1.083   .     S
C483   H514    1.107   .     S
C484   H517    1.109   .     S
C484   C490    1.521   .     S
C484   H518    1.108   .     S
C484   H516    1.083   .     S
C485   O525    1.308   .     A
C485   O528    1.308   .     A
C486   H510    1.109   .     S
C486   H508    1.083   .     S
C486   H509    1.108   .     S
C486   C491    1.521   .     S
C487   O527    1.308   .     A
C487   O526    1.308   .     A
C488   N520    1.381   .     A
C489   N519    1.381   .     A
C489   C94     1.430   1_565 S
C490   N520    1.381   .     A
C491   N519    1.381   .     A
C491   C92     1.430   1_565 S
C492   Cl504   1.777   .     S
Cu505  O521    1.984   .     S
Cu505  O527    1.947   .     S
Cu505  O525    1.947   .     S
Cu505  Cu506   2.703   .     S
Cu505  O523    1.984   .     S
Cu505  N519    2.032   .     S
Cu506  O528    1.947   .     S
Cu506  O526    1.947   .     S
Cu506  O522    1.984   .     S
Cu506  O524    1.984   .     S
Cu506  N520    2.032   .     S
C529   O590    1.305   .     A
C529   O587    1.305   .     A
C529   C547    1.474   .     S
C530   C546    1.415   .     A
C530   Cl560   1.777   .     S
C530   C400    1.392   1_655 S
C531   Cl561   1.777   .     S
C531   C546    1.415   .     A
C531   C426    1.392   1_655 S
C532   Cl562   1.777   .     S
C532   C547    1.415   .     A
C533   C537    1.403   .     A
C533   C544    1.410   .     A
C533   Cl559   1.774   .     S
C534   C538    1.403   .     A
C534   Cl563   1.774   .     S
C534   C545    1.410   .     A
C535   Cl564   1.774   .     S
C535   C539    1.403   .     A
C535   C545    1.410   .     A
C536   C544    1.410   .     A
C536   Cl565   1.774   .     S
C536   C541    1.403   .     A
C537   C542    1.422   .     A
C537   Cl566   1.772   .     S
C538   C543    1.423   .     A
C538   Cl567   1.772   .     S
C539   Cl568   1.772   .     S
C539   C543    1.422   .     A
C540   O589    1.305   .     A
C540   O588    1.305   .     A
C540   C546    1.474   .     S
C541   C542    1.422   .     A
C541   Cl569   1.772   .     S
C542   C551    1.490   .     S
C543   C553    1.490   .     S
C544   C1139   1.511   1_554 S
C545   C1138   1.511   .     S
C547   C558    1.415   .     A
C548   H573    1.083   .     S
C548   H577    1.109   .     S
C548   C554    1.521   .     S
C548   H578    1.107   .     S
C549   C555    1.521   .     S
C549   H581    1.109   .     S
C549   H579    1.083   .     S
C549   H580    1.107   .     S
C550   H583    1.109   .     S
C550   C556    1.521   .     S
C550   H584    1.108   .     S
C550   H582    1.083   .     S
C551   O591    1.308   .     A
C551   O594    1.308   .     A
C552   H576    1.109   .     S
C552   H574    1.083   .     S
C552   H575    1.108   .     S
C552   C557    1.521   .     S
C553   O593    1.308   .     A
C553   O592    1.308   .     A
C554   N586    1.381   .     A
C555   N585    1.381   .     A
C555   C160    1.430   1_565 S
C556   N586    1.381   .     A
C557   N585    1.381   .     A
C557   C158    1.430   1_565 S
C558   Cl570   1.777   .     S
Cu571  O587    1.984   .     S
Cu571  O593    1.947   .     S
Cu571  O591    1.947   .     S
Cu571  Cu572   2.703   .     S
Cu571  O589    1.984   .     S
Cu571  N585    2.032   .     S
Cu572  O594    1.947   .     S
Cu572  O592    1.947   .     S
Cu572  O588    1.984   .     S
Cu572  O590    1.984   .     S
Cu572  N586    2.032   .     S
C595   O656    1.305   .     A
C595   O653    1.305   .     A
C595   C613    1.474   .     S
C596   C612    1.415   .     A
C596   Cl626   1.777   .     S
C596   C664    1.392   .     S
C597   Cl627   1.777   .     S
C597   C612    1.415   .     A
C597   C690    1.392   .     S
C598   Cl628   1.777   .     S
C598   C613    1.415   .     A
C598   C728    1.392   1_455 S
C599   C603    1.403   .     A
C599   C610    1.410   .     A
C599   Cl625   1.774   .     S
C600   C604    1.403   .     A
C600   Cl629   1.774   .     S
C600   C611    1.410   .     A
C601   Cl630   1.774   .     S
C601   C605    1.403   .     A
C601   C611    1.410   .     A
C602   C610    1.410   .     A
C602   Cl631   1.774   .     S
C602   C607    1.403   .     A
C603   C608    1.422   .     A
C603   Cl632   1.772   .     S
C604   C609    1.423   .     A
C604   Cl633   1.772   .     S
C605   Cl634   1.772   .     S
C605   C609    1.422   .     A
C606   O655    1.305   .     A
C606   O654    1.305   .     A
C606   C612    1.474   .     S
C607   C608    1.422   .     A
C607   Cl635   1.772   .     S
C608   C617    1.490   .     S
C609   C619    1.490   .     S
C611   C16     1.511   1_556 S
C613   C624    1.415   .     A
C614   H639    1.083   .     S
C614   H643    1.109   .     S
C614   C620    1.521   .     S
C614   H644    1.107   .     S
C615   C621    1.521   .     S
C615   H647    1.109   .     S
C615   H645    1.083   .     S
C615   H646    1.107   .     S
C616   H649    1.109   .     S
C616   C622    1.521   .     S
C616   H650    1.108   .     S
C616   H648    1.083   .     S
C617   O657    1.308   .     A
C617   O660    1.308   .     A
C618   H642    1.109   .     S
C618   H640    1.083   .     S
C618   H641    1.108   .     S
C618   C623    1.521   .     S
C619   O659    1.308   .     A
C619   O658    1.308   .     A
C620   N652    1.381   .     A
C620   C1019   1.430   1_545 S
C621   N651    1.381   .     A
C621   C820    1.430   .     S
C622   N652    1.381   .     A
C622   C1017   1.430   1_545 S
C623   N651    1.381   .     A
C623   C818    1.430   .     S
C624   Cl636   1.777   .     S
C624   C729    1.392   1_455 S
Cu637  O653    1.984   .     S
Cu637  O659    1.947   .     S
Cu637  O657    1.947   .     S
Cu637  Cu638   2.703   .     S
Cu637  O655    1.984   .     S
Cu637  N651    2.032   .     S
Cu638  O660    1.947   .     S
Cu638  O658    1.947   .     S
Cu638  O654    1.984   .     S
Cu638  O656    1.984   .     S
Cu638  N652    2.032   .     S
C661   O722    1.305   .     A
C661   O719    1.305   .     A
C661   C679    1.474   .     S
C662   C678    1.415   .     A
C662   Cl692   1.777   .     S
C662   C730    1.392   .     S
C663   Cl693   1.777   .     S
C663   C678    1.415   .     A
C663   C756    1.392   .     S
C664   Cl694   1.777   .     S
C664   C679    1.415   .     A
C665   C669    1.403   .     A
C665   C676    1.410   .     A
C665   Cl691   1.774   .     S
C666   C670    1.403   .     A
C666   Cl695   1.774   .     S
C666   C677    1.410   .     A
C667   Cl696   1.774   .     S
C667   C671    1.403   .     A
C667   C677    1.410   .     A
C668   C676    1.410   .     A
C668   Cl697   1.774   .     S
C668   C673    1.403   .     A
C669   C674    1.422   .     A
C669   Cl698   1.772   .     S
C670   C675    1.423   .     A
C670   Cl699   1.772   .     S
C671   Cl700   1.772   .     S
C671   C675    1.422   .     A
C672   O721    1.305   .     A
C672   O720    1.305   .     A
C672   C678    1.474   .     S
C673   C674    1.422   .     A
C673   Cl701   1.772   .     S
C674   C683    1.490   .     S
C675   C685    1.490   .     S
C677   C82     1.511   1_556 S
C679   C690    1.415   .     A
C680   H705    1.083   .     S
C680   H709    1.109   .     S
C680   C686    1.521   .     S
C680   H710    1.107   .     S
C681   C687    1.521   .     S
C681   H713    1.109   .     S
C681   H711    1.083   .     S
C681   H712    1.107   .     S
C682   H715    1.109   .     S
C682   C688    1.521   .     S
C682   H716    1.108   .     S
C682   H714    1.083   .     S
C683   O723    1.308   .     A
C683   O726    1.308   .     A
C684   H708    1.109   .     S
C684   H706    1.083   .     S
C684   H707    1.108   .     S
C684   C689    1.521   .     S
C685   O725    1.308   .     A
C685   O724    1.308   .     A
C686   N718    1.381   .     A
C686   C1085   1.430   1_545 S
C687   N717    1.381   .     A
C687   C886    1.430   .     S
C688   N718    1.381   .     A
C688   C1083   1.430   1_545 S
C689   N717    1.381   .     A
C689   C884    1.430   .     S
C690   Cl702   1.777   .     S
Cu703  O719    1.984   .     S
Cu703  O725    1.947   .     S
Cu703  O723    1.947   .     S
Cu703  Cu704   2.703   .     S
Cu703  O721    1.984   .     S
Cu703  N717    2.032   .     S
Cu704  O726    1.947   .     S
Cu704  O724    1.947   .     S
Cu704  O720    1.984   .     S
Cu704  O722    1.984   .     S
Cu704  N718    2.032   .     S
C727   O788    1.305   .     A
C727   O785    1.305   .     A
C727   C745    1.474   .     S
C728   C744    1.415   .     A
C728   Cl758   1.777   .     S
C728   C598    1.392   1_655 S
C729   Cl759   1.777   .     S
C729   C744    1.415   .     A
C729   C624    1.392   1_655 S
C730   Cl760   1.777   .     S
C730   C745    1.415   .     A
C731   C735    1.403   .     A
C731   C742    1.410   .     A
C731   Cl757   1.774   .     S
C732   C736    1.403   .     A
C732   Cl761   1.774   .     S
C732   C743    1.410   .     A
C733   Cl762   1.774   .     S
C733   C737    1.403   .     A
C733   C743    1.410   .     A
C734   C742    1.410   .     A
C734   Cl763   1.774   .     S
C734   C739    1.403   .     A
C735   C740    1.422   .     A
C735   Cl764   1.772   .     S
C736   C741    1.423   .     A
C736   Cl765   1.772   .     S
C737   Cl766   1.772   .     S
C737   C741    1.422   .     A
C738   O787    1.305   .     A
C738   O786    1.305   .     A
C738   C744    1.474   .     S
C739   C740    1.422   .     A
C739   Cl767   1.772   .     S
C740   C749    1.490   .     S
C741   C751    1.490   .     S
C743   C148    1.511   1_556 S
C745   C756    1.415   .     A
C746   H771    1.083   .     S
C746   H775    1.109   .     S
C746   C752    1.521   .     S
C746   H776    1.107   .     S
C747   C753    1.521   .     S
C747   H779    1.109   .     S
C747   H777    1.083   .     S
C747   H778    1.107   .     S
C748   H781    1.109   .     S
C748   C754    1.521   .     S
C748   H782    1.108   .     S
C748   H780    1.083   .     S
C749   O789    1.308   .     A
C749   O792    1.308   .     A
C750   H774    1.109   .     S
C750   H772    1.083   .     S
C750   H773    1.108   .     S
C750   C755    1.521   .     S
C751   O791    1.308   .     A
C751   O790    1.308   .     A
C752   N784    1.381   .     A
C752   C1151   1.430   1_545 S
C753   N783    1.381   .     A
C753   C952    1.430   .     S
C754   N784    1.381   .     A
C754   C1149   1.430   1_545 S
C755   N783    1.381   .     A
C755   C950    1.430   .     S
C756   Cl768   1.777   .     S
Cu769  O785    1.984   .     S
Cu769  O791    1.947   .     S
Cu769  O789    1.947   .     S
Cu769  Cu770   2.703   .     S
Cu769  O787    1.984   .     S
Cu769  N783    2.032   .     S
Cu770  O792    1.947   .     S
Cu770  O790    1.947   .     S
Cu770  O786    1.984   .     S
Cu770  O788    1.984   .     S
Cu770  N784    2.032   .     S
C793   O854    1.305   .     A
C793   O851    1.305   .     A
C793   C811    1.474   .     S
C794   C810    1.415   .     A
C794   Cl824   1.777   .     S
C794   C862    1.392   .     S
C795   Cl825   1.777   .     S
C795   C810    1.415   .     A
C795   C888    1.392   .     S
C796   Cl826   1.777   .     S
C796   C811    1.415   .     A
C796   C926    1.392   1_455 S
C797   C801    1.403   .     A
C797   C808    1.410   .     A
C797   Cl823   1.774   .     S
C798   C802    1.403   .     A
C798   Cl827   1.774   .     S
C798   C809    1.410   .     A
C799   Cl828   1.774   .     S
C799   C803    1.403   .     A
C799   C809    1.410   .     A
C800   C808    1.410   .     A
C800   Cl829   1.774   .     S
C800   C805    1.403   .     A
C801   C806    1.422   .     A
C801   Cl830   1.772   .     S
C802   C807    1.423   .     A
C802   Cl831   1.772   .     S
C803   Cl832   1.772   .     S
C803   C807    1.422   .     A
C804   O853    1.305   .     A
C804   O852    1.305   .     A
C804   C810    1.474   .     S
C805   C806    1.422   .     A
C805   Cl833   1.772   .     S
C806   C815    1.490   .     S
C807   C817    1.490   .     S
C809   C214    1.511   1_556 S
C811   C822    1.415   .     A
C812   H837    1.083   .     S
C812   H841    1.109   .     S
C812   C818    1.521   .     S
C812   H842    1.107   .     S
C813   C819    1.521   .     S
C813   H845    1.109   .     S
C813   H843    1.083   .     S
C813   H844    1.107   .     S
C814   H847    1.109   .     S
C814   C820    1.521   .     S
C814   H848    1.108   .     S
C814   H846    1.083   .     S
C815   O855    1.308   .     A
C815   O858    1.308   .     A
C816   H840    1.109   .     S
C816   H838    1.083   .     S
C816   H839    1.108   .     S
C816   C821    1.521   .     S
C817   O857    1.308   .     A
C817   O856    1.308   .     A
C818   N850    1.381   .     A
C819   N849    1.381   .     A
C819   C1018   1.430   .     S
C820   N850    1.381   .     A
C821   N849    1.381   .     A
C821   C1016   1.430   .     S
C822   Cl834   1.777   .     S
C822   C927    1.392   1_455 S
Cu835  O851    1.984   .     S
Cu835  O857    1.947   .     S
Cu835  O855    1.947   .     S
Cu835  Cu836   2.703   .     S
Cu835  O853    1.984   .     S
Cu835  N849    2.032   .     S
Cu836  O858    1.947   .     S
Cu836  O856    1.947   .     S
Cu836  O852    1.984   .     S
Cu836  O854    1.984   .     S
Cu836  N850    2.032   .     S
C859   O920    1.305   .     A
C859   O917    1.305   .     A
C859   C877    1.474   .     S
C860   C876    1.415   .     A
C860   Cl890   1.777   .     S
C860   C928    1.392   .     S
C861   Cl891   1.777   .     S
C861   C876    1.415   .     A
C861   C954    1.392   .     S
C862   Cl892   1.777   .     S
C862   C877    1.415   .     A
C863   C867    1.403   .     A
C863   C874    1.410   .     A
C863   Cl889   1.774   .     S
C864   C868    1.403   .     A
C864   Cl893   1.774   .     S
C864   C875    1.410   .     A
C865   Cl894   1.774   .     S
C865   C869    1.403   .     A
C865   C875    1.410   .     A
C866   C874    1.410   .     A
C866   Cl895   1.774   .     S
C866   C871    1.403   .     A
C867   C872    1.422   .     A
C867   Cl896   1.772   .     S
C868   C873    1.423   .     A
C868   Cl897   1.772   .     S
C869   Cl898   1.772   .     S
C869   C873    1.422   .     A
C870   O919    1.305   .     A
C870   O918    1.305   .     A
C870   C876    1.474   .     S
C871   C872    1.422   .     A
C871   Cl899   1.772   .     S
C872   C881    1.490   .     S
C873   C883    1.490   .     S
C875   C280    1.511   1_556 S
C877   C888    1.415   .     A
C878   H903    1.083   .     S
C878   H907    1.109   .     S
C878   C884    1.521   .     S
C878   H908    1.107   .     S
C879   C885    1.521   .     S
C879   H911    1.109   .     S
C879   H909    1.083   .     S
C879   H910    1.107   .     S
C880   H913    1.109   .     S
C880   C886    1.521   .     S
C880   H914    1.108   .     S
C880   H912    1.083   .     S
C881   O921    1.308   .     A
C881   O924    1.308   .     A
C882   H906    1.109   .     S
C882   H904    1.083   .     S
C882   H905    1.108   .     S
C882   C887    1.521   .     S
C883   O923    1.308   .     A
C883   O922    1.308   .     A
C884   N916    1.381   .     A
C885   N915    1.381   .     A
C885   C1084   1.430   .     S
C886   N916    1.381   .     A
C887   N915    1.381   .     A
C887   C1082   1.430   .     S
C888   Cl900   1.777   .     S
Cu901  O917    1.984   .     S
Cu901  O923    1.947   .     S
Cu901  O921    1.947   .     S
Cu901  Cu902   2.703   .     S
Cu901  O919    1.984   .     S
Cu901  N915    2.032   .     S
Cu902  O924    1.947   .     S
Cu902  O922    1.947   .     S
Cu902  O918    1.984   .     S
Cu902  O920    1.984   .     S
Cu902  N916    2.032   .     S
C925   O986    1.305   .     A
C925   O983    1.305   .     A
C925   C943    1.474   .     S
C926   C942    1.415   .     A
C926   Cl956   1.777   .     S
C926   C796    1.392   1_655 S
C927   Cl957   1.777   .     S
C927   C942    1.415   .     A
C927   C822    1.392   1_655 S
C928   Cl958   1.777   .     S
C928   C943    1.415   .     A
C929   C933    1.403   .     A
C929   C940    1.410   .     A
C929   Cl955   1.774   .     S
C930   C934    1.403   .     A
C930   Cl959   1.774   .     S
C930   C941    1.410   .     A
C931   Cl960   1.774   .     S
C931   C935    1.403   .     A
C931   C941    1.410   .     A
C932   C940    1.410   .     A
C932   Cl961   1.774   .     S
C932   C937    1.403   .     A
C933   C938    1.422   .     A
C933   Cl962   1.772   .     S
C934   C939    1.423   .     A
C934   Cl963   1.772   .     S
C935   Cl964   1.772   .     S
C935   C939    1.422   .     A
C936   O985    1.305   .     A
C936   O984    1.305   .     A
C936   C942    1.474   .     S
C937   C938    1.422   .     A
C937   Cl965   1.772   .     S
C938   C947    1.490   .     S
C939   C949    1.490   .     S
C941   C346    1.511   1_556 S
C943   C954    1.415   .     A
C944   H969    1.083   .     S
C944   H973    1.109   .     S
C944   C950    1.521   .     S
C944   H974    1.107   .     S
C945   C951    1.521   .     S
C945   H977    1.109   .     S
C945   H975    1.083   .     S
C945   H976    1.107   .     S
C946   H979    1.109   .     S
C946   C952    1.521   .     S
C946   H980    1.108   .     S
C946   H978    1.083   .     S
C947   O987    1.308   .     A
C947   O990    1.308   .     A
C948   H972    1.109   .     S
C948   H970    1.083   .     S
C948   H971    1.108   .     S
C948   C953    1.521   .     S
C949   O989    1.308   .     A
C949   O988    1.308   .     A
C950   N982    1.381   .     A
C951   N981    1.381   .     A
C951   C1150   1.430   .     S
C952   N982    1.381   .     A
C953   N981    1.381   .     A
C953   C1148   1.430   .     S
C954   Cl966   1.777   .     S
Cu967  O983    1.984   .     S
Cu967  O989    1.947   .     S
Cu967  O987    1.947   .     S
Cu967  Cu968   2.703   .     S
Cu967  O985    1.984   .     S
Cu967  N981    2.032   .     S
Cu968  O990    1.947   .     S
Cu968  O988    1.947   .     S
Cu968  O984    1.984   .     S
Cu968  O986    1.984   .     S
Cu968  N982    2.032   .     S
C991   O1052   1.305   .     A
C991   O1049   1.305   .     A
C991   C1009   1.474   .     S
C992   C1008   1.415   .     A
C992   Cl1022  1.777   .     S
C992   C1060   1.392   .     S
C993   Cl1023  1.777   .     S
C993   C1008   1.415   .     A
C993   C1086   1.392   .     S
C994   Cl1024  1.777   .     S
C994   C1009   1.415   .     A
C994   C1124   1.392   1_455 S
C995   C999    1.403   .     A
C995   C1006   1.410   .     A
C995   Cl1021  1.774   .     S
C996   C1000   1.403   .     A
C996   Cl1025  1.774   .     S
C996   C1007   1.410   .     A
C997   Cl1026  1.774   .     S
C997   C1001   1.403   .     A
C997   C1007   1.410   .     A
C998   C1006   1.410   .     A
C998   Cl1027  1.774   .     S
C998   C1003   1.403   .     A
C999   C1004   1.422   .     A
C999   Cl1028  1.772   .     S
C1000  C1005   1.423   .     A
C1000  Cl1029  1.772   .     S
C1001  Cl1030  1.772   .     S
C1001  C1005   1.422   .     A
C1002  O1051   1.305   .     A
C1002  O1050   1.305   .     A
C1002  C1008   1.474   .     S
C1003  C1004   1.422   .     A
C1003  Cl1031  1.772   .     S
C1004  C1013   1.490   .     S
C1005  C1015   1.490   .     S
C1007  C412    1.511   1_556 S
C1009  C1020   1.415   .     A
C1010  H1035   1.083   .     S
C1010  H1039   1.109   .     S
C1010  C1016   1.521   .     S
C1010  H1040   1.107   .     S
C1011  C1017   1.521   .     S
C1011  H1043   1.109   .     S
C1011  H1041   1.083   .     S
C1011  H1042   1.107   .     S
C1012  H1045   1.109   .     S
C1012  C1018   1.521   .     S
C1012  H1046   1.108   .     S
C1012  H1044   1.083   .     S
C1013  O1053   1.308   .     A
C1013  O1056   1.308   .     A
C1014  H1038   1.109   .     S
C1014  H1036   1.083   .     S
C1014  H1037   1.108   .     S
C1014  C1019   1.521   .     S
C1015  O1055   1.308   .     A
C1015  O1054   1.308   .     A
C1016  N1048   1.381   .     A
C1017  N1047   1.381   .     A
C1017  C622    1.430   1_565 S
C1018  N1048   1.381   .     A
C1019  N1047   1.381   .     A
C1019  C620    1.430   1_565 S
C1020  Cl1032  1.777   .     S
C1020  C1125   1.392   1_455 S
Cu1033 O1049   1.984   .     S
Cu1033 O1055   1.947   .     S
Cu1033 O1053   1.947   .     S
Cu1033 Cu1034  2.703   .     S
Cu1033 O1051   1.984   .     S
Cu1033 N1047   2.032   .     S
Cu1034 O1056   1.947   .     S
Cu1034 O1054   1.947   .     S
Cu1034 O1050   1.984   .     S
Cu1034 O1052   1.984   .     S
Cu1034 N1048   2.032   .     S
C1057  O1118   1.305   .     A
C1057  O1115   1.305   .     A
C1057  C1075   1.474   .     S
C1058  C1074   1.415   .     A
C1058  Cl1088  1.777   .     S
C1058  C1126   1.392   .     S
C1059  Cl1089  1.777   .     S
C1059  C1074   1.415   .     A
C1059  C1152   1.392   .     S
C1060  Cl1090  1.777   .     S
C1060  C1075   1.415   .     A
C1061  C1065   1.403   .     A
C1061  C1072   1.410   .     A
C1061  Cl1087  1.774   .     S
C1062  C1066   1.403   .     A
C1062  Cl1091  1.774   .     S
C1062  C1073   1.410   .     A
C1063  Cl1092  1.774   .     S
C1063  C1067   1.403   .     A
C1063  C1073   1.410   .     A
C1064  C1072   1.410   .     A
C1064  Cl1093  1.774   .     S
C1064  C1069   1.403   .     A
C1065  C1070   1.422   .     A
C1065  Cl1094  1.772   .     S
C1066  C1071   1.423   .     A
C1066  Cl1095  1.772   .     S
C1067  Cl1096  1.772   .     S
C1067  C1071   1.422   .     A
C1068  O1117   1.305   .     A
C1068  O1116   1.305   .     A
C1068  C1074   1.474   .     S
C1069  C1070   1.422   .     A
C1069  Cl1097  1.772   .     S
C1070  C1079   1.490   .     S
C1071  C1081   1.490   .     S
C1073  C478    1.511   1_556 S
C1075  C1086   1.415   .     A
C1076  H1101   1.083   .     S
C1076  H1105   1.109   .     S
C1076  C1082   1.521   .     S
C1076  H1106   1.107   .     S
C1077  C1083   1.521   .     S
C1077  H1109   1.109   .     S
C1077  H1107   1.083   .     S
C1077  H1108   1.107   .     S
C1078  H1111   1.109   .     S
C1078  C1084   1.521   .     S
C1078  H1112   1.108   .     S
C1078  H1110   1.083   .     S
C1079  O1119   1.308   .     A
C1079  O1122   1.308   .     A
C1080  H1104   1.109   .     S
C1080  H1102   1.083   .     S
C1080  H1103   1.108   .     S
C1080  C1085   1.521   .     S
C1081  O1121   1.308   .     A
C1081  O1120   1.308   .     A
C1082  N1114   1.381   .     A
C1083  N1113   1.381   .     A
C1083  C688    1.430   1_565 S
C1084  N1114   1.381   .     A
C1085  N1113   1.381   .     A
C1085  C686    1.430   1_565 S
C1086  Cl1098  1.777   .     S
Cu1099 O1115   1.984   .     S
Cu1099 O1121   1.947   .     S
Cu1099 O1119   1.947   .     S
Cu1099 Cu1100  2.703   .     S
Cu1099 O1117   1.984   .     S
Cu1099 N1113   2.032   .     S
Cu1100 O1122   1.947   .     S
Cu1100 O1120   1.947   .     S
Cu1100 O1116   1.984   .     S
Cu1100 O1118   1.984   .     S
Cu1100 N1114   2.032   .     S
C1123  O1184   1.305   .     A
C1123  O1181   1.305   .     A
C1123  C1141   1.474   .     S
C1124  C1140   1.415   .     A
C1124  Cl1154  1.777   .     S
C1124  C994    1.392   1_655 S
C1125  Cl1155  1.777   .     S
C1125  C1140   1.415   .     A
C1125  C1020   1.392   1_655 S
C1126  Cl1156  1.777   .     S
C1126  C1141   1.415   .     A
C1127  C1131   1.403   .     A
C1127  C1138   1.410   .     A
C1127  Cl1153  1.774   .     S
C1128  C1132   1.403   .     A
C1128  Cl1157  1.774   .     S
C1128  C1139   1.410   .     A
C1129  Cl1158  1.774   .     S
C1129  C1133   1.403   .     A
C1129  C1139   1.410   .     A
C1130  C1138   1.410   .     A
C1130  Cl1159  1.774   .     S
C1130  C1135   1.403   .     A
C1131  C1136   1.422   .     A
C1131  Cl1160  1.772   .     S
C1132  C1137   1.423   .     A
C1132  Cl1161  1.772   .     S
C1133  Cl1162  1.772   .     S
C1133  C1137   1.422   .     A
C1134  O1183   1.305   .     A
C1134  O1182   1.305   .     A
C1134  C1140   1.474   .     S
C1135  C1136   1.422   .     A
C1135  Cl1163  1.772   .     S
C1136  C1145   1.490   .     S
C1137  C1147   1.490   .     S
C1139  C544    1.511   1_556 S
C1141  C1152   1.415   .     A
C1142  H1167   1.083   .     S
C1142  H1171   1.109   .     S
C1142  C1148   1.521   .     S
C1142  H1172   1.107   .     S
C1143  C1149   1.521   .     S
C1143  H1175   1.109   .     S
C1143  H1173   1.083   .     S
C1143  H1174   1.107   .     S
C1144  H1177   1.109   .     S
C1144  C1150   1.521   .     S
C1144  H1178   1.108   .     S
C1144  H1176   1.083   .     S
C1145  O1185   1.308   .     A
C1145  O1188   1.308   .     A
C1146  H1170   1.109   .     S
C1146  H1168   1.083   .     S
C1146  H1169   1.108   .     S
C1146  C1151   1.521   .     S
C1147  O1187   1.308   .     A
C1147  O1186   1.308   .     A
C1148  N1180   1.381   .     A
C1149  N1179   1.381   .     A
C1149  C754    1.430   1_565 S
C1150  N1180   1.381   .     A
C1151  N1179   1.381   .     A
C1151  C752    1.430   1_565 S
C1152  Cl1164  1.777   .     S
Cu1165 O1181   1.984   .     S
Cu1165 O1187   1.947   .     S
Cu1165 O1185   1.947   .     S
Cu1165 Cu1166  2.703   .     S
Cu1165 O1183   1.984   .     S
Cu1165 N1179   2.032   .     S
Cu1166 O1188   1.947   .     S
Cu1166 O1186   1.947   .     S
Cu1166 O1182   1.984   .     S
Cu1166 O1184   1.984   .     S
Cu1166 N1180   2.032   .     S
