data_str_m3_o2_o10_pcu_sym.35
_audit_creation_date              2020-01-03
_audit_creation_method            'Materials Studio'
_symmetry_space_group_name_H-M    'P1'
_symmetry_Int_Tables_number       1
_symmetry_cell_setting            triclinic
loop_
_symmetry_equiv_pos_as_xyz
  x,y,z
_cell_length_a                    25.7601
_cell_length_b                    29.8827
_cell_length_c                    28.4933
_cell_angle_alpha                 91.0839
_cell_angle_beta                  99.2175
_cell_angle_gamma                 90.6108
loop_
_atom_site_label
_atom_site_type_symbol
_atom_site_fract_x
_atom_site_fract_y
_atom_site_fract_z
_atom_site_U_iso_or_equiv
_atom_site_adp_type
_atom_site_occupancy
C1     C     0.16682   0.16395   0.24963   0.00000  Uiso   1.00
C2     C     0.12285   0.23199   0.44012   0.00000  Uiso   1.00
C3     C     0.16339   0.25304   0.02621   0.00000  Uiso   1.00
C4     C     0.16319   0.25289   0.47294   0.00000  Uiso   1.00
C5     C     0.06700   0.24994   0.23745   0.00000  Uiso   1.00
C6     C     0.26633   0.25005   0.26255   0.00000  Uiso   1.00
C7     C     0.01182   0.24992   0.23081   0.00000  Uiso   1.00
C8     C     0.32151   0.25007   0.26921   0.00000  Uiso   1.00
C9     C     0.14619   0.04613   0.28052   0.00000  Uiso   1.00
C10    C     0.14669   0.45331   0.21294   0.00000  Uiso   1.00
C11    C     0.14298   0.09213   0.28006   0.00000  Uiso   1.00
C12    C     0.16695   0.33607   0.25042   0.00000  Uiso   1.00
C13    C     0.14349   0.40724   0.21266   0.00000  Uiso   1.00
C14    C     0.16924   0.11607   0.24921   0.00000  Uiso   1.00
C15    C     0.16938   0.38404   0.25140   0.00000  Uiso   1.00
C16    C     0.19940   0.09438   0.21924   0.00000  Uiso   1.00
C17    C     0.19926   0.40660   0.29016   0.00000  Uiso   1.00
C18    C     0.20389   0.04807   0.22018   0.00000  Uiso   1.00
C19    C     0.20373   0.45300   0.29035   0.00000  Uiso   1.00
C20    C     0.17663   0.02424   0.25103   0.00000  Uiso   1.00
C21    C     0.17676   0.47606   0.25136   0.00000  Uiso   1.00
C22    C     0.23808   0.02484   0.18927   0.00000  Uiso   1.00
C23    C     0.13930   0.21810   0.04711   0.00000  Uiso   1.00
C24    C     0.23758   0.47719   0.33129   0.00000  Uiso   1.00
C25    C     0.11316   0.17843   0.11581   0.00000  Uiso   1.00
C26    C     0.25197   0.29377   0.38823   0.00000  Uiso   1.00
C27    C     0.20485   0.27245   0.45427   0.00000  Uiso   1.00
C28    C     0.14053   0.21704   0.09671   0.00000  Uiso   1.00
C29    C     0.20603   0.27139   0.40498   0.00000  Uiso   1.00
C30    C     0.19046   0.28448   0.10679   0.00000  Uiso   1.00
C31    C     0.12552   0.23069   0.39102   0.00000  Uiso   1.00
C32    C     0.18905   0.28679   0.05717   0.00000  Uiso   1.00
H33    H     0.32416   0.24978   0.19450   0.00000  Uiso   1.00
H34    H     0.12030   0.38975   0.18264   0.00000  Uiso   1.00
H35    H     0.22020   0.11365   0.19607   0.00000  Uiso   1.00
H36    H     0.21984   0.38798   0.31956   0.00000  Uiso   1.00
H37    H     0.26833   0.00499   0.21172   0.00000  Uiso   1.00
H38    H     0.21374   0.00222   0.16302   0.00000  Uiso   1.00
H39    H     0.25862   0.04915   0.16933   0.00000  Uiso   1.00
H40    H     0.26794   0.49775   0.31776   0.00000  Uiso   1.00
H41    H     0.21302   0.49925   0.35022   0.00000  Uiso   1.00
H42    H     0.25799   0.45346   0.35737   0.00000  Uiso   1.00
H43    H     0.08911   0.18999   0.14233   0.00000  Uiso   1.00
H44    H     0.00917   0.25021   0.30553   0.00000  Uiso   1.00
H45    H     0.08575   0.16070   0.08722   0.00000  Uiso   1.00
H46    H     0.14258   0.15366   0.13100   0.00000  Uiso   1.00
H47    H     0.23880   0.31445   0.35698   0.00000  Uiso   1.00
H48    H     0.27347   0.31672   0.41601   0.00000  Uiso   1.00
H49    H     0.28032   0.26814   0.38032   0.00000  Uiso   1.00
H50    H     0.20762   0.31523   0.04338   0.00000  Uiso   1.00
H51    H     0.08894   0.21698   0.45196   0.00000  Uiso   1.00
H52    H     0.12043   0.19080   0.02506   0.00000  Uiso   1.00
H53    H     0.23743   0.28778   0.47805   0.00000  Uiso   1.00
H54    H     0.21032   0.31074   0.12974   0.00000  Uiso   1.00
H55    H     0.09416   0.21446   0.36664   0.00000  Uiso   1.00
H56    H     0.12482   0.02745   0.30371   0.00000  Uiso   1.00
H57    H     0.12554   0.47138   0.18336   0.00000  Uiso   1.00
H58    H     0.11953   0.10897   0.30319   0.00000  Uiso   1.00
N59    N     0.16667   0.24999   0.12623   0.00000  Uiso   1.00
N60    N     0.16667   0.25001   0.37376   0.00000  Uiso   1.00
O61    O     0.16667   0.18453   0.28974   0.00000  Uiso   1.00
O62    O     0.16666   0.31546   0.21026   0.00000  Uiso   1.00
O63    O     0.16667   0.18453   0.21026   0.00000  Uiso   1.00
O64    O     0.16666   0.31547   0.28974   0.00000  Uiso   1.00
O65    O     0.09058   0.25000   0.28044   0.00000  Uiso   1.00
O66    O     0.24275   0.25000   0.21955   0.00000  Uiso   1.00
O67    O     0.09058   0.24999   0.20096   0.00000  Uiso   1.00
O68    O     0.24275   0.25000   0.29903   0.00000  Uiso   1.00
Zn69   Zn    0.16667   0.25000   0.30307   0.00000  Uiso   1.00
Zn70   Zn    0.16667   0.24999   0.19693   0.00000  Uiso   1.00
C71    C     0.50015   0.16395   0.24963   0.00000  Uiso   1.00
C72    C     0.45618   0.23199   0.44012   0.00000  Uiso   1.00
C73    C     0.49672   0.25304   0.02621   0.00000  Uiso   1.00
C74    C     0.49652   0.25289   0.47294   0.00000  Uiso   1.00
C75    C     0.40034   0.24994   0.23745   0.00000  Uiso   1.00
C76    C     0.59966   0.25005   0.26255   0.00000  Uiso   1.00
C77    C     0.34515   0.24992   0.23081   0.00000  Uiso   1.00
C78    C     0.65485   0.25007   0.26921   0.00000  Uiso   1.00
C79    C     0.47952   0.04613   0.28052   0.00000  Uiso   1.00
C80    C     0.48003   0.45331   0.21294   0.00000  Uiso   1.00
C81    C     0.47632   0.09213   0.28006   0.00000  Uiso   1.00
C82    C     0.50029   0.33607   0.25042   0.00000  Uiso   1.00
C83    C     0.47683   0.40724   0.21266   0.00000  Uiso   1.00
C84    C     0.50257   0.11607   0.24921   0.00000  Uiso   1.00
C85    C     0.50271   0.38404   0.25140   0.00000  Uiso   1.00
C86    C     0.53274   0.09438   0.21924   0.00000  Uiso   1.00
C87    C     0.53259   0.40660   0.29016   0.00000  Uiso   1.00
C88    C     0.53722   0.04807   0.22018   0.00000  Uiso   1.00
C89    C     0.53706   0.45300   0.29035   0.00000  Uiso   1.00
C90    C     0.50997   0.02424   0.25103   0.00000  Uiso   1.00
C91    C     0.51010   0.47606   0.25136   0.00000  Uiso   1.00
C92    C     0.57141   0.02484   0.18927   0.00000  Uiso   1.00
C93    C     0.47264   0.21810   0.04711   0.00000  Uiso   1.00
C94    C     0.57092   0.47719   0.33129   0.00000  Uiso   1.00
C95    C     0.44650   0.17843   0.11581   0.00000  Uiso   1.00
C96    C     0.58531   0.29377   0.38823   0.00000  Uiso   1.00
C97    C     0.53818   0.27245   0.45427   0.00000  Uiso   1.00
C98    C     0.47387   0.21704   0.09671   0.00000  Uiso   1.00
C99    C     0.53936   0.27139   0.40498   0.00000  Uiso   1.00
C100   C     0.52380   0.28448   0.10679   0.00000  Uiso   1.00
C101   C     0.45886   0.23069   0.39102   0.00000  Uiso   1.00
C102   C     0.52239   0.28679   0.05717   0.00000  Uiso   1.00
H103   H     0.65749   0.24978   0.19450   0.00000  Uiso   1.00
H104   H     0.45363   0.38975   0.18264   0.00000  Uiso   1.00
H105   H     0.55354   0.11365   0.19607   0.00000  Uiso   1.00
H106   H     0.55317   0.38798   0.31956   0.00000  Uiso   1.00
H107   H     0.60167   0.00499   0.21172   0.00000  Uiso   1.00
H108   H     0.54708   0.00222   0.16302   0.00000  Uiso   1.00
H109   H     0.59196   0.04915   0.16933   0.00000  Uiso   1.00
H110   H     0.60128   0.49775   0.31776   0.00000  Uiso   1.00
H111   H     0.54636   0.49925   0.35022   0.00000  Uiso   1.00
H112   H     0.59132   0.45346   0.35737   0.00000  Uiso   1.00
H113   H     0.42244   0.18999   0.14233   0.00000  Uiso   1.00
H114   H     0.34250   0.25021   0.30553   0.00000  Uiso   1.00
H115   H     0.41908   0.16070   0.08722   0.00000  Uiso   1.00
H116   H     0.47591   0.15366   0.13100   0.00000  Uiso   1.00
H117   H     0.57213   0.31445   0.35698   0.00000  Uiso   1.00
H118   H     0.60680   0.31672   0.41601   0.00000  Uiso   1.00
H119   H     0.61365   0.26814   0.38032   0.00000  Uiso   1.00
H120   H     0.54095   0.31523   0.04338   0.00000  Uiso   1.00
H121   H     0.42227   0.21698   0.45196   0.00000  Uiso   1.00
H122   H     0.45376   0.19080   0.02506   0.00000  Uiso   1.00
H123   H     0.57076   0.28778   0.47805   0.00000  Uiso   1.00
H124   H     0.54366   0.31074   0.12974   0.00000  Uiso   1.00
H125   H     0.42749   0.21446   0.36664   0.00000  Uiso   1.00
H126   H     0.45815   0.02745   0.30371   0.00000  Uiso   1.00
H127   H     0.45888   0.47138   0.18336   0.00000  Uiso   1.00
H128   H     0.45286   0.10897   0.30319   0.00000  Uiso   1.00
N129   N     0.50000   0.24999   0.12623   0.00000  Uiso   1.00
N130   N     0.50000   0.25001   0.37376   0.00000  Uiso   1.00
O131   O     0.50000   0.18453   0.28974   0.00000  Uiso   1.00
O132   O     0.50000   0.31546   0.21026   0.00000  Uiso   1.00
O133   O     0.50000   0.18453   0.21026   0.00000  Uiso   1.00
O134   O     0.50000   0.31547   0.28974   0.00000  Uiso   1.00
O135   O     0.42392   0.25000   0.28044   0.00000  Uiso   1.00
O136   O     0.57608   0.25000   0.21955   0.00000  Uiso   1.00
O137   O     0.42392   0.24999   0.20096   0.00000  Uiso   1.00
O138   O     0.57608   0.25000   0.29903   0.00000  Uiso   1.00
Zn139  Zn    0.50000   0.25000   0.30307   0.00000  Uiso   1.00
Zn140  Zn    0.50000   0.24999   0.19693   0.00000  Uiso   1.00
C141   C     0.83349   0.16395   0.24963   0.00000  Uiso   1.00
C142   C     0.78951   0.23199   0.44012   0.00000  Uiso   1.00
C143   C     0.83005   0.25304   0.02621   0.00000  Uiso   1.00
C144   C     0.82985   0.25289   0.47294   0.00000  Uiso   1.00
C145   C     0.73367   0.24994   0.23745   0.00000  Uiso   1.00
C146   C     0.93300   0.25005   0.26255   0.00000  Uiso   1.00
C147   C     0.67849   0.24992   0.23081   0.00000  Uiso   1.00
C148   C     0.98818   0.25007   0.26921   0.00000  Uiso   1.00
C149   C     0.81285   0.04613   0.28052   0.00000  Uiso   1.00
C150   C     0.81336   0.45331   0.21294   0.00000  Uiso   1.00
C151   C     0.80965   0.09213   0.28006   0.00000  Uiso   1.00
C152   C     0.83362   0.33607   0.25042   0.00000  Uiso   1.00
C153   C     0.81016   0.40724   0.21266   0.00000  Uiso   1.00
C154   C     0.83591   0.11607   0.24921   0.00000  Uiso   1.00
C155   C     0.83604   0.38404   0.25140   0.00000  Uiso   1.00
C156   C     0.86607   0.09438   0.21924   0.00000  Uiso   1.00
C157   C     0.86592   0.40660   0.29016   0.00000  Uiso   1.00
C158   C     0.87055   0.04807   0.22018   0.00000  Uiso   1.00
C159   C     0.87040   0.45300   0.29035   0.00000  Uiso   1.00
C160   C     0.84330   0.02424   0.25103   0.00000  Uiso   1.00
C161   C     0.84343   0.47606   0.25136   0.00000  Uiso   1.00
C162   C     0.90475   0.02484   0.18927   0.00000  Uiso   1.00
C163   C     0.80597   0.21810   0.04711   0.00000  Uiso   1.00
C164   C     0.90425   0.47719   0.33129   0.00000  Uiso   1.00
C165   C     0.77983   0.17843   0.11581   0.00000  Uiso   1.00
C166   C     0.91864   0.29377   0.38823   0.00000  Uiso   1.00
C167   C     0.87151   0.27245   0.45427   0.00000  Uiso   1.00
C168   C     0.80720   0.21704   0.09671   0.00000  Uiso   1.00
C169   C     0.87269   0.27139   0.40498   0.00000  Uiso   1.00
C170   C     0.85713   0.28448   0.10679   0.00000  Uiso   1.00
C171   C     0.79219   0.23069   0.39102   0.00000  Uiso   1.00
C172   C     0.85572   0.28679   0.05717   0.00000  Uiso   1.00
H173   H     0.99082   0.24978   0.19450   0.00000  Uiso   1.00
H174   H     0.78696   0.38975   0.18264   0.00000  Uiso   1.00
H175   H     0.88687   0.11365   0.19607   0.00000  Uiso   1.00
H176   H     0.88651   0.38798   0.31956   0.00000  Uiso   1.00
H177   H     0.93500   0.00499   0.21172   0.00000  Uiso   1.00
H178   H     0.88041   0.00222   0.16302   0.00000  Uiso   1.00
H179   H     0.92529   0.04915   0.16933   0.00000  Uiso   1.00
H180   H     0.93461   0.49775   0.31776   0.00000  Uiso   1.00
H181   H     0.87969   0.49925   0.35022   0.00000  Uiso   1.00
H182   H     0.92465   0.45346   0.35737   0.00000  Uiso   1.00
H183   H     0.75577   0.18999   0.14233   0.00000  Uiso   1.00
H184   H     0.67583   0.25021   0.30553   0.00000  Uiso   1.00
H185   H     0.75242   0.16070   0.08722   0.00000  Uiso   1.00
H186   H     0.80924   0.15366   0.13100   0.00000  Uiso   1.00
H187   H     0.90547   0.31445   0.35698   0.00000  Uiso   1.00
H188   H     0.94014   0.31672   0.41601   0.00000  Uiso   1.00
H189   H     0.94699   0.26814   0.38032   0.00000  Uiso   1.00
H190   H     0.87429   0.31523   0.04338   0.00000  Uiso   1.00
H191   H     0.75560   0.21698   0.45196   0.00000  Uiso   1.00
H192   H     0.78709   0.19080   0.02506   0.00000  Uiso   1.00
H193   H     0.90409   0.28778   0.47805   0.00000  Uiso   1.00
H194   H     0.87699   0.31074   0.12974   0.00000  Uiso   1.00
H195   H     0.76083   0.21446   0.36664   0.00000  Uiso   1.00
H196   H     0.79149   0.02745   0.30371   0.00000  Uiso   1.00
H197   H     0.79221   0.47138   0.18336   0.00000  Uiso   1.00
H198   H     0.78620   0.10897   0.30319   0.00000  Uiso   1.00
N199   N     0.83333   0.24999   0.12623   0.00000  Uiso   1.00
N200   N     0.83333   0.25001   0.37376   0.00000  Uiso   1.00
O201   O     0.83334   0.18453   0.28974   0.00000  Uiso   1.00
O202   O     0.83333   0.31546   0.21026   0.00000  Uiso   1.00
O203   O     0.83334   0.18453   0.21026   0.00000  Uiso   1.00
O204   O     0.83333   0.31547   0.28974   0.00000  Uiso   1.00
O205   O     0.75725   0.25000   0.28044   0.00000  Uiso   1.00
O206   O     0.90942   0.25000   0.21955   0.00000  Uiso   1.00
O207   O     0.75725   0.24999   0.20096   0.00000  Uiso   1.00
O208   O     0.90942   0.25000   0.29903   0.00000  Uiso   1.00
Zn209  Zn    0.83333   0.25000   0.30307   0.00000  Uiso   1.00
Zn210  Zn    0.83333   0.24999   0.19693   0.00000  Uiso   1.00
C211   C     0.16682   0.66395   0.24963   0.00000  Uiso   1.00
C212   C     0.12285   0.73199   0.44012   0.00000  Uiso   1.00
C213   C     0.16339   0.75304   0.02621   0.00000  Uiso   1.00
C214   C     0.16319   0.75289   0.47294   0.00000  Uiso   1.00
C215   C     0.06700   0.74994   0.23745   0.00000  Uiso   1.00
C216   C     0.26633   0.75005   0.26255   0.00000  Uiso   1.00
C217   C     0.01182   0.74992   0.23081   0.00000  Uiso   1.00
C218   C     0.32151   0.75007   0.26921   0.00000  Uiso   1.00
C219   C     0.14619   0.54613   0.28052   0.00000  Uiso   1.00
C220   C     0.14669   0.95331   0.21294   0.00000  Uiso   1.00
C221   C     0.14298   0.59213   0.28006   0.00000  Uiso   1.00
C222   C     0.16695   0.83607   0.25042   0.00000  Uiso   1.00
C223   C     0.14349   0.90724   0.21266   0.00000  Uiso   1.00
C224   C     0.16924   0.61607   0.24921   0.00000  Uiso   1.00
C225   C     0.16938   0.88404   0.25140   0.00000  Uiso   1.00
C226   C     0.19940   0.59438   0.21924   0.00000  Uiso   1.00
C227   C     0.19926   0.90660   0.29016   0.00000  Uiso   1.00
C228   C     0.20389   0.54807   0.22018   0.00000  Uiso   1.00
C229   C     0.20373   0.95300   0.29035   0.00000  Uiso   1.00
C230   C     0.17663   0.52424   0.25103   0.00000  Uiso   1.00
C231   C     0.17676   0.97606   0.25136   0.00000  Uiso   1.00
C232   C     0.23808   0.52484   0.18927   0.00000  Uiso   1.00
C233   C     0.13930   0.71810   0.04711   0.00000  Uiso   1.00
C234   C     0.23758   0.97719   0.33129   0.00000  Uiso   1.00
C235   C     0.11316   0.67843   0.11581   0.00000  Uiso   1.00
C236   C     0.25197   0.79377   0.38823   0.00000  Uiso   1.00
C237   C     0.20485   0.77245   0.45427   0.00000  Uiso   1.00
C238   C     0.14053   0.71704   0.09671   0.00000  Uiso   1.00
C239   C     0.20603   0.77139   0.40498   0.00000  Uiso   1.00
C240   C     0.19046   0.78448   0.10679   0.00000  Uiso   1.00
C241   C     0.12552   0.73069   0.39102   0.00000  Uiso   1.00
C242   C     0.18905   0.78679   0.05717   0.00000  Uiso   1.00
H243   H     0.32416   0.74978   0.19450   0.00000  Uiso   1.00
H244   H     0.12030   0.88975   0.18264   0.00000  Uiso   1.00
H245   H     0.22020   0.61365   0.19607   0.00000  Uiso   1.00
H246   H     0.21984   0.88798   0.31956   0.00000  Uiso   1.00
H247   H     0.26833   0.50499   0.21172   0.00000  Uiso   1.00
H248   H     0.21374   0.50222   0.16302   0.00000  Uiso   1.00
H249   H     0.25862   0.54915   0.16933   0.00000  Uiso   1.00
H250   H     0.26794   0.99775   0.31776   0.00000  Uiso   1.00
H251   H     0.21302   0.99925   0.35022   0.00000  Uiso   1.00
H252   H     0.25799   0.95346   0.35737   0.00000  Uiso   1.00
H253   H     0.08911   0.68999   0.14233   0.00000  Uiso   1.00
H254   H     0.00917   0.75021   0.30553   0.00000  Uiso   1.00
H255   H     0.08575   0.66070   0.08722   0.00000  Uiso   1.00
H256   H     0.14258   0.65366   0.13100   0.00000  Uiso   1.00
H257   H     0.23880   0.81445   0.35698   0.00000  Uiso   1.00
H258   H     0.27347   0.81672   0.41601   0.00000  Uiso   1.00
H259   H     0.28032   0.76814   0.38032   0.00000  Uiso   1.00
H260   H     0.20762   0.81523   0.04338   0.00000  Uiso   1.00
H261   H     0.08894   0.71698   0.45196   0.00000  Uiso   1.00
H262   H     0.12043   0.69080   0.02506   0.00000  Uiso   1.00
H263   H     0.23743   0.78778   0.47805   0.00000  Uiso   1.00
H264   H     0.21032   0.81074   0.12974   0.00000  Uiso   1.00
H265   H     0.09416   0.71446   0.36664   0.00000  Uiso   1.00
H266   H     0.12482   0.52745   0.30371   0.00000  Uiso   1.00
H267   H     0.12554   0.97138   0.18336   0.00000  Uiso   1.00
H268   H     0.11953   0.60897   0.30319   0.00000  Uiso   1.00
N269   N     0.16667   0.74999   0.12623   0.00000  Uiso   1.00
N270   N     0.16667   0.75001   0.37376   0.00000  Uiso   1.00
O271   O     0.16667   0.68453   0.28974   0.00000  Uiso   1.00
O272   O     0.16666   0.81546   0.21026   0.00000  Uiso   1.00
O273   O     0.16667   0.68453   0.21026   0.00000  Uiso   1.00
O274   O     0.16666   0.81547   0.28974   0.00000  Uiso   1.00
O275   O     0.09058   0.75000   0.28044   0.00000  Uiso   1.00
O276   O     0.24275   0.75000   0.21955   0.00000  Uiso   1.00
O277   O     0.09058   0.74999   0.20096   0.00000  Uiso   1.00
O278   O     0.24275   0.75000   0.29903   0.00000  Uiso   1.00
Zn279  Zn    0.16667   0.75000   0.30307   0.00000  Uiso   1.00
Zn280  Zn    0.16667   0.74999   0.19693   0.00000  Uiso   1.00
C281   C     0.50015   0.66395   0.24963   0.00000  Uiso   1.00
C282   C     0.45618   0.73199   0.44012   0.00000  Uiso   1.00
C283   C     0.49672   0.75304   0.02621   0.00000  Uiso   1.00
C284   C     0.49652   0.75289   0.47294   0.00000  Uiso   1.00
C285   C     0.40034   0.74994   0.23745   0.00000  Uiso   1.00
C286   C     0.59966   0.75005   0.26255   0.00000  Uiso   1.00
C287   C     0.34515   0.74992   0.23081   0.00000  Uiso   1.00
C288   C     0.65485   0.75007   0.26921   0.00000  Uiso   1.00
C289   C     0.47952   0.54613   0.28052   0.00000  Uiso   1.00
C290   C     0.48003   0.95331   0.21294   0.00000  Uiso   1.00
C291   C     0.47632   0.59213   0.28006   0.00000  Uiso   1.00
C292   C     0.50029   0.83607   0.25042   0.00000  Uiso   1.00
C293   C     0.47683   0.90724   0.21266   0.00000  Uiso   1.00
C294   C     0.50257   0.61607   0.24921   0.00000  Uiso   1.00
C295   C     0.50271   0.88404   0.25140   0.00000  Uiso   1.00
C296   C     0.53274   0.59438   0.21924   0.00000  Uiso   1.00
C297   C     0.53259   0.90660   0.29016   0.00000  Uiso   1.00
C298   C     0.53722   0.54807   0.22018   0.00000  Uiso   1.00
C299   C     0.53706   0.95300   0.29035   0.00000  Uiso   1.00
C300   C     0.50997   0.52424   0.25103   0.00000  Uiso   1.00
C301   C     0.51010   0.97606   0.25136   0.00000  Uiso   1.00
C302   C     0.57141   0.52484   0.18927   0.00000  Uiso   1.00
C303   C     0.47264   0.71810   0.04711   0.00000  Uiso   1.00
C304   C     0.57092   0.97719   0.33129   0.00000  Uiso   1.00
C305   C     0.44650   0.67843   0.11581   0.00000  Uiso   1.00
C306   C     0.58531   0.79377   0.38823   0.00000  Uiso   1.00
C307   C     0.53818   0.77245   0.45427   0.00000  Uiso   1.00
C308   C     0.47387   0.71704   0.09671   0.00000  Uiso   1.00
C309   C     0.53936   0.77139   0.40498   0.00000  Uiso   1.00
C310   C     0.52380   0.78448   0.10679   0.00000  Uiso   1.00
C311   C     0.45886   0.73069   0.39102   0.00000  Uiso   1.00
C312   C     0.52239   0.78679   0.05717   0.00000  Uiso   1.00
H313   H     0.65749   0.74978   0.19450   0.00000  Uiso   1.00
H314   H     0.45363   0.88975   0.18264   0.00000  Uiso   1.00
H315   H     0.55354   0.61365   0.19607   0.00000  Uiso   1.00
H316   H     0.55317   0.88798   0.31956   0.00000  Uiso   1.00
H317   H     0.60167   0.50499   0.21172   0.00000  Uiso   1.00
H318   H     0.54708   0.50222   0.16302   0.00000  Uiso   1.00
H319   H     0.59196   0.54915   0.16933   0.00000  Uiso   1.00
H320   H     0.60128   0.99775   0.31776   0.00000  Uiso   1.00
H321   H     0.54636   0.99925   0.35022   0.00000  Uiso   1.00
H322   H     0.59132   0.95346   0.35737   0.00000  Uiso   1.00
H323   H     0.42244   0.68999   0.14233   0.00000  Uiso   1.00
H324   H     0.34250   0.75021   0.30553   0.00000  Uiso   1.00
H325   H     0.41908   0.66070   0.08722   0.00000  Uiso   1.00
H326   H     0.47591   0.65366   0.13100   0.00000  Uiso   1.00
H327   H     0.57213   0.81445   0.35698   0.00000  Uiso   1.00
H328   H     0.60680   0.81672   0.41601   0.00000  Uiso   1.00
H329   H     0.61365   0.76814   0.38032   0.00000  Uiso   1.00
H330   H     0.54095   0.81523   0.04338   0.00000  Uiso   1.00
H331   H     0.42227   0.71698   0.45196   0.00000  Uiso   1.00
H332   H     0.45376   0.69080   0.02506   0.00000  Uiso   1.00
H333   H     0.57076   0.78778   0.47805   0.00000  Uiso   1.00
H334   H     0.54366   0.81074   0.12974   0.00000  Uiso   1.00
H335   H     0.42749   0.71446   0.36664   0.00000  Uiso   1.00
H336   H     0.45815   0.52745   0.30371   0.00000  Uiso   1.00
H337   H     0.45888   0.97138   0.18336   0.00000  Uiso   1.00
H338   H     0.45286   0.60897   0.30319   0.00000  Uiso   1.00
N339   N     0.50000   0.74999   0.12623   0.00000  Uiso   1.00
N340   N     0.50000   0.75001   0.37376   0.00000  Uiso   1.00
O341   O     0.50000   0.68453   0.28974   0.00000  Uiso   1.00
O342   O     0.50000   0.81546   0.21026   0.00000  Uiso   1.00
O343   O     0.50000   0.68453   0.21026   0.00000  Uiso   1.00
O344   O     0.50000   0.81547   0.28974   0.00000  Uiso   1.00
O345   O     0.42392   0.75000   0.28044   0.00000  Uiso   1.00
O346   O     0.57608   0.75000   0.21955   0.00000  Uiso   1.00
O347   O     0.42392   0.74999   0.20096   0.00000  Uiso   1.00
O348   O     0.57608   0.75000   0.29903   0.00000  Uiso   1.00
Zn349  Zn    0.50000   0.75000   0.30307   0.00000  Uiso   1.00
Zn350  Zn    0.50000   0.74999   0.19693   0.00000  Uiso   1.00
C351   C     0.83349   0.66395   0.24963   0.00000  Uiso   1.00
C352   C     0.78951   0.73199   0.44012   0.00000  Uiso   1.00
C353   C     0.83005   0.75304   0.02621   0.00000  Uiso   1.00
C354   C     0.82985   0.75289   0.47294   0.00000  Uiso   1.00
C355   C     0.73367   0.74994   0.23745   0.00000  Uiso   1.00
C356   C     0.93300   0.75005   0.26255   0.00000  Uiso   1.00
C357   C     0.67849   0.74992   0.23081   0.00000  Uiso   1.00
C358   C     0.98818   0.75007   0.26921   0.00000  Uiso   1.00
C359   C     0.81285   0.54613   0.28052   0.00000  Uiso   1.00
C360   C     0.81336   0.95331   0.21294   0.00000  Uiso   1.00
C361   C     0.80965   0.59213   0.28006   0.00000  Uiso   1.00
C362   C     0.83362   0.83607   0.25042   0.00000  Uiso   1.00
C363   C     0.81016   0.90724   0.21266   0.00000  Uiso   1.00
C364   C     0.83591   0.61607   0.24921   0.00000  Uiso   1.00
C365   C     0.83604   0.88404   0.25140   0.00000  Uiso   1.00
C366   C     0.86607   0.59438   0.21924   0.00000  Uiso   1.00
C367   C     0.86592   0.90660   0.29016   0.00000  Uiso   1.00
C368   C     0.87055   0.54807   0.22018   0.00000  Uiso   1.00
C369   C     0.87040   0.95300   0.29035   0.00000  Uiso   1.00
C370   C     0.84330   0.52424   0.25103   0.00000  Uiso   1.00
C371   C     0.84343   0.97606   0.25136   0.00000  Uiso   1.00
C372   C     0.90475   0.52484   0.18927   0.00000  Uiso   1.00
C373   C     0.80597   0.71810   0.04711   0.00000  Uiso   1.00
C374   C     0.90425   0.97719   0.33129   0.00000  Uiso   1.00
C375   C     0.77983   0.67843   0.11581   0.00000  Uiso   1.00
C376   C     0.91864   0.79377   0.38823   0.00000  Uiso   1.00
C377   C     0.87151   0.77245   0.45427   0.00000  Uiso   1.00
C378   C     0.80720   0.71704   0.09671   0.00000  Uiso   1.00
C379   C     0.87269   0.77139   0.40498   0.00000  Uiso   1.00
C380   C     0.85713   0.78448   0.10679   0.00000  Uiso   1.00
C381   C     0.79219   0.73069   0.39102   0.00000  Uiso   1.00
C382   C     0.85572   0.78679   0.05717   0.00000  Uiso   1.00
H383   H     0.99082   0.74978   0.19450   0.00000  Uiso   1.00
H384   H     0.78696   0.88975   0.18264   0.00000  Uiso   1.00
H385   H     0.88687   0.61365   0.19607   0.00000  Uiso   1.00
H386   H     0.88651   0.88798   0.31956   0.00000  Uiso   1.00
H387   H     0.93500   0.50499   0.21172   0.00000  Uiso   1.00
H388   H     0.88041   0.50222   0.16302   0.00000  Uiso   1.00
H389   H     0.92529   0.54915   0.16933   0.00000  Uiso   1.00
H390   H     0.93461   0.99775   0.31776   0.00000  Uiso   1.00
H391   H     0.87969   0.99925   0.35022   0.00000  Uiso   1.00
H392   H     0.92465   0.95346   0.35737   0.00000  Uiso   1.00
H393   H     0.75577   0.68999   0.14233   0.00000  Uiso   1.00
H394   H     0.67583   0.75021   0.30553   0.00000  Uiso   1.00
H395   H     0.75242   0.66070   0.08722   0.00000  Uiso   1.00
H396   H     0.80924   0.65366   0.13100   0.00000  Uiso   1.00
H397   H     0.90547   0.81445   0.35698   0.00000  Uiso   1.00
H398   H     0.94014   0.81672   0.41601   0.00000  Uiso   1.00
H399   H     0.94699   0.76814   0.38032   0.00000  Uiso   1.00
H400   H     0.87429   0.81523   0.04338   0.00000  Uiso   1.00
H401   H     0.75560   0.71698   0.45196   0.00000  Uiso   1.00
H402   H     0.78709   0.69080   0.02506   0.00000  Uiso   1.00
H403   H     0.90409   0.78778   0.47805   0.00000  Uiso   1.00
H404   H     0.87699   0.81074   0.12974   0.00000  Uiso   1.00
H405   H     0.76083   0.71446   0.36664   0.00000  Uiso   1.00
H406   H     0.79149   0.52745   0.30371   0.00000  Uiso   1.00
H407   H     0.79221   0.97138   0.18336   0.00000  Uiso   1.00
H408   H     0.78620   0.60897   0.30319   0.00000  Uiso   1.00
N409   N     0.83333   0.74999   0.12623   0.00000  Uiso   1.00
N410   N     0.83333   0.75001   0.37376   0.00000  Uiso   1.00
O411   O     0.83334   0.68453   0.28974   0.00000  Uiso   1.00
O412   O     0.83333   0.81546   0.21026   0.00000  Uiso   1.00
O413   O     0.83334   0.68453   0.21026   0.00000  Uiso   1.00
O414   O     0.83333   0.81547   0.28974   0.00000  Uiso   1.00
O415   O     0.75725   0.75000   0.28044   0.00000  Uiso   1.00
O416   O     0.90942   0.75000   0.21955   0.00000  Uiso   1.00
O417   O     0.75725   0.74999   0.20096   0.00000  Uiso   1.00
O418   O     0.90942   0.75000   0.29903   0.00000  Uiso   1.00
Zn419  Zn    0.83333   0.75000   0.30307   0.00000  Uiso   1.00
Zn420  Zn    0.83333   0.74999   0.19693   0.00000  Uiso   1.00
C421   C     0.16682   0.16395   0.74963   0.00000  Uiso   1.00
C422   C     0.12285   0.23199   0.94012   0.00000  Uiso   1.00
C423   C     0.16339   0.25304   0.52621   0.00000  Uiso   1.00
C424   C     0.16319   0.25289   0.97294   0.00000  Uiso   1.00
C425   C     0.06700   0.24994   0.73745   0.00000  Uiso   1.00
C426   C     0.26633   0.25005   0.76255   0.00000  Uiso   1.00
C427   C     0.01182   0.24992   0.73081   0.00000  Uiso   1.00
C428   C     0.32151   0.25007   0.76921   0.00000  Uiso   1.00
C429   C     0.14619   0.04613   0.78052   0.00000  Uiso   1.00
C430   C     0.14669   0.45331   0.71294   0.00000  Uiso   1.00
C431   C     0.14298   0.09213   0.78006   0.00000  Uiso   1.00
C432   C     0.16695   0.33607   0.75042   0.00000  Uiso   1.00
C433   C     0.14349   0.40724   0.71266   0.00000  Uiso   1.00
C434   C     0.16924   0.11607   0.74921   0.00000  Uiso   1.00
C435   C     0.16938   0.38404   0.75140   0.00000  Uiso   1.00
C436   C     0.19940   0.09438   0.71924   0.00000  Uiso   1.00
C437   C     0.19926   0.40660   0.79016   0.00000  Uiso   1.00
C438   C     0.20389   0.04807   0.72018   0.00000  Uiso   1.00
C439   C     0.20373   0.45300   0.79035   0.00000  Uiso   1.00
C440   C     0.17663   0.02424   0.75103   0.00000  Uiso   1.00
C441   C     0.17676   0.47606   0.75136   0.00000  Uiso   1.00
C442   C     0.23808   0.02484   0.68927   0.00000  Uiso   1.00
C443   C     0.13930   0.21810   0.54711   0.00000  Uiso   1.00
C444   C     0.23758   0.47719   0.83129   0.00000  Uiso   1.00
C445   C     0.11316   0.17843   0.61581   0.00000  Uiso   1.00
C446   C     0.25197   0.29377   0.88823   0.00000  Uiso   1.00
C447   C     0.20485   0.27245   0.95427   0.00000  Uiso   1.00
C448   C     0.14053   0.21704   0.59671   0.00000  Uiso   1.00
C449   C     0.20603   0.27139   0.90498   0.00000  Uiso   1.00
C450   C     0.19046   0.28448   0.60679   0.00000  Uiso   1.00
C451   C     0.12552   0.23069   0.89102   0.00000  Uiso   1.00
C452   C     0.18905   0.28679   0.55717   0.00000  Uiso   1.00
H453   H     0.32416   0.24978   0.69450   0.00000  Uiso   1.00
H454   H     0.12030   0.38975   0.68264   0.00000  Uiso   1.00
H455   H     0.22020   0.11365   0.69607   0.00000  Uiso   1.00
H456   H     0.21984   0.38798   0.81956   0.00000  Uiso   1.00
H457   H     0.26833   0.00499   0.71172   0.00000  Uiso   1.00
H458   H     0.21374   0.00222   0.66302   0.00000  Uiso   1.00
H459   H     0.25862   0.04915   0.66933   0.00000  Uiso   1.00
H460   H     0.26794   0.49775   0.81776   0.00000  Uiso   1.00
H461   H     0.21302   0.49925   0.85022   0.00000  Uiso   1.00
H462   H     0.25799   0.45346   0.85737   0.00000  Uiso   1.00
H463   H     0.08911   0.18999   0.64233   0.00000  Uiso   1.00
H464   H     0.00917   0.25021   0.80553   0.00000  Uiso   1.00
H465   H     0.08575   0.16070   0.58722   0.00000  Uiso   1.00
H466   H     0.14258   0.15366   0.63100   0.00000  Uiso   1.00
H467   H     0.23880   0.31445   0.85698   0.00000  Uiso   1.00
H468   H     0.27347   0.31672   0.91601   0.00000  Uiso   1.00
H469   H     0.28032   0.26814   0.88032   0.00000  Uiso   1.00
H470   H     0.20762   0.31523   0.54338   0.00000  Uiso   1.00
H471   H     0.08894   0.21698   0.95196   0.00000  Uiso   1.00
H472   H     0.12043   0.19080   0.52506   0.00000  Uiso   1.00
H473   H     0.23743   0.28778   0.97805   0.00000  Uiso   1.00
H474   H     0.21032   0.31074   0.62974   0.00000  Uiso   1.00
H475   H     0.09416   0.21446   0.86664   0.00000  Uiso   1.00
H476   H     0.12482   0.02745   0.80371   0.00000  Uiso   1.00
H477   H     0.12554   0.47138   0.68336   0.00000  Uiso   1.00
H478   H     0.11953   0.10897   0.80319   0.00000  Uiso   1.00
N479   N     0.16667   0.24999   0.62623   0.00000  Uiso   1.00
N480   N     0.16667   0.25001   0.87376   0.00000  Uiso   1.00
O481   O     0.16667   0.18453   0.78974   0.00000  Uiso   1.00
O482   O     0.16666   0.31546   0.71026   0.00000  Uiso   1.00
O483   O     0.16667   0.18453   0.71026   0.00000  Uiso   1.00
O484   O     0.16666   0.31547   0.78974   0.00000  Uiso   1.00
O485   O     0.09058   0.25000   0.78044   0.00000  Uiso   1.00
O486   O     0.24275   0.25000   0.71955   0.00000  Uiso   1.00
O487   O     0.09058   0.24999   0.70096   0.00000  Uiso   1.00
O488   O     0.24275   0.25000   0.79903   0.00000  Uiso   1.00
Zn489  Zn    0.16667   0.25000   0.80307   0.00000  Uiso   1.00
Zn490  Zn    0.16667   0.24999   0.69693   0.00000  Uiso   1.00
C491   C     0.50015   0.16395   0.74963   0.00000  Uiso   1.00
C492   C     0.45618   0.23199   0.94012   0.00000  Uiso   1.00
C493   C     0.49672   0.25304   0.52621   0.00000  Uiso   1.00
C494   C     0.49652   0.25289   0.97294   0.00000  Uiso   1.00
C495   C     0.40034   0.24994   0.73745   0.00000  Uiso   1.00
C496   C     0.59966   0.25005   0.76255   0.00000  Uiso   1.00
C497   C     0.34515   0.24992   0.73081   0.00000  Uiso   1.00
C498   C     0.65485   0.25007   0.76921   0.00000  Uiso   1.00
C499   C     0.47952   0.04613   0.78052   0.00000  Uiso   1.00
C500   C     0.48003   0.45331   0.71294   0.00000  Uiso   1.00
C501   C     0.47632   0.09213   0.78006   0.00000  Uiso   1.00
C502   C     0.50029   0.33607   0.75042   0.00000  Uiso   1.00
C503   C     0.47683   0.40724   0.71266   0.00000  Uiso   1.00
C504   C     0.50257   0.11607   0.74921   0.00000  Uiso   1.00
C505   C     0.50271   0.38404   0.75140   0.00000  Uiso   1.00
C506   C     0.53274   0.09438   0.71924   0.00000  Uiso   1.00
C507   C     0.53259   0.40660   0.79016   0.00000  Uiso   1.00
C508   C     0.53722   0.04807   0.72018   0.00000  Uiso   1.00
C509   C     0.53706   0.45300   0.79035   0.00000  Uiso   1.00
C510   C     0.50997   0.02424   0.75103   0.00000  Uiso   1.00
C511   C     0.51010   0.47606   0.75136   0.00000  Uiso   1.00
C512   C     0.57141   0.02484   0.68927   0.00000  Uiso   1.00
C513   C     0.47264   0.21810   0.54711   0.00000  Uiso   1.00
C514   C     0.57092   0.47719   0.83129   0.00000  Uiso   1.00
C515   C     0.44650   0.17843   0.61581   0.00000  Uiso   1.00
C516   C     0.58531   0.29377   0.88823   0.00000  Uiso   1.00
C517   C     0.53818   0.27245   0.95427   0.00000  Uiso   1.00
C518   C     0.47387   0.21704   0.59671   0.00000  Uiso   1.00
C519   C     0.53936   0.27139   0.90498   0.00000  Uiso   1.00
C520   C     0.52380   0.28448   0.60679   0.00000  Uiso   1.00
C521   C     0.45886   0.23069   0.89102   0.00000  Uiso   1.00
C522   C     0.52239   0.28679   0.55717   0.00000  Uiso   1.00
H523   H     0.65749   0.24978   0.69450   0.00000  Uiso   1.00
H524   H     0.45363   0.38975   0.68264   0.00000  Uiso   1.00
H525   H     0.55354   0.11365   0.69607   0.00000  Uiso   1.00
H526   H     0.55317   0.38798   0.81956   0.00000  Uiso   1.00
H527   H     0.60167   0.00499   0.71172   0.00000  Uiso   1.00
H528   H     0.54708   0.00222   0.66302   0.00000  Uiso   1.00
H529   H     0.59196   0.04915   0.66933   0.00000  Uiso   1.00
H530   H     0.60128   0.49775   0.81776   0.00000  Uiso   1.00
H531   H     0.54636   0.49925   0.85022   0.00000  Uiso   1.00
H532   H     0.59132   0.45346   0.85737   0.00000  Uiso   1.00
H533   H     0.42244   0.18999   0.64233   0.00000  Uiso   1.00
H534   H     0.34250   0.25021   0.80553   0.00000  Uiso   1.00
H535   H     0.41908   0.16070   0.58722   0.00000  Uiso   1.00
H536   H     0.47591   0.15366   0.63100   0.00000  Uiso   1.00
H537   H     0.57213   0.31445   0.85698   0.00000  Uiso   1.00
H538   H     0.60680   0.31672   0.91601   0.00000  Uiso   1.00
H539   H     0.61365   0.26814   0.88032   0.00000  Uiso   1.00
H540   H     0.54095   0.31523   0.54338   0.00000  Uiso   1.00
H541   H     0.42227   0.21698   0.95196   0.00000  Uiso   1.00
H542   H     0.45376   0.19080   0.52506   0.00000  Uiso   1.00
H543   H     0.57076   0.28778   0.97805   0.00000  Uiso   1.00
H544   H     0.54366   0.31074   0.62974   0.00000  Uiso   1.00
H545   H     0.42749   0.21446   0.86664   0.00000  Uiso   1.00
H546   H     0.45815   0.02745   0.80371   0.00000  Uiso   1.00
H547   H     0.45888   0.47138   0.68336   0.00000  Uiso   1.00
H548   H     0.45286   0.10897   0.80319   0.00000  Uiso   1.00
N549   N     0.50000   0.24999   0.62623   0.00000  Uiso   1.00
N550   N     0.50000   0.25001   0.87376   0.00000  Uiso   1.00
O551   O     0.50000   0.18453   0.78974   0.00000  Uiso   1.00
O552   O     0.50000   0.31546   0.71026   0.00000  Uiso   1.00
O553   O     0.50000   0.18453   0.71026   0.00000  Uiso   1.00
O554   O     0.50000   0.31547   0.78974   0.00000  Uiso   1.00
O555   O     0.42392   0.25000   0.78044   0.00000  Uiso   1.00
O556   O     0.57608   0.25000   0.71955   0.00000  Uiso   1.00
O557   O     0.42392   0.24999   0.70096   0.00000  Uiso   1.00
O558   O     0.57608   0.25000   0.79903   0.00000  Uiso   1.00
Zn559  Zn    0.50000   0.25000   0.80307   0.00000  Uiso   1.00
Zn560  Zn    0.50000   0.24999   0.69693   0.00000  Uiso   1.00
C561   C     0.83349   0.16395   0.74963   0.00000  Uiso   1.00
C562   C     0.78951   0.23199   0.94012   0.00000  Uiso   1.00
C563   C     0.83005   0.25304   0.52621   0.00000  Uiso   1.00
C564   C     0.82985   0.25289   0.97294   0.00000  Uiso   1.00
C565   C     0.73367   0.24994   0.73745   0.00000  Uiso   1.00
C566   C     0.93300   0.25005   0.76255   0.00000  Uiso   1.00
C567   C     0.67849   0.24992   0.73081   0.00000  Uiso   1.00
C568   C     0.98818   0.25007   0.76921   0.00000  Uiso   1.00
C569   C     0.81285   0.04613   0.78052   0.00000  Uiso   1.00
C570   C     0.81336   0.45331   0.71294   0.00000  Uiso   1.00
C571   C     0.80965   0.09213   0.78006   0.00000  Uiso   1.00
C572   C     0.83362   0.33607   0.75042   0.00000  Uiso   1.00
C573   C     0.81016   0.40724   0.71266   0.00000  Uiso   1.00
C574   C     0.83591   0.11607   0.74921   0.00000  Uiso   1.00
C575   C     0.83604   0.38404   0.75140   0.00000  Uiso   1.00
C576   C     0.86607   0.09438   0.71924   0.00000  Uiso   1.00
C577   C     0.86592   0.40660   0.79016   0.00000  Uiso   1.00
C578   C     0.87055   0.04807   0.72018   0.00000  Uiso   1.00
C579   C     0.87040   0.45300   0.79035   0.00000  Uiso   1.00
C580   C     0.84330   0.02424   0.75103   0.00000  Uiso   1.00
C581   C     0.84343   0.47606   0.75136   0.00000  Uiso   1.00
C582   C     0.90475   0.02484   0.68927   0.00000  Uiso   1.00
C583   C     0.80597   0.21810   0.54711   0.00000  Uiso   1.00
C584   C     0.90425   0.47719   0.83129   0.00000  Uiso   1.00
C585   C     0.77983   0.17843   0.61581   0.00000  Uiso   1.00
C586   C     0.91864   0.29377   0.88823   0.00000  Uiso   1.00
C587   C     0.87151   0.27245   0.95427   0.00000  Uiso   1.00
C588   C     0.80720   0.21704   0.59671   0.00000  Uiso   1.00
C589   C     0.87269   0.27139   0.90498   0.00000  Uiso   1.00
C590   C     0.85713   0.28448   0.60679   0.00000  Uiso   1.00
C591   C     0.79219   0.23069   0.89102   0.00000  Uiso   1.00
C592   C     0.85572   0.28679   0.55717   0.00000  Uiso   1.00
H593   H     0.99082   0.24978   0.69450   0.00000  Uiso   1.00
H594   H     0.78696   0.38975   0.68264   0.00000  Uiso   1.00
H595   H     0.88687   0.11365   0.69607   0.00000  Uiso   1.00
H596   H     0.88651   0.38798   0.81956   0.00000  Uiso   1.00
H597   H     0.93500   0.00499   0.71172   0.00000  Uiso   1.00
H598   H     0.88041   0.00222   0.66302   0.00000  Uiso   1.00
H599   H     0.92529   0.04915   0.66933   0.00000  Uiso   1.00
H600   H     0.93461   0.49775   0.81776   0.00000  Uiso   1.00
H601   H     0.87969   0.49925   0.85022   0.00000  Uiso   1.00
H602   H     0.92465   0.45346   0.85737   0.00000  Uiso   1.00
H603   H     0.75577   0.18999   0.64233   0.00000  Uiso   1.00
H604   H     0.67583   0.25021   0.80553   0.00000  Uiso   1.00
H605   H     0.75242   0.16070   0.58722   0.00000  Uiso   1.00
H606   H     0.80924   0.15366   0.63100   0.00000  Uiso   1.00
H607   H     0.90547   0.31445   0.85698   0.00000  Uiso   1.00
H608   H     0.94014   0.31672   0.91601   0.00000  Uiso   1.00
H609   H     0.94699   0.26814   0.88032   0.00000  Uiso   1.00
H610   H     0.87429   0.31523   0.54338   0.00000  Uiso   1.00
H611   H     0.75560   0.21698   0.95196   0.00000  Uiso   1.00
H612   H     0.78709   0.19080   0.52506   0.00000  Uiso   1.00
H613   H     0.90409   0.28778   0.97805   0.00000  Uiso   1.00
H614   H     0.87699   0.31074   0.62974   0.00000  Uiso   1.00
H615   H     0.76083   0.21446   0.86664   0.00000  Uiso   1.00
H616   H     0.79149   0.02745   0.80371   0.00000  Uiso   1.00
H617   H     0.79221   0.47138   0.68336   0.00000  Uiso   1.00
H618   H     0.78620   0.10897   0.80319   0.00000  Uiso   1.00
N619   N     0.83333   0.24999   0.62623   0.00000  Uiso   1.00
N620   N     0.83333   0.25001   0.87376   0.00000  Uiso   1.00
O621   O     0.83334   0.18453   0.78974   0.00000  Uiso   1.00
O622   O     0.83333   0.31546   0.71026   0.00000  Uiso   1.00
O623   O     0.83334   0.18453   0.71026   0.00000  Uiso   1.00
O624   O     0.83333   0.31547   0.78974   0.00000  Uiso   1.00
O625   O     0.75725   0.25000   0.78044   0.00000  Uiso   1.00
O626   O     0.90942   0.25000   0.71955   0.00000  Uiso   1.00
O627   O     0.75725   0.24999   0.70096   0.00000  Uiso   1.00
O628   O     0.90942   0.25000   0.79903   0.00000  Uiso   1.00
Zn629  Zn    0.83333   0.25000   0.80307   0.00000  Uiso   1.00
Zn630  Zn    0.83333   0.24999   0.69693   0.00000  Uiso   1.00
C631   C     0.16682   0.66395   0.74963   0.00000  Uiso   1.00
C632   C     0.12285   0.73199   0.94012   0.00000  Uiso   1.00
C633   C     0.16339   0.75304   0.52621   0.00000  Uiso   1.00
C634   C     0.16319   0.75289   0.97294   0.00000  Uiso   1.00
C635   C     0.06700   0.74994   0.73745   0.00000  Uiso   1.00
C636   C     0.26633   0.75005   0.76255   0.00000  Uiso   1.00
C637   C     0.01182   0.74992   0.73081   0.00000  Uiso   1.00
C638   C     0.32151   0.75007   0.76921   0.00000  Uiso   1.00
C639   C     0.14619   0.54613   0.78052   0.00000  Uiso   1.00
C640   C     0.14669   0.95331   0.71294   0.00000  Uiso   1.00
C641   C     0.14298   0.59213   0.78006   0.00000  Uiso   1.00
C642   C     0.16695   0.83607   0.75042   0.00000  Uiso   1.00
C643   C     0.14349   0.90724   0.71266   0.00000  Uiso   1.00
C644   C     0.16924   0.61607   0.74921   0.00000  Uiso   1.00
C645   C     0.16938   0.88404   0.75140   0.00000  Uiso   1.00
C646   C     0.19940   0.59438   0.71924   0.00000  Uiso   1.00
C647   C     0.19926   0.90660   0.79016   0.00000  Uiso   1.00
C648   C     0.20389   0.54807   0.72018   0.00000  Uiso   1.00
C649   C     0.20373   0.95300   0.79035   0.00000  Uiso   1.00
C650   C     0.17663   0.52424   0.75103   0.00000  Uiso   1.00
C651   C     0.17676   0.97606   0.75136   0.00000  Uiso   1.00
C652   C     0.23808   0.52484   0.68927   0.00000  Uiso   1.00
C653   C     0.13930   0.71810   0.54711   0.00000  Uiso   1.00
C654   C     0.23758   0.97719   0.83129   0.00000  Uiso   1.00
C655   C     0.11316   0.67843   0.61581   0.00000  Uiso   1.00
C656   C     0.25197   0.79377   0.88823   0.00000  Uiso   1.00
C657   C     0.20485   0.77245   0.95427   0.00000  Uiso   1.00
C658   C     0.14053   0.71704   0.59671   0.00000  Uiso   1.00
C659   C     0.20603   0.77139   0.90498   0.00000  Uiso   1.00
C660   C     0.19046   0.78448   0.60679   0.00000  Uiso   1.00
C661   C     0.12552   0.73069   0.89102   0.00000  Uiso   1.00
C662   C     0.18905   0.78679   0.55717   0.00000  Uiso   1.00
H663   H     0.32416   0.74978   0.69450   0.00000  Uiso   1.00
H664   H     0.12030   0.88975   0.68264   0.00000  Uiso   1.00
H665   H     0.22020   0.61365   0.69607   0.00000  Uiso   1.00
H666   H     0.21984   0.88798   0.81956   0.00000  Uiso   1.00
H667   H     0.26833   0.50499   0.71172   0.00000  Uiso   1.00
H668   H     0.21374   0.50222   0.66302   0.00000  Uiso   1.00
H669   H     0.25862   0.54915   0.66933   0.00000  Uiso   1.00
H670   H     0.26794   0.99775   0.81776   0.00000  Uiso   1.00
H671   H     0.21302   0.99925   0.85022   0.00000  Uiso   1.00
H672   H     0.25799   0.95346   0.85737   0.00000  Uiso   1.00
H673   H     0.08911   0.68999   0.64233   0.00000  Uiso   1.00
H674   H     0.00917   0.75021   0.80553   0.00000  Uiso   1.00
H675   H     0.08575   0.66070   0.58722   0.00000  Uiso   1.00
H676   H     0.14258   0.65366   0.63100   0.00000  Uiso   1.00
H677   H     0.23880   0.81445   0.85698   0.00000  Uiso   1.00
H678   H     0.27347   0.81672   0.91601   0.00000  Uiso   1.00
H679   H     0.28032   0.76814   0.88032   0.00000  Uiso   1.00
H680   H     0.20762   0.81523   0.54338   0.00000  Uiso   1.00
H681   H     0.08894   0.71698   0.95196   0.00000  Uiso   1.00
H682   H     0.12043   0.69080   0.52506   0.00000  Uiso   1.00
H683   H     0.23743   0.78778   0.97805   0.00000  Uiso   1.00
H684   H     0.21032   0.81074   0.62974   0.00000  Uiso   1.00
H685   H     0.09416   0.71446   0.86664   0.00000  Uiso   1.00
H686   H     0.12482   0.52745   0.80371   0.00000  Uiso   1.00
H687   H     0.12554   0.97138   0.68336   0.00000  Uiso   1.00
H688   H     0.11953   0.60897   0.80319   0.00000  Uiso   1.00
N689   N     0.16667   0.74999   0.62623   0.00000  Uiso   1.00
N690   N     0.16667   0.75001   0.87376   0.00000  Uiso   1.00
O691   O     0.16667   0.68453   0.78974   0.00000  Uiso   1.00
O692   O     0.16666   0.81546   0.71026   0.00000  Uiso   1.00
O693   O     0.16667   0.68453   0.71026   0.00000  Uiso   1.00
O694   O     0.16666   0.81547   0.78974   0.00000  Uiso   1.00
O695   O     0.09058   0.75000   0.78044   0.00000  Uiso   1.00
O696   O     0.24275   0.75000   0.71955   0.00000  Uiso   1.00
O697   O     0.09058   0.74999   0.70096   0.00000  Uiso   1.00
O698   O     0.24275   0.75000   0.79903   0.00000  Uiso   1.00
Zn699  Zn    0.16667   0.75000   0.80307   0.00000  Uiso   1.00
Zn700  Zn    0.16667   0.74999   0.69693   0.00000  Uiso   1.00
C701   C     0.50015   0.66395   0.74963   0.00000  Uiso   1.00
C702   C     0.45618   0.73199   0.94012   0.00000  Uiso   1.00
C703   C     0.49672   0.75304   0.52621   0.00000  Uiso   1.00
C704   C     0.49652   0.75289   0.97294   0.00000  Uiso   1.00
C705   C     0.40034   0.74994   0.73745   0.00000  Uiso   1.00
C706   C     0.59966   0.75005   0.76255   0.00000  Uiso   1.00
C707   C     0.34515   0.74992   0.73081   0.00000  Uiso   1.00
C708   C     0.65485   0.75007   0.76921   0.00000  Uiso   1.00
C709   C     0.47952   0.54613   0.78052   0.00000  Uiso   1.00
C710   C     0.48003   0.95331   0.71294   0.00000  Uiso   1.00
C711   C     0.47632   0.59213   0.78006   0.00000  Uiso   1.00
C712   C     0.50029   0.83607   0.75042   0.00000  Uiso   1.00
C713   C     0.47683   0.90724   0.71266   0.00000  Uiso   1.00
C714   C     0.50257   0.61607   0.74921   0.00000  Uiso   1.00
C715   C     0.50271   0.88404   0.75140   0.00000  Uiso   1.00
C716   C     0.53274   0.59438   0.71924   0.00000  Uiso   1.00
C717   C     0.53259   0.90660   0.79016   0.00000  Uiso   1.00
C718   C     0.53722   0.54807   0.72018   0.00000  Uiso   1.00
C719   C     0.53706   0.95300   0.79035   0.00000  Uiso   1.00
C720   C     0.50997   0.52424   0.75103   0.00000  Uiso   1.00
C721   C     0.51010   0.97606   0.75136   0.00000  Uiso   1.00
C722   C     0.57141   0.52484   0.68927   0.00000  Uiso   1.00
C723   C     0.47264   0.71810   0.54711   0.00000  Uiso   1.00
C724   C     0.57092   0.97719   0.83129   0.00000  Uiso   1.00
C725   C     0.44650   0.67843   0.61581   0.00000  Uiso   1.00
C726   C     0.58531   0.79377   0.88823   0.00000  Uiso   1.00
C727   C     0.53818   0.77245   0.95427   0.00000  Uiso   1.00
C728   C     0.47387   0.71704   0.59671   0.00000  Uiso   1.00
C729   C     0.53936   0.77139   0.90498   0.00000  Uiso   1.00
C730   C     0.52380   0.78448   0.60679   0.00000  Uiso   1.00
C731   C     0.45886   0.73069   0.89102   0.00000  Uiso   1.00
C732   C     0.52239   0.78679   0.55717   0.00000  Uiso   1.00
H733   H     0.65749   0.74978   0.69450   0.00000  Uiso   1.00
H734   H     0.45363   0.88975   0.68264   0.00000  Uiso   1.00
H735   H     0.55354   0.61365   0.69607   0.00000  Uiso   1.00
H736   H     0.55317   0.88798   0.81956   0.00000  Uiso   1.00
H737   H     0.60167   0.50499   0.71172   0.00000  Uiso   1.00
H738   H     0.54708   0.50222   0.66302   0.00000  Uiso   1.00
H739   H     0.59196   0.54915   0.66933   0.00000  Uiso   1.00
H740   H     0.60128   0.99775   0.81776   0.00000  Uiso   1.00
H741   H     0.54636   0.99925   0.85022   0.00000  Uiso   1.00
H742   H     0.59132   0.95346   0.85737   0.00000  Uiso   1.00
H743   H     0.42244   0.68999   0.64233   0.00000  Uiso   1.00
H744   H     0.34250   0.75021   0.80553   0.00000  Uiso   1.00
H745   H     0.41908   0.66070   0.58722   0.00000  Uiso   1.00
H746   H     0.47591   0.65366   0.63100   0.00000  Uiso   1.00
H747   H     0.57213   0.81445   0.85698   0.00000  Uiso   1.00
H748   H     0.60680   0.81672   0.91601   0.00000  Uiso   1.00
H749   H     0.61365   0.76814   0.88032   0.00000  Uiso   1.00
H750   H     0.54095   0.81523   0.54338   0.00000  Uiso   1.00
H751   H     0.42227   0.71698   0.95196   0.00000  Uiso   1.00
H752   H     0.45376   0.69080   0.52506   0.00000  Uiso   1.00
H753   H     0.57076   0.78778   0.97805   0.00000  Uiso   1.00
H754   H     0.54366   0.81074   0.62974   0.00000  Uiso   1.00
H755   H     0.42749   0.71446   0.86664   0.00000  Uiso   1.00
H756   H     0.45815   0.52745   0.80371   0.00000  Uiso   1.00
H757   H     0.45888   0.97138   0.68336   0.00000  Uiso   1.00
H758   H     0.45286   0.60897   0.80319   0.00000  Uiso   1.00
N759   N     0.50000   0.74999   0.62623   0.00000  Uiso   1.00
N760   N     0.50000   0.75001   0.87376   0.00000  Uiso   1.00
O761   O     0.50000   0.68453   0.78974   0.00000  Uiso   1.00
O762   O     0.50000   0.81546   0.71026   0.00000  Uiso   1.00
O763   O     0.50000   0.68453   0.71026   0.00000  Uiso   1.00
O764   O     0.50000   0.81547   0.78974   0.00000  Uiso   1.00
O765   O     0.42392   0.75000   0.78044   0.00000  Uiso   1.00
O766   O     0.57608   0.75000   0.71955   0.00000  Uiso   1.00
O767   O     0.42392   0.74999   0.70096   0.00000  Uiso   1.00
O768   O     0.57608   0.75000   0.79903   0.00000  Uiso   1.00
Zn769  Zn    0.50000   0.75000   0.80307   0.00000  Uiso   1.00
Zn770  Zn    0.50000   0.74999   0.69693   0.00000  Uiso   1.00
C771   C     0.83349   0.66395   0.74963   0.00000  Uiso   1.00
C772   C     0.78951   0.73199   0.94012   0.00000  Uiso   1.00
C773   C     0.83005   0.75304   0.52621   0.00000  Uiso   1.00
C774   C     0.82985   0.75289   0.97294   0.00000  Uiso   1.00
C775   C     0.73367   0.74994   0.73745   0.00000  Uiso   1.00
C776   C     0.93300   0.75005   0.76255   0.00000  Uiso   1.00
C777   C     0.67849   0.74992   0.73081   0.00000  Uiso   1.00
C778   C     0.98818   0.75007   0.76921   0.00000  Uiso   1.00
C779   C     0.81285   0.54613   0.78052   0.00000  Uiso   1.00
C780   C     0.81336   0.95331   0.71294   0.00000  Uiso   1.00
C781   C     0.80965   0.59213   0.78006   0.00000  Uiso   1.00
C782   C     0.83362   0.83607   0.75042   0.00000  Uiso   1.00
C783   C     0.81016   0.90724   0.71266   0.00000  Uiso   1.00
C784   C     0.83591   0.61607   0.74921   0.00000  Uiso   1.00
C785   C     0.83604   0.88404   0.75140   0.00000  Uiso   1.00
C786   C     0.86607   0.59438   0.71924   0.00000  Uiso   1.00
C787   C     0.86592   0.90660   0.79016   0.00000  Uiso   1.00
C788   C     0.87055   0.54807   0.72018   0.00000  Uiso   1.00
C789   C     0.87040   0.95300   0.79035   0.00000  Uiso   1.00
C790   C     0.84330   0.52424   0.75103   0.00000  Uiso   1.00
C791   C     0.84343   0.97606   0.75136   0.00000  Uiso   1.00
C792   C     0.90475   0.52484   0.68927   0.00000  Uiso   1.00
C793   C     0.80597   0.71810   0.54711   0.00000  Uiso   1.00
C794   C     0.90425   0.97719   0.83129   0.00000  Uiso   1.00
C795   C     0.77983   0.67843   0.61581   0.00000  Uiso   1.00
C796   C     0.91864   0.79377   0.88823   0.00000  Uiso   1.00
C797   C     0.87151   0.77245   0.95427   0.00000  Uiso   1.00
C798   C     0.80720   0.71704   0.59671   0.00000  Uiso   1.00
C799   C     0.87269   0.77139   0.90498   0.00000  Uiso   1.00
C800   C     0.85713   0.78448   0.60679   0.00000  Uiso   1.00
C801   C     0.79219   0.73069   0.89102   0.00000  Uiso   1.00
C802   C     0.85572   0.78679   0.55717   0.00000  Uiso   1.00
H803   H     0.99082   0.74978   0.69450   0.00000  Uiso   1.00
H804   H     0.78696   0.88975   0.68264   0.00000  Uiso   1.00
H805   H     0.88687   0.61365   0.69607   0.00000  Uiso   1.00
H806   H     0.88651   0.88798   0.81956   0.00000  Uiso   1.00
H807   H     0.93500   0.50499   0.71172   0.00000  Uiso   1.00
H808   H     0.88041   0.50222   0.66302   0.00000  Uiso   1.00
H809   H     0.92529   0.54915   0.66933   0.00000  Uiso   1.00
H810   H     0.93461   0.99775   0.81776   0.00000  Uiso   1.00
H811   H     0.87969   0.99925   0.85022   0.00000  Uiso   1.00
H812   H     0.92465   0.95346   0.85737   0.00000  Uiso   1.00
H813   H     0.75577   0.68999   0.64233   0.00000  Uiso   1.00
H814   H     0.67583   0.75021   0.80553   0.00000  Uiso   1.00
H815   H     0.75242   0.66070   0.58722   0.00000  Uiso   1.00
H816   H     0.80924   0.65366   0.63100   0.00000  Uiso   1.00
H817   H     0.90547   0.81445   0.85698   0.00000  Uiso   1.00
H818   H     0.94014   0.81672   0.91601   0.00000  Uiso   1.00
H819   H     0.94699   0.76814   0.88032   0.00000  Uiso   1.00
H820   H     0.87429   0.81523   0.54338   0.00000  Uiso   1.00
H821   H     0.75560   0.71698   0.95196   0.00000  Uiso   1.00
H822   H     0.78709   0.69080   0.52506   0.00000  Uiso   1.00
H823   H     0.90409   0.78778   0.97805   0.00000  Uiso   1.00
H824   H     0.87699   0.81074   0.62974   0.00000  Uiso   1.00
H825   H     0.76083   0.71446   0.86664   0.00000  Uiso   1.00
H826   H     0.79149   0.52745   0.80371   0.00000  Uiso   1.00
H827   H     0.79221   0.97138   0.68336   0.00000  Uiso   1.00
H828   H     0.78620   0.60897   0.80319   0.00000  Uiso   1.00
N829   N     0.83333   0.74999   0.62623   0.00000  Uiso   1.00
N830   N     0.83333   0.75001   0.87376   0.00000  Uiso   1.00
O831   O     0.83334   0.68453   0.78974   0.00000  Uiso   1.00
O832   O     0.83333   0.81546   0.71026   0.00000  Uiso   1.00
O833   O     0.83334   0.68453   0.71026   0.00000  Uiso   1.00
O834   O     0.83333   0.81547   0.78974   0.00000  Uiso   1.00
O835   O     0.75725   0.75000   0.78044   0.00000  Uiso   1.00
O836   O     0.90942   0.75000   0.71955   0.00000  Uiso   1.00
O837   O     0.75725   0.74999   0.70096   0.00000  Uiso   1.00
O838   O     0.90942   0.75000   0.79903   0.00000  Uiso   1.00
Zn839  Zn    0.83333   0.75000   0.80307   0.00000  Uiso   1.00
Zn840  Zn    0.83333   0.74999   0.69693   0.00000  Uiso   1.00
loop_
_geom_bond_atom_site_label_1
_geom_bond_atom_site_label_2
_geom_bond_distance
_geom_bond_site_symmetry_2
_ccdc_geom_bond_type
C1     O63     1.289   .     A
C1     C14     1.433   .     S
C1     O61     1.288   .     A
C2     C4      1.413   .     A
C2     C31     1.411   .     A
C2     H51     1.082   .     S
C3     C23     1.399   .     A
C3     C32     1.413   .     A
C3     C424    1.517   1_554 S
C4     C27     1.399   .     A
C4     C423    1.517   .     S
C5     O67     1.285   .     A
C5     C7      1.404   .     S
C5     O65     1.277   .     A
C6     O68     1.285   .     A
C6     O66     1.277   .     A
C6     C8      1.404   .     S
C7     C148    1.335   1_455 S
C7     H173    1.088   1_455 S
C8     C77     1.335   .     S
C8     H114    1.088   .     S
C9     C20     1.397   .     A
C9     H56     1.084   .     S
C9     C11     1.378   .     A
C10    H57     1.084   .     S
C10    C21     1.396   .     A
C10    C13     1.378   .     A
C11    H58     1.084   .     S
C11    C14     1.395   .     A
C12    C15     1.434   .     S
C12    O64     1.290   .     A
C12    O62     1.288   .     A
C13    H34     1.084   .     S
C13    C15     1.395   .     A
C14    C16     1.398   .     A
C15    C17     1.398   .     A
C16    H35     1.084   .     S
C16    C18     1.390   .     A
C17    H36     1.084   .     S
C17    C19     1.390   .     A
C18    C20     1.408   .     A
C18    C22     1.507   .     S
C19    C24     1.507   .     S
C19    C21     1.408   .     A
C20    C231    1.440   1_545 S
C21    C230    1.440   .     S
C22    H39     1.111   .     S
C22    H38     1.109   .     S
C22    H37     1.110   .     S
C23    H52     1.082   .     S
C23    C28     1.410   .     A
C24    H41     1.109   .     S
C24    H42     1.111   .     S
C24    H40     1.110   .     S
C25    H43     1.104   .     S
C25    C28     1.501   .     S
C25    H45     1.111   .     S
C25    H46     1.108   .     S
C26    H48     1.111   .     S
C26    H49     1.108   .     S
C26    C29     1.501   .     S
C26    H47     1.104   .     S
C27    H53     1.082   .     S
C27    C29     1.409   .     A
C28    N59     1.380   .     A
C29    N60     1.380   .     A
C30    N59     1.365   .     A
C30    C32     1.411   .     A
C30    H54     1.082   .     S
C31    N60     1.365   .     A
C31    H55     1.081   .     S
C32    H50     1.081   .     S
H33    C77     1.088   .     S
H44    C148    1.088   1_455 S
N59    Zn70    2.014   .     S
N60    Zn69    2.014   .     S
O61    Zn69    1.986   .     S
O62    Zn70    1.986   .     S
O63    Zn70    2.000   .     S
O64    Zn69    2.000   .     S
O65    Zn69    1.963   .     S
O66    Zn70    1.963   .     S
O67    Zn70    1.982   .     S
O68    Zn69    1.982   .     S
C71    O133    1.289   .     A
C71    C84     1.433   .     S
C71    O131    1.288   .     A
C72    C74     1.413   .     A
C72    C101    1.411   .     A
C72    H121    1.082   .     S
C73    C93     1.399   .     A
C73    C102    1.413   .     A
C73    C494    1.517   1_554 S
C74    C97     1.399   .     A
C74    C493    1.517   .     S
C75    O137    1.285   .     A
C75    C77     1.404   .     S
C75    O135    1.277   .     A
C76    O138    1.285   .     A
C76    O136    1.277   .     A
C76    C78     1.404   .     S
C78    C147    1.335   .     S
C78    H184    1.088   .     S
C79    C90     1.397   .     A
C79    H126    1.084   .     S
C79    C81     1.378   .     A
C80    H127    1.084   .     S
C80    C91     1.396   .     A
C80    C83     1.378   .     A
C81    H128    1.084   .     S
C81    C84     1.395   .     A
C82    C85     1.434   .     S
C82    O134    1.290   .     A
C82    O132    1.288   .     A
C83    H104    1.084   .     S
C83    C85     1.395   .     A
C84    C86     1.398   .     A
C85    C87     1.398   .     A
C86    H105    1.084   .     S
C86    C88     1.390   .     A
C87    H106    1.084   .     S
C87    C89     1.390   .     A
C88    C90     1.408   .     A
C88    C92     1.507   .     S
C89    C94     1.507   .     S
C89    C91     1.408   .     A
C90    C301    1.440   1_545 S
C91    C300    1.440   .     S
C92    H109    1.111   .     S
C92    H108    1.109   .     S
C92    H107    1.110   .     S
C93    H122    1.082   .     S
C93    C98     1.410   .     A
C94    H111    1.109   .     S
C94    H112    1.111   .     S
C94    H110    1.110   .     S
C95    H113    1.104   .     S
C95    C98     1.501   .     S
C95    H115    1.111   .     S
C95    H116    1.108   .     S
C96    H118    1.111   .     S
C96    H119    1.108   .     S
C96    C99     1.501   .     S
C96    H117    1.104   .     S
C97    H123    1.082   .     S
C97    C99     1.409   .     A
C98    N129    1.380   .     A
C99    N130    1.380   .     A
C100   N129    1.365   .     A
C100   C102    1.411   .     A
C100   H124    1.082   .     S
C101   N130    1.365   .     A
C101   H125    1.081   .     S
C102   H120    1.081   .     S
H103   C147    1.088   .     S
N129   Zn140   2.014   .     S
N130   Zn139   2.014   .     S
O131   Zn139   1.986   .     S
O132   Zn140   1.986   .     S
O133   Zn140   2.000   .     S
O134   Zn139   2.000   .     S
O135   Zn139   1.963   .     S
O136   Zn140   1.963   .     S
O137   Zn140   1.982   .     S
O138   Zn139   1.982   .     S
C141   O203    1.289   .     A
C141   C154    1.433   .     S
C141   O201    1.288   .     A
C142   C144    1.413   .     A
C142   C171    1.411   .     A
C142   H191    1.082   .     S
C143   C163    1.399   .     A
C143   C172    1.413   .     A
C143   C564    1.517   1_554 S
C144   C167    1.399   .     A
C144   C563    1.517   .     S
C145   O207    1.285   .     A
C145   C147    1.404   .     S
C145   O205    1.277   .     A
C146   O208    1.285   .     A
C146   O206    1.277   .     A
C146   C148    1.404   .     S
C148   C7      1.335   1_655 S
C148   H44     1.088   1_655 S
C149   C160    1.397   .     A
C149   H196    1.084   .     S
C149   C151    1.378   .     A
C150   H197    1.084   .     S
C150   C161    1.396   .     A
C150   C153    1.378   .     A
C151   H198    1.084   .     S
C151   C154    1.395   .     A
C152   C155    1.434   .     S
C152   O204    1.290   .     A
C152   O202    1.288   .     A
C153   H174    1.084   .     S
C153   C155    1.395   .     A
C154   C156    1.398   .     A
C155   C157    1.398   .     A
C156   H175    1.084   .     S
C156   C158    1.390   .     A
C157   H176    1.084   .     S
C157   C159    1.390   .     A
C158   C160    1.408   .     A
C158   C162    1.507   .     S
C159   C164    1.507   .     S
C159   C161    1.408   .     A
C160   C371    1.440   1_545 S
C161   C370    1.440   .     S
C162   H179    1.111   .     S
C162   H178    1.109   .     S
C162   H177    1.110   .     S
C163   H192    1.082   .     S
C163   C168    1.410   .     A
C164   H181    1.109   .     S
C164   H182    1.111   .     S
C164   H180    1.110   .     S
C165   H183    1.104   .     S
C165   C168    1.501   .     S
C165   H185    1.111   .     S
C165   H186    1.108   .     S
C166   H188    1.111   .     S
C166   H189    1.108   .     S
C166   C169    1.501   .     S
C166   H187    1.104   .     S
C167   H193    1.082   .     S
C167   C169    1.409   .     A
C168   N199    1.380   .     A
C169   N200    1.380   .     A
C170   N199    1.365   .     A
C170   C172    1.411   .     A
C170   H194    1.082   .     S
C171   N200    1.365   .     A
C171   H195    1.081   .     S
C172   H190    1.081   .     S
H173   C7      1.088   1_655 S
N199   Zn210   2.014   .     S
N200   Zn209   2.014   .     S
O201   Zn209   1.986   .     S
O202   Zn210   1.986   .     S
O203   Zn210   2.000   .     S
O204   Zn209   2.000   .     S
O205   Zn209   1.963   .     S
O206   Zn210   1.963   .     S
O207   Zn210   1.982   .     S
O208   Zn209   1.982   .     S
C211   O273    1.289   .     A
C211   C224    1.433   .     S
C211   O271    1.288   .     A
C212   C214    1.413   .     A
C212   C241    1.411   .     A
C212   H261    1.082   .     S
C213   C233    1.399   .     A
C213   C242    1.413   .     A
C213   C634    1.517   1_554 S
C214   C237    1.399   .     A
C214   C633    1.517   .     S
C215   O277    1.285   .     A
C215   C217    1.404   .     S
C215   O275    1.277   .     A
C216   O278    1.285   .     A
C216   O276    1.277   .     A
C216   C218    1.404   .     S
C217   C358    1.335   1_455 S
C217   H383    1.088   1_455 S
C218   C287    1.335   .     S
C218   H324    1.088   .     S
C219   C230    1.397   .     A
C219   H266    1.084   .     S
C219   C221    1.378   .     A
C220   H267    1.084   .     S
C220   C231    1.396   .     A
C220   C223    1.378   .     A
C221   H268    1.084   .     S
C221   C224    1.395   .     A
C222   C225    1.434   .     S
C222   O274    1.290   .     A
C222   O272    1.288   .     A
C223   H244    1.084   .     S
C223   C225    1.395   .     A
C224   C226    1.398   .     A
C225   C227    1.398   .     A
C226   H245    1.084   .     S
C226   C228    1.390   .     A
C227   H246    1.084   .     S
C227   C229    1.390   .     A
C228   C230    1.408   .     A
C228   C232    1.507   .     S
C229   C234    1.507   .     S
C229   C231    1.408   .     A
C231   C20     1.440   1_565 S
C232   H249    1.111   .     S
C232   H248    1.109   .     S
C232   H247    1.110   .     S
C233   H262    1.082   .     S
C233   C238    1.410   .     A
C234   H251    1.109   .     S
C234   H252    1.111   .     S
C234   H250    1.110   .     S
C235   H253    1.104   .     S
C235   C238    1.501   .     S
C235   H255    1.111   .     S
C235   H256    1.108   .     S
C236   H258    1.111   .     S
C236   H259    1.108   .     S
C236   C239    1.501   .     S
C236   H257    1.104   .     S
C237   H263    1.082   .     S
C237   C239    1.409   .     A
C238   N269    1.380   .     A
C239   N270    1.380   .     A
C240   N269    1.365   .     A
C240   C242    1.411   .     A
C240   H264    1.082   .     S
C241   N270    1.365   .     A
C241   H265    1.081   .     S
C242   H260    1.081   .     S
H243   C287    1.088   .     S
H254   C358    1.088   1_455 S
N269   Zn280   2.014   .     S
N270   Zn279   2.014   .     S
O271   Zn279   1.986   .     S
O272   Zn280   1.986   .     S
O273   Zn280   2.000   .     S
O274   Zn279   2.000   .     S
O275   Zn279   1.963   .     S
O276   Zn280   1.963   .     S
O277   Zn280   1.982   .     S
O278   Zn279   1.982   .     S
C281   O343    1.289   .     A
C281   C294    1.433   .     S
C281   O341    1.288   .     A
C282   C284    1.413   .     A
C282   C311    1.411   .     A
C282   H331    1.082   .     S
C283   C303    1.399   .     A
C283   C312    1.413   .     A
C283   C704    1.517   1_554 S
C284   C307    1.399   .     A
C284   C703    1.517   .     S
C285   O347    1.285   .     A
C285   C287    1.404   .     S
C285   O345    1.277   .     A
C286   O348    1.285   .     A
C286   O346    1.277   .     A
C286   C288    1.404   .     S
C288   C357    1.335   .     S
C288   H394    1.088   .     S
C289   C300    1.397   .     A
C289   H336    1.084   .     S
C289   C291    1.378   .     A
C290   H337    1.084   .     S
C290   C301    1.396   .     A
C290   C293    1.378   .     A
C291   H338    1.084   .     S
C291   C294    1.395   .     A
C292   C295    1.434   .     S
C292   O344    1.290   .     A
C292   O342    1.288   .     A
C293   H314    1.084   .     S
C293   C295    1.395   .     A
C294   C296    1.398   .     A
C295   C297    1.398   .     A
C296   H315    1.084   .     S
C296   C298    1.390   .     A
C297   H316    1.084   .     S
C297   C299    1.390   .     A
C298   C300    1.408   .     A
C298   C302    1.507   .     S
C299   C304    1.507   .     S
C299   C301    1.408   .     A
C301   C90     1.440   1_565 S
C302   H319    1.111   .     S
C302   H318    1.109   .     S
C302   H317    1.110   .     S
C303   H332    1.082   .     S
C303   C308    1.410   .     A
C304   H321    1.109   .     S
C304   H322    1.111   .     S
C304   H320    1.110   .     S
C305   H323    1.104   .     S
C305   C308    1.501   .     S
C305   H325    1.111   .     S
C305   H326    1.108   .     S
C306   H328    1.111   .     S
C306   H329    1.108   .     S
C306   C309    1.501   .     S
C306   H327    1.104   .     S
C307   H333    1.082   .     S
C307   C309    1.409   .     A
C308   N339    1.380   .     A
C309   N340    1.380   .     A
C310   N339    1.365   .     A
C310   C312    1.411   .     A
C310   H334    1.082   .     S
C311   N340    1.365   .     A
C311   H335    1.081   .     S
C312   H330    1.081   .     S
H313   C357    1.088   .     S
N339   Zn350   2.014   .     S
N340   Zn349   2.014   .     S
O341   Zn349   1.986   .     S
O342   Zn350   1.986   .     S
O343   Zn350   2.000   .     S
O344   Zn349   2.000   .     S
O345   Zn349   1.963   .     S
O346   Zn350   1.963   .     S
O347   Zn350   1.982   .     S
O348   Zn349   1.982   .     S
C351   O413    1.289   .     A
C351   C364    1.433   .     S
C351   O411    1.288   .     A
C352   C354    1.413   .     A
C352   C381    1.411   .     A
C352   H401    1.082   .     S
C353   C373    1.399   .     A
C353   C382    1.413   .     A
C353   C774    1.517   1_554 S
C354   C377    1.399   .     A
C354   C773    1.517   .     S
C355   O417    1.285   .     A
C355   C357    1.404   .     S
C355   O415    1.277   .     A
C356   O418    1.285   .     A
C356   O416    1.277   .     A
C356   C358    1.404   .     S
C358   C217    1.335   1_655 S
C358   H254    1.088   1_655 S
C359   C370    1.397   .     A
C359   H406    1.084   .     S
C359   C361    1.378   .     A
C360   H407    1.084   .     S
C360   C371    1.396   .     A
C360   C363    1.378   .     A
C361   H408    1.084   .     S
C361   C364    1.395   .     A
C362   C365    1.434   .     S
C362   O414    1.290   .     A
C362   O412    1.288   .     A
C363   H384    1.084   .     S
C363   C365    1.395   .     A
C364   C366    1.398   .     A
C365   C367    1.398   .     A
C366   H385    1.084   .     S
C366   C368    1.390   .     A
C367   H386    1.084   .     S
C367   C369    1.390   .     A
C368   C370    1.408   .     A
C368   C372    1.507   .     S
C369   C374    1.507   .     S
C369   C371    1.408   .     A
C371   C160    1.440   1_565 S
C372   H389    1.111   .     S
C372   H388    1.109   .     S
C372   H387    1.110   .     S
C373   H402    1.082   .     S
C373   C378    1.410   .     A
C374   H391    1.109   .     S
C374   H392    1.111   .     S
C374   H390    1.110   .     S
C375   H393    1.104   .     S
C375   C378    1.501   .     S
C375   H395    1.111   .     S
C375   H396    1.108   .     S
C376   H398    1.111   .     S
C376   H399    1.108   .     S
C376   C379    1.501   .     S
C376   H397    1.104   .     S
C377   H403    1.082   .     S
C377   C379    1.409   .     A
C378   N409    1.380   .     A
C379   N410    1.380   .     A
C380   N409    1.365   .     A
C380   C382    1.411   .     A
C380   H404    1.082   .     S
C381   N410    1.365   .     A
C381   H405    1.081   .     S
C382   H400    1.081   .     S
H383   C217    1.088   1_655 S
N409   Zn420   2.014   .     S
N410   Zn419   2.014   .     S
O411   Zn419   1.986   .     S
O412   Zn420   1.986   .     S
O413   Zn420   2.000   .     S
O414   Zn419   2.000   .     S
O415   Zn419   1.963   .     S
O416   Zn420   1.963   .     S
O417   Zn420   1.982   .     S
O418   Zn419   1.982   .     S
C421   O483    1.289   .     A
C421   C434    1.433   .     S
C421   O481    1.288   .     A
C422   C424    1.413   .     A
C422   C451    1.411   .     A
C422   H471    1.082   .     S
C423   C443    1.399   .     A
C423   C452    1.413   .     A
C424   C447    1.399   .     A
C424   C3      1.517   1_556 S
C425   O487    1.285   .     A
C425   C427    1.404   .     S
C425   O485    1.277   .     A
C426   O488    1.285   .     A
C426   O486    1.277   .     A
C426   C428    1.404   .     S
C427   C568    1.335   1_455 S
C427   H593    1.088   1_455 S
C428   C497    1.335   .     S
C428   H534    1.088   .     S
C429   C440    1.397   .     A
C429   H476    1.084   .     S
C429   C431    1.378   .     A
C430   H477    1.084   .     S
C430   C441    1.396   .     A
C430   C433    1.378   .     A
C431   H478    1.084   .     S
C431   C434    1.395   .     A
C432   C435    1.434   .     S
C432   O484    1.290   .     A
C432   O482    1.288   .     A
C433   H454    1.084   .     S
C433   C435    1.395   .     A
C434   C436    1.398   .     A
C435   C437    1.398   .     A
C436   H455    1.084   .     S
C436   C438    1.390   .     A
C437   H456    1.084   .     S
C437   C439    1.390   .     A
C438   C440    1.408   .     A
C438   C442    1.507   .     S
C439   C444    1.507   .     S
C439   C441    1.408   .     A
C440   C651    1.440   1_545 S
C441   C650    1.440   .     S
C442   H459    1.111   .     S
C442   H458    1.109   .     S
C442   H457    1.110   .     S
C443   H472    1.082   .     S
C443   C448    1.410   .     A
C444   H461    1.109   .     S
C444   H462    1.111   .     S
C444   H460    1.110   .     S
C445   H463    1.104   .     S
C445   C448    1.501   .     S
C445   H465    1.111   .     S
C445   H466    1.108   .     S
C446   H468    1.111   .     S
C446   H469    1.108   .     S
C446   C449    1.501   .     S
C446   H467    1.104   .     S
C447   H473    1.082   .     S
C447   C449    1.409   .     A
C448   N479    1.380   .     A
C449   N480    1.380   .     A
C450   N479    1.365   .     A
C450   C452    1.411   .     A
C450   H474    1.082   .     S
C451   N480    1.365   .     A
C451   H475    1.081   .     S
C452   H470    1.081   .     S
H453   C497    1.088   .     S
H464   C568    1.088   1_455 S
N479   Zn490   2.014   .     S
N480   Zn489   2.014   .     S
O481   Zn489   1.986   .     S
O482   Zn490   1.986   .     S
O483   Zn490   2.000   .     S
O484   Zn489   2.000   .     S
O485   Zn489   1.963   .     S
O486   Zn490   1.963   .     S
O487   Zn490   1.982   .     S
O488   Zn489   1.982   .     S
C491   O553    1.289   .     A
C491   C504    1.433   .     S
C491   O551    1.288   .     A
C492   C494    1.413   .     A
C492   C521    1.411   .     A
C492   H541    1.082   .     S
C493   C513    1.399   .     A
C493   C522    1.413   .     A
C494   C517    1.399   .     A
C494   C73     1.517   1_556 S
C495   O557    1.285   .     A
C495   C497    1.404   .     S
C495   O555    1.277   .     A
C496   O558    1.285   .     A
C496   O556    1.277   .     A
C496   C498    1.404   .     S
C498   C567    1.335   .     S
C498   H604    1.088   .     S
C499   C510    1.397   .     A
C499   H546    1.084   .     S
C499   C501    1.378   .     A
C500   H547    1.084   .     S
C500   C511    1.396   .     A
C500   C503    1.378   .     A
C501   H548    1.084   .     S
C501   C504    1.395   .     A
C502   C505    1.434   .     S
C502   O554    1.290   .     A
C502   O552    1.288   .     A
C503   H524    1.084   .     S
C503   C505    1.395   .     A
C504   C506    1.398   .     A
C505   C507    1.398   .     A
C506   H525    1.084   .     S
C506   C508    1.390   .     A
C507   H526    1.084   .     S
C507   C509    1.390   .     A
C508   C510    1.408   .     A
C508   C512    1.507   .     S
C509   C514    1.507   .     S
C509   C511    1.408   .     A
C510   C721    1.440   1_545 S
C511   C720    1.440   .     S
C512   H529    1.111   .     S
C512   H528    1.109   .     S
C512   H527    1.110   .     S
C513   H542    1.082   .     S
C513   C518    1.410   .     A
C514   H531    1.109   .     S
C514   H532    1.111   .     S
C514   H530    1.110   .     S
C515   H533    1.104   .     S
C515   C518    1.501   .     S
C515   H535    1.111   .     S
C515   H536    1.108   .     S
C516   H538    1.111   .     S
C516   H539    1.108   .     S
C516   C519    1.501   .     S
C516   H537    1.104   .     S
C517   H543    1.082   .     S
C517   C519    1.409   .     A
C518   N549    1.380   .     A
C519   N550    1.380   .     A
C520   N549    1.365   .     A
C520   C522    1.411   .     A
C520   H544    1.082   .     S
C521   N550    1.365   .     A
C521   H545    1.081   .     S
C522   H540    1.081   .     S
H523   C567    1.088   .     S
N549   Zn560   2.014   .     S
N550   Zn559   2.014   .     S
O551   Zn559   1.986   .     S
O552   Zn560   1.986   .     S
O553   Zn560   2.000   .     S
O554   Zn559   2.000   .     S
O555   Zn559   1.963   .     S
O556   Zn560   1.963   .     S
O557   Zn560   1.982   .     S
O558   Zn559   1.982   .     S
C561   O623    1.289   .     A
C561   C574    1.433   .     S
C561   O621    1.288   .     A
C562   C564    1.413   .     A
C562   C591    1.411   .     A
C562   H611    1.082   .     S
C563   C583    1.399   .     A
C563   C592    1.413   .     A
C564   C587    1.399   .     A
C564   C143    1.517   1_556 S
C565   O627    1.285   .     A
C565   C567    1.404   .     S
C565   O625    1.277   .     A
C566   O628    1.285   .     A
C566   O626    1.277   .     A
C566   C568    1.404   .     S
C568   C427    1.335   1_655 S
C568   H464    1.088   1_655 S
C569   C580    1.397   .     A
C569   H616    1.084   .     S
C569   C571    1.378   .     A
C570   H617    1.084   .     S
C570   C581    1.396   .     A
C570   C573    1.378   .     A
C571   H618    1.084   .     S
C571   C574    1.395   .     A
C572   C575    1.434   .     S
C572   O624    1.290   .     A
C572   O622    1.288   .     A
C573   H594    1.084   .     S
C573   C575    1.395   .     A
C574   C576    1.398   .     A
C575   C577    1.398   .     A
C576   H595    1.084   .     S
C576   C578    1.390   .     A
C577   H596    1.084   .     S
C577   C579    1.390   .     A
C578   C580    1.408   .     A
C578   C582    1.507   .     S
C579   C584    1.507   .     S
C579   C581    1.408   .     A
C580   C791    1.440   1_545 S
C581   C790    1.440   .     S
C582   H599    1.111   .     S
C582   H598    1.109   .     S
C582   H597    1.110   .     S
C583   H612    1.082   .     S
C583   C588    1.410   .     A
C584   H601    1.109   .     S
C584   H602    1.111   .     S
C584   H600    1.110   .     S
C585   H603    1.104   .     S
C585   C588    1.501   .     S
C585   H605    1.111   .     S
C585   H606    1.108   .     S
C586   H608    1.111   .     S
C586   H609    1.108   .     S
C586   C589    1.501   .     S
C586   H607    1.104   .     S
C587   H613    1.082   .     S
C587   C589    1.409   .     A
C588   N619    1.380   .     A
C589   N620    1.380   .     A
C590   N619    1.365   .     A
C590   C592    1.411   .     A
C590   H614    1.082   .     S
C591   N620    1.365   .     A
C591   H615    1.081   .     S
C592   H610    1.081   .     S
H593   C427    1.088   1_655 S
N619   Zn630   2.014   .     S
N620   Zn629   2.014   .     S
O621   Zn629   1.986   .     S
O622   Zn630   1.986   .     S
O623   Zn630   2.000   .     S
O624   Zn629   2.000   .     S
O625   Zn629   1.963   .     S
O626   Zn630   1.963   .     S
O627   Zn630   1.982   .     S
O628   Zn629   1.982   .     S
C631   O693    1.289   .     A
C631   C644    1.433   .     S
C631   O691    1.288   .     A
C632   C634    1.413   .     A
C632   C661    1.411   .     A
C632   H681    1.082   .     S
C633   C653    1.399   .     A
C633   C662    1.413   .     A
C634   C657    1.399   .     A
C634   C213    1.517   1_556 S
C635   O697    1.285   .     A
C635   C637    1.404   .     S
C635   O695    1.277   .     A
C636   O698    1.285   .     A
C636   O696    1.277   .     A
C636   C638    1.404   .     S
C637   C778    1.335   1_455 S
C637   H803    1.088   1_455 S
C638   C707    1.335   .     S
C638   H744    1.088   .     S
C639   C650    1.397   .     A
C639   H686    1.084   .     S
C639   C641    1.378   .     A
C640   H687    1.084   .     S
C640   C651    1.396   .     A
C640   C643    1.378   .     A
C641   H688    1.084   .     S
C641   C644    1.395   .     A
C642   C645    1.434   .     S
C642   O694    1.290   .     A
C642   O692    1.288   .     A
C643   H664    1.084   .     S
C643   C645    1.395   .     A
C644   C646    1.398   .     A
C645   C647    1.398   .     A
C646   H665    1.084   .     S
C646   C648    1.390   .     A
C647   H666    1.084   .     S
C647   C649    1.390   .     A
C648   C650    1.408   .     A
C648   C652    1.507   .     S
C649   C654    1.507   .     S
C649   C651    1.408   .     A
C651   C440    1.440   1_565 S
C652   H669    1.111   .     S
C652   H668    1.109   .     S
C652   H667    1.110   .     S
C653   H682    1.082   .     S
C653   C658    1.410   .     A
C654   H671    1.109   .     S
C654   H672    1.111   .     S
C654   H670    1.110   .     S
C655   H673    1.104   .     S
C655   C658    1.501   .     S
C655   H675    1.111   .     S
C655   H676    1.108   .     S
C656   H678    1.111   .     S
C656   H679    1.108   .     S
C656   C659    1.501   .     S
C656   H677    1.104   .     S
C657   H683    1.082   .     S
C657   C659    1.409   .     A
C658   N689    1.380   .     A
C659   N690    1.380   .     A
C660   N689    1.365   .     A
C660   C662    1.411   .     A
C660   H684    1.082   .     S
C661   N690    1.365   .     A
C661   H685    1.081   .     S
C662   H680    1.081   .     S
H663   C707    1.088   .     S
H674   C778    1.088   1_455 S
N689   Zn700   2.014   .     S
N690   Zn699   2.014   .     S
O691   Zn699   1.986   .     S
O692   Zn700   1.986   .     S
O693   Zn700   2.000   .     S
O694   Zn699   2.000   .     S
O695   Zn699   1.963   .     S
O696   Zn700   1.963   .     S
O697   Zn700   1.982   .     S
O698   Zn699   1.982   .     S
C701   O763    1.289   .     A
C701   C714    1.433   .     S
C701   O761    1.288   .     A
C702   C704    1.413   .     A
C702   C731    1.411   .     A
C702   H751    1.082   .     S
C703   C723    1.399   .     A
C703   C732    1.413   .     A
C704   C727    1.399   .     A
C704   C283    1.517   1_556 S
C705   O767    1.285   .     A
C705   C707    1.404   .     S
C705   O765    1.277   .     A
C706   O768    1.285   .     A
C706   O766    1.277   .     A
C706   C708    1.404   .     S
C708   C777    1.335   .     S
C708   H814    1.088   .     S
C709   C720    1.397   .     A
C709   H756    1.084   .     S
C709   C711    1.378   .     A
C710   H757    1.084   .     S
C710   C721    1.396   .     A
C710   C713    1.378   .     A
C711   H758    1.084   .     S
C711   C714    1.395   .     A
C712   C715    1.434   .     S
C712   O764    1.290   .     A
C712   O762    1.288   .     A
C713   H734    1.084   .     S
C713   C715    1.395   .     A
C714   C716    1.398   .     A
C715   C717    1.398   .     A
C716   H735    1.084   .     S
C716   C718    1.390   .     A
C717   H736    1.084   .     S
C717   C719    1.390   .     A
C718   C720    1.408   .     A
C718   C722    1.507   .     S
C719   C724    1.507   .     S
C719   C721    1.408   .     A
C721   C510    1.440   1_565 S
C722   H739    1.111   .     S
C722   H738    1.109   .     S
C722   H737    1.110   .     S
C723   H752    1.082   .     S
C723   C728    1.410   .     A
C724   H741    1.109   .     S
C724   H742    1.111   .     S
C724   H740    1.110   .     S
C725   H743    1.104   .     S
C725   C728    1.501   .     S
C725   H745    1.111   .     S
C725   H746    1.108   .     S
C726   H748    1.111   .     S
C726   H749    1.108   .     S
C726   C729    1.501   .     S
C726   H747    1.104   .     S
C727   H753    1.082   .     S
C727   C729    1.409   .     A
C728   N759    1.380   .     A
C729   N760    1.380   .     A
C730   N759    1.365   .     A
C730   C732    1.411   .     A
C730   H754    1.082   .     S
C731   N760    1.365   .     A
C731   H755    1.081   .     S
C732   H750    1.081   .     S
H733   C777    1.088   .     S
N759   Zn770   2.014   .     S
N760   Zn769   2.014   .     S
O761   Zn769   1.986   .     S
O762   Zn770   1.986   .     S
O763   Zn770   2.000   .     S
O764   Zn769   2.000   .     S
O765   Zn769   1.963   .     S
O766   Zn770   1.963   .     S
O767   Zn770   1.982   .     S
O768   Zn769   1.982   .     S
C771   O833    1.289   .     A
C771   C784    1.433   .     S
C771   O831    1.288   .     A
C772   C774    1.413   .     A
C772   C801    1.411   .     A
C772   H821    1.082   .     S
C773   C793    1.399   .     A
C773   C802    1.413   .     A
C774   C797    1.399   .     A
C774   C353    1.517   1_556 S
C775   O837    1.285   .     A
C775   C777    1.404   .     S
C775   O835    1.277   .     A
C776   O838    1.285   .     A
C776   O836    1.277   .     A
C776   C778    1.404   .     S
C778   C637    1.335   1_655 S
C778   H674    1.088   1_655 S
C779   C790    1.397   .     A
C779   H826    1.084   .     S
C779   C781    1.378   .     A
C780   H827    1.084   .     S
C780   C791    1.396   .     A
C780   C783    1.378   .     A
C781   H828    1.084   .     S
C781   C784    1.395   .     A
C782   C785    1.434   .     S
C782   O834    1.290   .     A
C782   O832    1.288   .     A
C783   H804    1.084   .     S
C783   C785    1.395   .     A
C784   C786    1.398   .     A
C785   C787    1.398   .     A
C786   H805    1.084   .     S
C786   C788    1.390   .     A
C787   H806    1.084   .     S
C787   C789    1.390   .     A
C788   C790    1.408   .     A
C788   C792    1.507   .     S
C789   C794    1.507   .     S
C789   C791    1.408   .     A
C791   C580    1.440   1_565 S
C792   H809    1.111   .     S
C792   H808    1.109   .     S
C792   H807    1.110   .     S
C793   H822    1.082   .     S
C793   C798    1.410   .     A
C794   H811    1.109   .     S
C794   H812    1.111   .     S
C794   H810    1.110   .     S
C795   H813    1.104   .     S
C795   C798    1.501   .     S
C795   H815    1.111   .     S
C795   H816    1.108   .     S
C796   H818    1.111   .     S
C796   H819    1.108   .     S
C796   C799    1.501   .     S
C796   H817    1.104   .     S
C797   H823    1.082   .     S
C797   C799    1.409   .     A
C798   N829    1.380   .     A
C799   N830    1.380   .     A
C800   N829    1.365   .     A
C800   C802    1.411   .     A
C800   H824    1.082   .     S
C801   N830    1.365   .     A
C801   H825    1.081   .     S
C802   H820    1.081   .     S
H803   C637    1.088   1_655 S
N829   Zn840   2.014   .     S
N830   Zn839   2.014   .     S
O831   Zn839   1.986   .     S
O832   Zn840   1.986   .     S
O833   Zn840   2.000   .     S
O834   Zn839   2.000   .     S
O835   Zn839   1.963   .     S
O836   Zn840   1.963   .     S
O837   Zn840   1.982   .     S
O838   Zn839   1.982   .     S
