data_str_m3_o1_o16_pcu_sym.81
_audit_creation_date              2020-01-03
_audit_creation_method            'Materials Studio'
_symmetry_space_group_name_H-M    'P1'
_symmetry_Int_Tables_number       1
_symmetry_cell_setting            triclinic
loop_
_symmetry_equiv_pos_as_xyz
  x,y,z
_cell_length_a                    29.6928
_cell_length_b                    31.8434
_cell_length_c                    26.5644
_cell_angle_alpha                 91.4236
_cell_angle_beta                  73.2073
_cell_angle_gamma                 91.5425
loop_
_atom_site_label
_atom_site_type_symbol
_atom_site_fract_x
_atom_site_fract_y
_atom_site_fract_z
_atom_site_U_iso_or_equiv
_atom_site_adp_type
_atom_site_occupancy
C1     C     0.16762   0.24649   0.24814   0.00000  Uiso   1.00
C2     C     0.12919   0.17777   0.40895   0.00000  Uiso   1.00
C3     C     0.18375   0.31229   0.28523   0.00000  Uiso   1.00
C4     C     0.14177   0.17017   0.35147   0.00000  Uiso   1.00
C5     C     0.18191   0.02197   0.28805   0.00000  Uiso   1.00
C6     C     0.16544   0.04265   0.25112   0.00000  Uiso   1.00
C7     C     0.15134   0.02107   0.21176   0.00000  Uiso   1.00
C8     C     0.15266   0.31126   0.20945   0.00000  Uiso   1.00
C9     C     0.16877   0.29064   0.24670   0.00000  Uiso   1.00
C10    C     0.31172   0.13179   0.23503   0.00000  Uiso   1.00
C11    C     0.02593   0.13162   0.23460   0.00000  Uiso   1.00
C12    C     0.14900   0.16915   0.49065   0.00000  Uiso   1.00
C13    C     0.02161   0.20221   0.26303   0.00000  Uiso   1.00
C14    C     0.30745   0.20239   0.26191   0.00000  Uiso   1.00
C15    C     0.16601   0.08680   0.25081   0.00000  Uiso   1.00
C16    C     0.19157   0.16099   0.14957   0.00000  Uiso   1.00
C17    C     0.26344   0.13611   0.01098   0.00000  Uiso   1.00
C18    C     0.20501   0.14933   0.09393   0.00000  Uiso   1.00
C19    C     0.08262   0.18591   0.43727   0.00000  Uiso   1.00
C20    C     0.06952   0.19023   0.49214   0.00000  Uiso   1.00
C21    C     0.10251   0.18039   0.01870   0.00000  Uiso   1.00
C22    C     0.27676   0.08446   0.11324   0.00000  Uiso   1.00
C23    C     0.16347   0.17559   0.43646   0.00000  Uiso   1.00
C24    C     0.30236   0.12661   0.36565   0.00000  Uiso   1.00
C25    C     0.01512   0.22713   0.06756   0.00000  Uiso   1.00
C26    C     0.21046   0.25840   0.40362   0.00000  Uiso   1.00
C27    C     0.18293   0.15594   0.01497   0.00000  Uiso   1.00
C28    C     0.23112   0.15112   0.48515   0.00000  Uiso   1.00
C29    C     0.24489   0.16426   0.43243   0.00000  Uiso   1.00
C30    C     0.21181   0.18327   0.41258   0.00000  Uiso   1.00
C31    C     0.17034   0.14683   0.06819   0.00000  Uiso   1.00
C32    C     0.25114   0.13841   0.06609   0.00000  Uiso   1.00
Cl33   Cl    0.19872   0.04859   0.33911   0.00000  Uiso   1.00
Cl34   Cl    0.13581   0.28435   0.15867   0.00000  Uiso   1.00
Cl35   Cl    0.05428   0.08419   0.21389   0.00000  Uiso   1.00
Cl36   Cl    0.31677   0.11097   0.47832   0.00000  Uiso   1.00
Cl37   Cl    0.11815   0.11735   0.09706   0.00000  Uiso   1.00
H38    H     0.14049   0.03779   0.18232   0.00000  Uiso   1.00
H39    H     0.24079   0.08008   0.14045   0.00000  Uiso   1.00
H40    H     0.30263   0.07835   0.13497   0.00000  Uiso   1.00
H41    H     0.31743   0.17272   0.41742   0.00000  Uiso   1.00
H42    H     0.00667   0.12743   0.34264   0.00000  Uiso   1.00
H43    H     0.27983   0.12602   0.33893   0.00000  Uiso   1.00
H44    H     0.29492   0.09714   0.38824   0.00000  Uiso   1.00
H45    H     0.00251   0.21128   0.49604   0.00000  Uiso   1.00
H46    H     0.31141   0.23758   0.08084   0.00000  Uiso   1.00
H47    H     0.03882   0.25532   0.06069   0.00000  Uiso   1.00
H48    H     0.02082   0.20810   0.09952   0.00000  Uiso   1.00
H49    H     0.29544   0.10370   0.22388   0.00000  Uiso   1.00
H50    H     0.26202   0.21978   0.36006   0.00000  Uiso   1.00
H51    H     0.22905   0.28444   0.37838   0.00000  Uiso   1.00
H52    H     0.21840   0.26183   0.44197   0.00000  Uiso   1.00
H53    H     0.17202   0.26118   0.40985   0.00000  Uiso   1.00
H54    H     0.03740   0.23068   0.27392   0.00000  Uiso   1.00
H55    H     0.28810   0.23123   0.27089   0.00000  Uiso   1.00
H56    H     0.05703   0.19070   0.41635   0.00000  Uiso   1.00
H57    H     0.09241   0.18346   0.06088   0.00000  Uiso   1.00
H58    H     0.19546   0.29554   0.31380   0.00000  Uiso   1.00
H59    H     0.31837   0.13414   0.07517   0.00000  Uiso   1.00
H60    H     0.28207   0.06137   0.08009   0.00000  Uiso   1.00
N61    N     0.04760   0.16668   0.25001   0.00000  Uiso   1.00
N62    N     0.28573   0.16665   0.25001   0.00000  Uiso   1.00
N63    N     0.28359   0.12685   0.09361   0.00000  Uiso   1.00
N64    N     0.29207   0.16315   0.40012   0.00000  Uiso   1.00
N65    N     0.02258   0.20220   0.01961   0.00000  Uiso   1.00
N66    N     0.22653   0.21835   0.37872   0.00000  Uiso   1.00
O67    O     0.12846   0.22775   0.25001   0.00000  Uiso   1.00
O68    O     0.20490   0.22774   0.25001   0.00000  Uiso   1.00
O69    O     0.10947   0.16666   0.32681   0.00000  Uiso   1.00
O70    O     0.18591   0.16665   0.32681   0.00000  Uiso   1.00
O71    O     0.12843   0.10559   0.25000   0.00000  Uiso   1.00
O72    O     0.20488   0.10558   0.25000   0.00000  Uiso   1.00
O73    O     0.14742   0.16668   0.17319   0.00000  Uiso   1.00
O74    O     0.22387   0.16667   0.17319   0.00000  Uiso   1.00
Zn75   Zn    0.11562   0.16667   0.25000   0.00000  Uiso   1.00
Zn76   Zn    0.21771   0.16666   0.25000   0.00000  Uiso   1.00
C77    C     0.50095   0.24649   0.24814   0.00000  Uiso   1.00
C78    C     0.46252   0.17777   0.40895   0.00000  Uiso   1.00
C79    C     0.51708   0.31229   0.28523   0.00000  Uiso   1.00
C80    C     0.47511   0.17017   0.35147   0.00000  Uiso   1.00
C81    C     0.51524   0.02197   0.28805   0.00000  Uiso   1.00
C82    C     0.49877   0.04265   0.25112   0.00000  Uiso   1.00
C83    C     0.48467   0.02107   0.21176   0.00000  Uiso   1.00
C84    C     0.48600   0.31126   0.20945   0.00000  Uiso   1.00
C85    C     0.50211   0.29064   0.24670   0.00000  Uiso   1.00
C86    C     0.64505   0.13179   0.23503   0.00000  Uiso   1.00
C87    C     0.35926   0.13162   0.23460   0.00000  Uiso   1.00
C88    C     0.48233   0.16915   0.49065   0.00000  Uiso   1.00
C89    C     0.35494   0.20221   0.26303   0.00000  Uiso   1.00
C90    C     0.64079   0.20239   0.26191   0.00000  Uiso   1.00
C91    C     0.49935   0.08680   0.25081   0.00000  Uiso   1.00
C92    C     0.52491   0.16099   0.14957   0.00000  Uiso   1.00
C93    C     0.59678   0.13611   0.01098   0.00000  Uiso   1.00
C94    C     0.53835   0.14933   0.09393   0.00000  Uiso   1.00
C95    C     0.41595   0.18591   0.43727   0.00000  Uiso   1.00
C96    C     0.40285   0.19023   0.49214   0.00000  Uiso   1.00
C97    C     0.43584   0.18039   0.01870   0.00000  Uiso   1.00
C98    C     0.61009   0.08446   0.11324   0.00000  Uiso   1.00
C99    C     0.49680   0.17559   0.43646   0.00000  Uiso   1.00
C100   C     0.63570   0.12661   0.36565   0.00000  Uiso   1.00
C101   C     0.34845   0.22713   0.06756   0.00000  Uiso   1.00
C102   C     0.54379   0.25840   0.40362   0.00000  Uiso   1.00
C103   C     0.51627   0.15594   0.01497   0.00000  Uiso   1.00
C104   C     0.56446   0.15112   0.48515   0.00000  Uiso   1.00
C105   C     0.57822   0.16426   0.43243   0.00000  Uiso   1.00
C106   C     0.54514   0.18327   0.41258   0.00000  Uiso   1.00
C107   C     0.50367   0.14683   0.06819   0.00000  Uiso   1.00
C108   C     0.58448   0.13841   0.06609   0.00000  Uiso   1.00
Cl109  Cl    0.53205   0.04859   0.33911   0.00000  Uiso   1.00
Cl110  Cl    0.46914   0.28435   0.15867   0.00000  Uiso   1.00
Cl111  Cl    0.38761   0.08419   0.21389   0.00000  Uiso   1.00
Cl112  Cl    0.65010   0.11097   0.47832   0.00000  Uiso   1.00
Cl113  Cl    0.45148   0.11735   0.09706   0.00000  Uiso   1.00
H114   H     0.47382   0.03779   0.18232   0.00000  Uiso   1.00
H115   H     0.57412   0.08008   0.14045   0.00000  Uiso   1.00
H116   H     0.63596   0.07835   0.13497   0.00000  Uiso   1.00
H117   H     0.65076   0.17272   0.41742   0.00000  Uiso   1.00
H118   H     0.34000   0.12743   0.34264   0.00000  Uiso   1.00
H119   H     0.61316   0.12602   0.33893   0.00000  Uiso   1.00
H120   H     0.62826   0.09714   0.38824   0.00000  Uiso   1.00
H121   H     0.33584   0.21128   0.49604   0.00000  Uiso   1.00
H122   H     0.64475   0.23758   0.08084   0.00000  Uiso   1.00
H123   H     0.37215   0.25532   0.06069   0.00000  Uiso   1.00
H124   H     0.35416   0.20810   0.09952   0.00000  Uiso   1.00
H125   H     0.62877   0.10370   0.22388   0.00000  Uiso   1.00
H126   H     0.59536   0.21978   0.36006   0.00000  Uiso   1.00
H127   H     0.56238   0.28444   0.37838   0.00000  Uiso   1.00
H128   H     0.55173   0.26183   0.44197   0.00000  Uiso   1.00
H129   H     0.50536   0.26118   0.40985   0.00000  Uiso   1.00
H130   H     0.37073   0.23068   0.27392   0.00000  Uiso   1.00
H131   H     0.62143   0.23123   0.27089   0.00000  Uiso   1.00
H132   H     0.39037   0.19070   0.41635   0.00000  Uiso   1.00
H133   H     0.42574   0.18346   0.06088   0.00000  Uiso   1.00
H134   H     0.52880   0.29554   0.31380   0.00000  Uiso   1.00
H135   H     0.65170   0.13414   0.07517   0.00000  Uiso   1.00
H136   H     0.61540   0.06137   0.08009   0.00000  Uiso   1.00
N137   N     0.38093   0.16668   0.25001   0.00000  Uiso   1.00
N138   N     0.61906   0.16665   0.25001   0.00000  Uiso   1.00
N139   N     0.61692   0.12685   0.09361   0.00000  Uiso   1.00
N140   N     0.62541   0.16315   0.40012   0.00000  Uiso   1.00
N141   N     0.35591   0.20220   0.01961   0.00000  Uiso   1.00
N142   N     0.55986   0.21835   0.37872   0.00000  Uiso   1.00
O143   O     0.46179   0.22775   0.25001   0.00000  Uiso   1.00
O144   O     0.53823   0.22774   0.25001   0.00000  Uiso   1.00
O145   O     0.44280   0.16666   0.32681   0.00000  Uiso   1.00
O146   O     0.51924   0.16665   0.32681   0.00000  Uiso   1.00
O147   O     0.46177   0.10559   0.25000   0.00000  Uiso   1.00
O148   O     0.53821   0.10558   0.25000   0.00000  Uiso   1.00
O149   O     0.48076   0.16668   0.17319   0.00000  Uiso   1.00
O150   O     0.55720   0.16667   0.17319   0.00000  Uiso   1.00
Zn151  Zn    0.44896   0.16667   0.25000   0.00000  Uiso   1.00
Zn152  Zn    0.55104   0.16666   0.25000   0.00000  Uiso   1.00
C153   C     0.83428   0.24649   0.24814   0.00000  Uiso   1.00
C154   C     0.79586   0.17777   0.40895   0.00000  Uiso   1.00
C155   C     0.85041   0.31229   0.28523   0.00000  Uiso   1.00
C156   C     0.80844   0.17017   0.35147   0.00000  Uiso   1.00
C157   C     0.84858   0.02197   0.28805   0.00000  Uiso   1.00
C158   C     0.83210   0.04265   0.25112   0.00000  Uiso   1.00
C159   C     0.81800   0.02107   0.21176   0.00000  Uiso   1.00
C160   C     0.81933   0.31126   0.20945   0.00000  Uiso   1.00
C161   C     0.83544   0.29064   0.24670   0.00000  Uiso   1.00
C162   C     0.97838   0.13179   0.23503   0.00000  Uiso   1.00
C163   C     0.69260   0.13162   0.23460   0.00000  Uiso   1.00
C164   C     0.81566   0.16915   0.49065   0.00000  Uiso   1.00
C165   C     0.68827   0.20221   0.26303   0.00000  Uiso   1.00
C166   C     0.97412   0.20239   0.26191   0.00000  Uiso   1.00
C167   C     0.83268   0.08680   0.25081   0.00000  Uiso   1.00
C168   C     0.85824   0.16099   0.14957   0.00000  Uiso   1.00
C169   C     0.93011   0.13611   0.01098   0.00000  Uiso   1.00
C170   C     0.87168   0.14933   0.09393   0.00000  Uiso   1.00
C171   C     0.74928   0.18591   0.43727   0.00000  Uiso   1.00
C172   C     0.73619   0.19023   0.49214   0.00000  Uiso   1.00
C173   C     0.76918   0.18039   0.01870   0.00000  Uiso   1.00
C174   C     0.94342   0.08446   0.11324   0.00000  Uiso   1.00
C175   C     0.83014   0.17559   0.43646   0.00000  Uiso   1.00
C176   C     0.96903   0.12661   0.36565   0.00000  Uiso   1.00
C177   C     0.68178   0.22713   0.06756   0.00000  Uiso   1.00
C178   C     0.87712   0.25840   0.40362   0.00000  Uiso   1.00
C179   C     0.84960   0.15594   0.01497   0.00000  Uiso   1.00
C180   C     0.89779   0.15112   0.48515   0.00000  Uiso   1.00
C181   C     0.91155   0.16426   0.43243   0.00000  Uiso   1.00
C182   C     0.87847   0.18327   0.41258   0.00000  Uiso   1.00
C183   C     0.83700   0.14683   0.06819   0.00000  Uiso   1.00
C184   C     0.91781   0.13841   0.06609   0.00000  Uiso   1.00
Cl185  Cl    0.86539   0.04859   0.33911   0.00000  Uiso   1.00
Cl186  Cl    0.80248   0.28435   0.15867   0.00000  Uiso   1.00
Cl187  Cl    0.72094   0.08419   0.21389   0.00000  Uiso   1.00
Cl188  Cl    0.98343   0.11097   0.47832   0.00000  Uiso   1.00
Cl189  Cl    0.78482   0.11735   0.09706   0.00000  Uiso   1.00
H190   H     0.80715   0.03779   0.18232   0.00000  Uiso   1.00
H191   H     0.90745   0.08008   0.14045   0.00000  Uiso   1.00
H192   H     0.96930   0.07835   0.13497   0.00000  Uiso   1.00
H193   H     0.98409   0.17272   0.41742   0.00000  Uiso   1.00
H194   H     0.67333   0.12743   0.34264   0.00000  Uiso   1.00
H195   H     0.94649   0.12602   0.33893   0.00000  Uiso   1.00
H196   H     0.96159   0.09714   0.38824   0.00000  Uiso   1.00
H197   H     0.66918   0.21128   0.49604   0.00000  Uiso   1.00
H198   H     0.97808   0.23758   0.08084   0.00000  Uiso   1.00
H199   H     0.70549   0.25532   0.06069   0.00000  Uiso   1.00
H200   H     0.68749   0.20810   0.09952   0.00000  Uiso   1.00
H201   H     0.96211   0.10370   0.22388   0.00000  Uiso   1.00
H202   H     0.92869   0.21978   0.36006   0.00000  Uiso   1.00
H203   H     0.89571   0.28444   0.37838   0.00000  Uiso   1.00
H204   H     0.88506   0.26183   0.44197   0.00000  Uiso   1.00
H205   H     0.83869   0.26118   0.40985   0.00000  Uiso   1.00
H206   H     0.70407   0.23068   0.27392   0.00000  Uiso   1.00
H207   H     0.95477   0.23123   0.27089   0.00000  Uiso   1.00
H208   H     0.72370   0.19070   0.41635   0.00000  Uiso   1.00
H209   H     0.75908   0.18346   0.06088   0.00000  Uiso   1.00
H210   H     0.86213   0.29554   0.31380   0.00000  Uiso   1.00
H211   H     0.98503   0.13414   0.07517   0.00000  Uiso   1.00
H212   H     0.94874   0.06137   0.08009   0.00000  Uiso   1.00
N213   N     0.71426   0.16668   0.25001   0.00000  Uiso   1.00
N214   N     0.95239   0.16665   0.25001   0.00000  Uiso   1.00
N215   N     0.95025   0.12685   0.09361   0.00000  Uiso   1.00
N216   N     0.95874   0.16315   0.40012   0.00000  Uiso   1.00
N217   N     0.68925   0.20220   0.01961   0.00000  Uiso   1.00
N218   N     0.89320   0.21835   0.37872   0.00000  Uiso   1.00
O219   O     0.79512   0.22775   0.25001   0.00000  Uiso   1.00
O220   O     0.87157   0.22774   0.25001   0.00000  Uiso   1.00
O221   O     0.77613   0.16666   0.32681   0.00000  Uiso   1.00
O222   O     0.85258   0.16665   0.32681   0.00000  Uiso   1.00
O223   O     0.79510   0.10559   0.25000   0.00000  Uiso   1.00
O224   O     0.87154   0.10558   0.25000   0.00000  Uiso   1.00
O225   O     0.81409   0.16668   0.17319   0.00000  Uiso   1.00
O226   O     0.89053   0.16667   0.17319   0.00000  Uiso   1.00
Zn227  Zn    0.78229   0.16667   0.25000   0.00000  Uiso   1.00
Zn228  Zn    0.88438   0.16666   0.25000   0.00000  Uiso   1.00
C229   C     0.16762   0.57982   0.24814   0.00000  Uiso   1.00
C230   C     0.12919   0.51111   0.40895   0.00000  Uiso   1.00
C231   C     0.18375   0.64562   0.28523   0.00000  Uiso   1.00
C232   C     0.14177   0.50351   0.35147   0.00000  Uiso   1.00
C233   C     0.18191   0.35531   0.28805   0.00000  Uiso   1.00
C234   C     0.16544   0.37598   0.25112   0.00000  Uiso   1.00
C235   C     0.15134   0.35440   0.21176   0.00000  Uiso   1.00
C236   C     0.15266   0.64460   0.20945   0.00000  Uiso   1.00
C237   C     0.16877   0.62398   0.24670   0.00000  Uiso   1.00
C238   C     0.31172   0.46512   0.23503   0.00000  Uiso   1.00
C239   C     0.02593   0.46495   0.23460   0.00000  Uiso   1.00
C240   C     0.14900   0.50248   0.49065   0.00000  Uiso   1.00
C241   C     0.02161   0.53554   0.26303   0.00000  Uiso   1.00
C242   C     0.30745   0.53573   0.26191   0.00000  Uiso   1.00
C243   C     0.16601   0.42013   0.25081   0.00000  Uiso   1.00
C244   C     0.19157   0.49432   0.14957   0.00000  Uiso   1.00
C245   C     0.26344   0.46944   0.01098   0.00000  Uiso   1.00
C246   C     0.20501   0.48267   0.09393   0.00000  Uiso   1.00
C247   C     0.08262   0.51924   0.43727   0.00000  Uiso   1.00
C248   C     0.06952   0.52356   0.49214   0.00000  Uiso   1.00
C249   C     0.10251   0.51373   0.01870   0.00000  Uiso   1.00
C250   C     0.27676   0.41779   0.11324   0.00000  Uiso   1.00
C251   C     0.16347   0.50892   0.43646   0.00000  Uiso   1.00
C252   C     0.30236   0.45994   0.36565   0.00000  Uiso   1.00
C253   C     0.01512   0.56046   0.06756   0.00000  Uiso   1.00
C254   C     0.21046   0.59173   0.40362   0.00000  Uiso   1.00
C255   C     0.18293   0.48927   0.01497   0.00000  Uiso   1.00
C256   C     0.23112   0.48445   0.48515   0.00000  Uiso   1.00
C257   C     0.24489   0.49759   0.43243   0.00000  Uiso   1.00
C258   C     0.21181   0.51661   0.41258   0.00000  Uiso   1.00
C259   C     0.17034   0.48016   0.06819   0.00000  Uiso   1.00
C260   C     0.25114   0.47175   0.06609   0.00000  Uiso   1.00
Cl261  Cl    0.19872   0.38192   0.33911   0.00000  Uiso   1.00
Cl262  Cl    0.13581   0.61769   0.15867   0.00000  Uiso   1.00
Cl263  Cl    0.05428   0.41752   0.21389   0.00000  Uiso   1.00
Cl264  Cl    0.31677   0.44431   0.47832   0.00000  Uiso   1.00
Cl265  Cl    0.11815   0.45069   0.09706   0.00000  Uiso   1.00
H266   H     0.14049   0.37112   0.18232   0.00000  Uiso   1.00
H267   H     0.24079   0.41341   0.14045   0.00000  Uiso   1.00
H268   H     0.30263   0.41168   0.13497   0.00000  Uiso   1.00
H269   H     0.31743   0.50605   0.41742   0.00000  Uiso   1.00
H270   H     0.00667   0.46077   0.34264   0.00000  Uiso   1.00
H271   H     0.27983   0.45935   0.33893   0.00000  Uiso   1.00
H272   H     0.29492   0.43048   0.38824   0.00000  Uiso   1.00
H273   H     0.00251   0.54461   0.49604   0.00000  Uiso   1.00
H274   H     0.31141   0.57091   0.08084   0.00000  Uiso   1.00
H275   H     0.03882   0.58866   0.06069   0.00000  Uiso   1.00
H276   H     0.02082   0.54143   0.09952   0.00000  Uiso   1.00
H277   H     0.29544   0.43703   0.22388   0.00000  Uiso   1.00
H278   H     0.26202   0.55311   0.36006   0.00000  Uiso   1.00
H279   H     0.22905   0.61777   0.37838   0.00000  Uiso   1.00
H280   H     0.21840   0.59516   0.44197   0.00000  Uiso   1.00
H281   H     0.17202   0.59451   0.40985   0.00000  Uiso   1.00
H282   H     0.03740   0.56402   0.27392   0.00000  Uiso   1.00
H283   H     0.28810   0.56456   0.27089   0.00000  Uiso   1.00
H284   H     0.05703   0.52404   0.41635   0.00000  Uiso   1.00
H285   H     0.09241   0.51679   0.06088   0.00000  Uiso   1.00
H286   H     0.19546   0.62887   0.31380   0.00000  Uiso   1.00
H287   H     0.31837   0.46747   0.07517   0.00000  Uiso   1.00
H288   H     0.28207   0.39470   0.08009   0.00000  Uiso   1.00
N289   N     0.04760   0.50001   0.25001   0.00000  Uiso   1.00
N290   N     0.28573   0.49998   0.25001   0.00000  Uiso   1.00
N291   N     0.28359   0.46018   0.09361   0.00000  Uiso   1.00
N292   N     0.29207   0.49649   0.40012   0.00000  Uiso   1.00
N293   N     0.02258   0.53553   0.01961   0.00000  Uiso   1.00
N294   N     0.22653   0.55168   0.37872   0.00000  Uiso   1.00
O295   O     0.12846   0.56108   0.25001   0.00000  Uiso   1.00
O296   O     0.20490   0.56107   0.25001   0.00000  Uiso   1.00
O297   O     0.10947   0.50000   0.32681   0.00000  Uiso   1.00
O298   O     0.18591   0.49999   0.32681   0.00000  Uiso   1.00
O299   O     0.12843   0.43893   0.25000   0.00000  Uiso   1.00
O300   O     0.20488   0.43892   0.25000   0.00000  Uiso   1.00
O301   O     0.14742   0.50001   0.17319   0.00000  Uiso   1.00
O302   O     0.22387   0.50000   0.17319   0.00000  Uiso   1.00
Zn303  Zn    0.11562   0.50001   0.25000   0.00000  Uiso   1.00
Zn304  Zn    0.21771   0.49999   0.25000   0.00000  Uiso   1.00
C305   C     0.50095   0.57982   0.24814   0.00000  Uiso   1.00
C306   C     0.46252   0.51111   0.40895   0.00000  Uiso   1.00
C307   C     0.51708   0.64562   0.28523   0.00000  Uiso   1.00
C308   C     0.47511   0.50351   0.35147   0.00000  Uiso   1.00
C309   C     0.51524   0.35531   0.28805   0.00000  Uiso   1.00
C310   C     0.49877   0.37598   0.25112   0.00000  Uiso   1.00
C311   C     0.48467   0.35440   0.21176   0.00000  Uiso   1.00
C312   C     0.48600   0.64460   0.20945   0.00000  Uiso   1.00
C313   C     0.50211   0.62398   0.24670   0.00000  Uiso   1.00
C314   C     0.64505   0.46512   0.23503   0.00000  Uiso   1.00
C315   C     0.35926   0.46495   0.23460   0.00000  Uiso   1.00
C316   C     0.48233   0.50248   0.49065   0.00000  Uiso   1.00
C317   C     0.35494   0.53554   0.26303   0.00000  Uiso   1.00
C318   C     0.64079   0.53573   0.26191   0.00000  Uiso   1.00
C319   C     0.49935   0.42013   0.25081   0.00000  Uiso   1.00
C320   C     0.52491   0.49432   0.14957   0.00000  Uiso   1.00
C321   C     0.59678   0.46944   0.01098   0.00000  Uiso   1.00
C322   C     0.53835   0.48267   0.09393   0.00000  Uiso   1.00
C323   C     0.41595   0.51924   0.43727   0.00000  Uiso   1.00
C324   C     0.40285   0.52356   0.49214   0.00000  Uiso   1.00
C325   C     0.43584   0.51373   0.01870   0.00000  Uiso   1.00
C326   C     0.61009   0.41779   0.11324   0.00000  Uiso   1.00
C327   C     0.49680   0.50892   0.43646   0.00000  Uiso   1.00
C328   C     0.63570   0.45994   0.36565   0.00000  Uiso   1.00
C329   C     0.34845   0.56046   0.06756   0.00000  Uiso   1.00
C330   C     0.54379   0.59173   0.40362   0.00000  Uiso   1.00
C331   C     0.51627   0.48927   0.01497   0.00000  Uiso   1.00
C332   C     0.56446   0.48445   0.48515   0.00000  Uiso   1.00
C333   C     0.57822   0.49759   0.43243   0.00000  Uiso   1.00
C334   C     0.54514   0.51661   0.41258   0.00000  Uiso   1.00
C335   C     0.50367   0.48016   0.06819   0.00000  Uiso   1.00
C336   C     0.58448   0.47175   0.06609   0.00000  Uiso   1.00
Cl337  Cl    0.53205   0.38192   0.33911   0.00000  Uiso   1.00
Cl338  Cl    0.46914   0.61769   0.15867   0.00000  Uiso   1.00
Cl339  Cl    0.38761   0.41752   0.21389   0.00000  Uiso   1.00
Cl340  Cl    0.65010   0.44431   0.47832   0.00000  Uiso   1.00
Cl341  Cl    0.45148   0.45069   0.09706   0.00000  Uiso   1.00
H342   H     0.47382   0.37112   0.18232   0.00000  Uiso   1.00
H343   H     0.57412   0.41341   0.14045   0.00000  Uiso   1.00
H344   H     0.63596   0.41168   0.13497   0.00000  Uiso   1.00
H345   H     0.65076   0.50605   0.41742   0.00000  Uiso   1.00
H346   H     0.34000   0.46077   0.34264   0.00000  Uiso   1.00
H347   H     0.61316   0.45935   0.33893   0.00000  Uiso   1.00
H348   H     0.62826   0.43048   0.38824   0.00000  Uiso   1.00
H349   H     0.33584   0.54461   0.49604   0.00000  Uiso   1.00
H350   H     0.64475   0.57091   0.08084   0.00000  Uiso   1.00
H351   H     0.37215   0.58866   0.06069   0.00000  Uiso   1.00
H352   H     0.35416   0.54143   0.09952   0.00000  Uiso   1.00
H353   H     0.62877   0.43703   0.22388   0.00000  Uiso   1.00
H354   H     0.59536   0.55311   0.36006   0.00000  Uiso   1.00
H355   H     0.56238   0.61777   0.37838   0.00000  Uiso   1.00
H356   H     0.55173   0.59516   0.44197   0.00000  Uiso   1.00
H357   H     0.50536   0.59451   0.40985   0.00000  Uiso   1.00
H358   H     0.37073   0.56402   0.27392   0.00000  Uiso   1.00
H359   H     0.62143   0.56456   0.27089   0.00000  Uiso   1.00
H360   H     0.39037   0.52404   0.41635   0.00000  Uiso   1.00
H361   H     0.42574   0.51679   0.06088   0.00000  Uiso   1.00
H362   H     0.52880   0.62887   0.31380   0.00000  Uiso   1.00
H363   H     0.65170   0.46747   0.07517   0.00000  Uiso   1.00
H364   H     0.61540   0.39470   0.08009   0.00000  Uiso   1.00
N365   N     0.38093   0.50001   0.25001   0.00000  Uiso   1.00
N366   N     0.61906   0.49998   0.25001   0.00000  Uiso   1.00
N367   N     0.61692   0.46018   0.09361   0.00000  Uiso   1.00
N368   N     0.62541   0.49649   0.40012   0.00000  Uiso   1.00
N369   N     0.35591   0.53553   0.01961   0.00000  Uiso   1.00
N370   N     0.55986   0.55168   0.37872   0.00000  Uiso   1.00
O371   O     0.46179   0.56108   0.25001   0.00000  Uiso   1.00
O372   O     0.53823   0.56107   0.25001   0.00000  Uiso   1.00
O373   O     0.44280   0.50000   0.32681   0.00000  Uiso   1.00
O374   O     0.51924   0.49999   0.32681   0.00000  Uiso   1.00
O375   O     0.46177   0.43893   0.25000   0.00000  Uiso   1.00
O376   O     0.53821   0.43892   0.25000   0.00000  Uiso   1.00
O377   O     0.48076   0.50001   0.17319   0.00000  Uiso   1.00
O378   O     0.55720   0.50000   0.17319   0.00000  Uiso   1.00
Zn379  Zn    0.44896   0.50001   0.25000   0.00000  Uiso   1.00
Zn380  Zn    0.55104   0.49999   0.25000   0.00000  Uiso   1.00
C381   C     0.83428   0.57982   0.24814   0.00000  Uiso   1.00
C382   C     0.79586   0.51111   0.40895   0.00000  Uiso   1.00
C383   C     0.85041   0.64562   0.28523   0.00000  Uiso   1.00
C384   C     0.80844   0.50351   0.35147   0.00000  Uiso   1.00
C385   C     0.84858   0.35531   0.28805   0.00000  Uiso   1.00
C386   C     0.83210   0.37598   0.25112   0.00000  Uiso   1.00
C387   C     0.81800   0.35440   0.21176   0.00000  Uiso   1.00
C388   C     0.81933   0.64460   0.20945   0.00000  Uiso   1.00
C389   C     0.83544   0.62398   0.24670   0.00000  Uiso   1.00
C390   C     0.97838   0.46512   0.23503   0.00000  Uiso   1.00
C391   C     0.69260   0.46495   0.23460   0.00000  Uiso   1.00
C392   C     0.81566   0.50248   0.49065   0.00000  Uiso   1.00
C393   C     0.68827   0.53554   0.26303   0.00000  Uiso   1.00
C394   C     0.97412   0.53573   0.26191   0.00000  Uiso   1.00
C395   C     0.83268   0.42013   0.25081   0.00000  Uiso   1.00
C396   C     0.85824   0.49432   0.14957   0.00000  Uiso   1.00
C397   C     0.93011   0.46944   0.01098   0.00000  Uiso   1.00
C398   C     0.87168   0.48267   0.09393   0.00000  Uiso   1.00
C399   C     0.74928   0.51924   0.43727   0.00000  Uiso   1.00
C400   C     0.73619   0.52356   0.49214   0.00000  Uiso   1.00
C401   C     0.76918   0.51373   0.01870   0.00000  Uiso   1.00
C402   C     0.94342   0.41779   0.11324   0.00000  Uiso   1.00
C403   C     0.83014   0.50892   0.43646   0.00000  Uiso   1.00
C404   C     0.96903   0.45994   0.36565   0.00000  Uiso   1.00
C405   C     0.68178   0.56046   0.06756   0.00000  Uiso   1.00
C406   C     0.87712   0.59173   0.40362   0.00000  Uiso   1.00
C407   C     0.84960   0.48927   0.01497   0.00000  Uiso   1.00
C408   C     0.89779   0.48445   0.48515   0.00000  Uiso   1.00
C409   C     0.91155   0.49759   0.43243   0.00000  Uiso   1.00
C410   C     0.87847   0.51661   0.41258   0.00000  Uiso   1.00
C411   C     0.83700   0.48016   0.06819   0.00000  Uiso   1.00
C412   C     0.91781   0.47175   0.06609   0.00000  Uiso   1.00
Cl413  Cl    0.86539   0.38192   0.33911   0.00000  Uiso   1.00
Cl414  Cl    0.80248   0.61769   0.15867   0.00000  Uiso   1.00
Cl415  Cl    0.72094   0.41752   0.21389   0.00000  Uiso   1.00
Cl416  Cl    0.98343   0.44431   0.47832   0.00000  Uiso   1.00
Cl417  Cl    0.78482   0.45069   0.09706   0.00000  Uiso   1.00
H418   H     0.80715   0.37112   0.18232   0.00000  Uiso   1.00
H419   H     0.90745   0.41341   0.14045   0.00000  Uiso   1.00
H420   H     0.96930   0.41168   0.13497   0.00000  Uiso   1.00
H421   H     0.98409   0.50605   0.41742   0.00000  Uiso   1.00
H422   H     0.67333   0.46077   0.34264   0.00000  Uiso   1.00
H423   H     0.94649   0.45935   0.33893   0.00000  Uiso   1.00
H424   H     0.96159   0.43048   0.38824   0.00000  Uiso   1.00
H425   H     0.66918   0.54461   0.49604   0.00000  Uiso   1.00
H426   H     0.97808   0.57091   0.08084   0.00000  Uiso   1.00
H427   H     0.70549   0.58866   0.06069   0.00000  Uiso   1.00
H428   H     0.68749   0.54143   0.09952   0.00000  Uiso   1.00
H429   H     0.96211   0.43703   0.22388   0.00000  Uiso   1.00
H430   H     0.92869   0.55311   0.36006   0.00000  Uiso   1.00
H431   H     0.89571   0.61777   0.37838   0.00000  Uiso   1.00
H432   H     0.88506   0.59516   0.44197   0.00000  Uiso   1.00
H433   H     0.83869   0.59451   0.40985   0.00000  Uiso   1.00
H434   H     0.70407   0.56402   0.27392   0.00000  Uiso   1.00
H435   H     0.95477   0.56456   0.27089   0.00000  Uiso   1.00
H436   H     0.72370   0.52404   0.41635   0.00000  Uiso   1.00
H437   H     0.75908   0.51679   0.06088   0.00000  Uiso   1.00
H438   H     0.86213   0.62887   0.31380   0.00000  Uiso   1.00
H439   H     0.98503   0.46747   0.07517   0.00000  Uiso   1.00
H440   H     0.94874   0.39470   0.08009   0.00000  Uiso   1.00
N441   N     0.71426   0.50001   0.25001   0.00000  Uiso   1.00
N442   N     0.95239   0.49998   0.25001   0.00000  Uiso   1.00
N443   N     0.95025   0.46018   0.09361   0.00000  Uiso   1.00
N444   N     0.95874   0.49649   0.40012   0.00000  Uiso   1.00
N445   N     0.68925   0.53553   0.01961   0.00000  Uiso   1.00
N446   N     0.89320   0.55168   0.37872   0.00000  Uiso   1.00
O447   O     0.79512   0.56108   0.25001   0.00000  Uiso   1.00
O448   O     0.87157   0.56107   0.25001   0.00000  Uiso   1.00
O449   O     0.77613   0.50000   0.32681   0.00000  Uiso   1.00
O450   O     0.85258   0.49999   0.32681   0.00000  Uiso   1.00
O451   O     0.79510   0.43893   0.25000   0.00000  Uiso   1.00
O452   O     0.87154   0.43892   0.25000   0.00000  Uiso   1.00
O453   O     0.81409   0.50001   0.17319   0.00000  Uiso   1.00
O454   O     0.89053   0.50000   0.17319   0.00000  Uiso   1.00
Zn455  Zn    0.78229   0.50001   0.25000   0.00000  Uiso   1.00
Zn456  Zn    0.88438   0.49999   0.25000   0.00000  Uiso   1.00
C457   C     0.16762   0.91316   0.24814   0.00000  Uiso   1.00
C458   C     0.12919   0.84444   0.40895   0.00000  Uiso   1.00
C459   C     0.18375   0.97895   0.28523   0.00000  Uiso   1.00
C460   C     0.14177   0.83684   0.35147   0.00000  Uiso   1.00
C461   C     0.18191   0.68864   0.28805   0.00000  Uiso   1.00
C462   C     0.16544   0.70931   0.25112   0.00000  Uiso   1.00
C463   C     0.15134   0.68774   0.21176   0.00000  Uiso   1.00
C464   C     0.15266   0.97793   0.20945   0.00000  Uiso   1.00
C465   C     0.16877   0.95731   0.24670   0.00000  Uiso   1.00
C466   C     0.31172   0.79846   0.23503   0.00000  Uiso   1.00
C467   C     0.02593   0.79828   0.23460   0.00000  Uiso   1.00
C468   C     0.14900   0.83582   0.49065   0.00000  Uiso   1.00
C469   C     0.02161   0.86888   0.26303   0.00000  Uiso   1.00
C470   C     0.30745   0.86906   0.26191   0.00000  Uiso   1.00
C471   C     0.16601   0.75346   0.25081   0.00000  Uiso   1.00
C472   C     0.19157   0.82766   0.14957   0.00000  Uiso   1.00
C473   C     0.26344   0.80277   0.01098   0.00000  Uiso   1.00
C474   C     0.20501   0.81600   0.09393   0.00000  Uiso   1.00
C475   C     0.08262   0.85258   0.43727   0.00000  Uiso   1.00
C476   C     0.06952   0.85690   0.49214   0.00000  Uiso   1.00
C477   C     0.10251   0.84706   0.01870   0.00000  Uiso   1.00
C478   C     0.27676   0.75112   0.11324   0.00000  Uiso   1.00
C479   C     0.16347   0.84225   0.43646   0.00000  Uiso   1.00
C480   C     0.30236   0.79328   0.36565   0.00000  Uiso   1.00
C481   C     0.01512   0.89379   0.06756   0.00000  Uiso   1.00
C482   C     0.21046   0.92507   0.40362   0.00000  Uiso   1.00
C483   C     0.18293   0.82261   0.01497   0.00000  Uiso   1.00
C484   C     0.23112   0.81778   0.48515   0.00000  Uiso   1.00
C485   C     0.24489   0.83092   0.43243   0.00000  Uiso   1.00
C486   C     0.21181   0.84994   0.41258   0.00000  Uiso   1.00
C487   C     0.17034   0.81349   0.06819   0.00000  Uiso   1.00
C488   C     0.25114   0.80508   0.06609   0.00000  Uiso   1.00
Cl489  Cl    0.19872   0.71525   0.33911   0.00000  Uiso   1.00
Cl490  Cl    0.13581   0.95102   0.15867   0.00000  Uiso   1.00
Cl491  Cl    0.05428   0.75085   0.21389   0.00000  Uiso   1.00
Cl492  Cl    0.31677   0.77764   0.47832   0.00000  Uiso   1.00
Cl493  Cl    0.11815   0.78402   0.09706   0.00000  Uiso   1.00
H494   H     0.14049   0.70445   0.18232   0.00000  Uiso   1.00
H495   H     0.24079   0.74675   0.14045   0.00000  Uiso   1.00
H496   H     0.30263   0.74501   0.13497   0.00000  Uiso   1.00
H497   H     0.31743   0.83938   0.41742   0.00000  Uiso   1.00
H498   H     0.00667   0.79410   0.34264   0.00000  Uiso   1.00
H499   H     0.27983   0.79268   0.33893   0.00000  Uiso   1.00
H500   H     0.29492   0.76381   0.38824   0.00000  Uiso   1.00
H501   H     0.00251   0.87794   0.49604   0.00000  Uiso   1.00
H502   H     0.31141   0.90424   0.08084   0.00000  Uiso   1.00
H503   H     0.03882   0.92199   0.06069   0.00000  Uiso   1.00
H504   H     0.02082   0.87476   0.09952   0.00000  Uiso   1.00
H505   H     0.29544   0.77037   0.22388   0.00000  Uiso   1.00
H506   H     0.26202   0.88645   0.36006   0.00000  Uiso   1.00
H507   H     0.22905   0.95110   0.37838   0.00000  Uiso   1.00
H508   H     0.21840   0.92849   0.44197   0.00000  Uiso   1.00
H509   H     0.17202   0.92785   0.40985   0.00000  Uiso   1.00
H510   H     0.03740   0.89735   0.27392   0.00000  Uiso   1.00
H511   H     0.28810   0.89789   0.27089   0.00000  Uiso   1.00
H512   H     0.05703   0.85737   0.41635   0.00000  Uiso   1.00
H513   H     0.09241   0.85012   0.06088   0.00000  Uiso   1.00
H514   H     0.19546   0.96220   0.31380   0.00000  Uiso   1.00
H515   H     0.31837   0.80080   0.07517   0.00000  Uiso   1.00
H516   H     0.28207   0.72803   0.08009   0.00000  Uiso   1.00
N517   N     0.04760   0.83334   0.25001   0.00000  Uiso   1.00
N518   N     0.28573   0.83331   0.25001   0.00000  Uiso   1.00
N519   N     0.28359   0.79352   0.09361   0.00000  Uiso   1.00
N520   N     0.29207   0.82982   0.40012   0.00000  Uiso   1.00
N521   N     0.02258   0.86886   0.01961   0.00000  Uiso   1.00
N522   N     0.22653   0.88501   0.37872   0.00000  Uiso   1.00
O523   O     0.12846   0.89442   0.25001   0.00000  Uiso   1.00
O524   O     0.20490   0.89441   0.25001   0.00000  Uiso   1.00
O525   O     0.10947   0.83333   0.32681   0.00000  Uiso   1.00
O526   O     0.18591   0.83332   0.32681   0.00000  Uiso   1.00
O527   O     0.12843   0.77226   0.25000   0.00000  Uiso   1.00
O528   O     0.20488   0.77225   0.25000   0.00000  Uiso   1.00
O529   O     0.14742   0.83335   0.17319   0.00000  Uiso   1.00
O530   O     0.22387   0.83334   0.17319   0.00000  Uiso   1.00
Zn531  Zn    0.11562   0.83334   0.25000   0.00000  Uiso   1.00
Zn532  Zn    0.21771   0.83333   0.25000   0.00000  Uiso   1.00
C533   C     0.50095   0.91316   0.24814   0.00000  Uiso   1.00
C534   C     0.46252   0.84444   0.40895   0.00000  Uiso   1.00
C535   C     0.51708   0.97895   0.28523   0.00000  Uiso   1.00
C536   C     0.47511   0.83684   0.35147   0.00000  Uiso   1.00
C537   C     0.51524   0.68864   0.28805   0.00000  Uiso   1.00
C538   C     0.49877   0.70931   0.25112   0.00000  Uiso   1.00
C539   C     0.48467   0.68774   0.21176   0.00000  Uiso   1.00
C540   C     0.48600   0.97793   0.20945   0.00000  Uiso   1.00
C541   C     0.50211   0.95731   0.24670   0.00000  Uiso   1.00
C542   C     0.64505   0.79846   0.23503   0.00000  Uiso   1.00
C543   C     0.35926   0.79828   0.23460   0.00000  Uiso   1.00
C544   C     0.48233   0.83582   0.49065   0.00000  Uiso   1.00
C545   C     0.35494   0.86888   0.26303   0.00000  Uiso   1.00
C546   C     0.64079   0.86906   0.26191   0.00000  Uiso   1.00
C547   C     0.49935   0.75346   0.25081   0.00000  Uiso   1.00
C548   C     0.52491   0.82766   0.14957   0.00000  Uiso   1.00
C549   C     0.59678   0.80277   0.01098   0.00000  Uiso   1.00
C550   C     0.53835   0.81600   0.09393   0.00000  Uiso   1.00
C551   C     0.41595   0.85258   0.43727   0.00000  Uiso   1.00
C552   C     0.40285   0.85690   0.49214   0.00000  Uiso   1.00
C553   C     0.43584   0.84706   0.01870   0.00000  Uiso   1.00
C554   C     0.61009   0.75112   0.11324   0.00000  Uiso   1.00
C555   C     0.49680   0.84225   0.43646   0.00000  Uiso   1.00
C556   C     0.63570   0.79328   0.36565   0.00000  Uiso   1.00
C557   C     0.34845   0.89379   0.06756   0.00000  Uiso   1.00
C558   C     0.54379   0.92507   0.40362   0.00000  Uiso   1.00
C559   C     0.51627   0.82261   0.01497   0.00000  Uiso   1.00
C560   C     0.56446   0.81778   0.48515   0.00000  Uiso   1.00
C561   C     0.57822   0.83092   0.43243   0.00000  Uiso   1.00
C562   C     0.54514   0.84994   0.41258   0.00000  Uiso   1.00
C563   C     0.50367   0.81349   0.06819   0.00000  Uiso   1.00
C564   C     0.58448   0.80508   0.06609   0.00000  Uiso   1.00
Cl565  Cl    0.53205   0.71525   0.33911   0.00000  Uiso   1.00
Cl566  Cl    0.46914   0.95102   0.15867   0.00000  Uiso   1.00
Cl567  Cl    0.38761   0.75085   0.21389   0.00000  Uiso   1.00
Cl568  Cl    0.65010   0.77764   0.47832   0.00000  Uiso   1.00
Cl569  Cl    0.45148   0.78402   0.09706   0.00000  Uiso   1.00
H570   H     0.47382   0.70445   0.18232   0.00000  Uiso   1.00
H571   H     0.57412   0.74675   0.14045   0.00000  Uiso   1.00
H572   H     0.63596   0.74501   0.13497   0.00000  Uiso   1.00
H573   H     0.65076   0.83938   0.41742   0.00000  Uiso   1.00
H574   H     0.34000   0.79410   0.34264   0.00000  Uiso   1.00
H575   H     0.61316   0.79268   0.33893   0.00000  Uiso   1.00
H576   H     0.62826   0.76381   0.38824   0.00000  Uiso   1.00
H577   H     0.33584   0.87794   0.49604   0.00000  Uiso   1.00
H578   H     0.64475   0.90424   0.08084   0.00000  Uiso   1.00
H579   H     0.37215   0.92199   0.06069   0.00000  Uiso   1.00
H580   H     0.35416   0.87476   0.09952   0.00000  Uiso   1.00
H581   H     0.62877   0.77037   0.22388   0.00000  Uiso   1.00
H582   H     0.59536   0.88645   0.36006   0.00000  Uiso   1.00
H583   H     0.56238   0.95110   0.37838   0.00000  Uiso   1.00
H584   H     0.55173   0.92849   0.44197   0.00000  Uiso   1.00
H585   H     0.50536   0.92785   0.40985   0.00000  Uiso   1.00
H586   H     0.37073   0.89735   0.27392   0.00000  Uiso   1.00
H587   H     0.62143   0.89789   0.27089   0.00000  Uiso   1.00
H588   H     0.39037   0.85737   0.41635   0.00000  Uiso   1.00
H589   H     0.42574   0.85012   0.06088   0.00000  Uiso   1.00
H590   H     0.52880   0.96220   0.31380   0.00000  Uiso   1.00
H591   H     0.65170   0.80080   0.07517   0.00000  Uiso   1.00
H592   H     0.61540   0.72803   0.08009   0.00000  Uiso   1.00
N593   N     0.38093   0.83334   0.25001   0.00000  Uiso   1.00
N594   N     0.61906   0.83331   0.25001   0.00000  Uiso   1.00
N595   N     0.61692   0.79352   0.09361   0.00000  Uiso   1.00
N596   N     0.62541   0.82982   0.40012   0.00000  Uiso   1.00
N597   N     0.35591   0.86886   0.01961   0.00000  Uiso   1.00
N598   N     0.55986   0.88501   0.37872   0.00000  Uiso   1.00
O599   O     0.46179   0.89442   0.25001   0.00000  Uiso   1.00
O600   O     0.53823   0.89441   0.25001   0.00000  Uiso   1.00
O601   O     0.44280   0.83333   0.32681   0.00000  Uiso   1.00
O602   O     0.51924   0.83332   0.32681   0.00000  Uiso   1.00
O603   O     0.46177   0.77226   0.25000   0.00000  Uiso   1.00
O604   O     0.53821   0.77225   0.25000   0.00000  Uiso   1.00
O605   O     0.48076   0.83335   0.17319   0.00000  Uiso   1.00
O606   O     0.55720   0.83334   0.17319   0.00000  Uiso   1.00
Zn607  Zn    0.44896   0.83334   0.25000   0.00000  Uiso   1.00
Zn608  Zn    0.55104   0.83333   0.25000   0.00000  Uiso   1.00
C609   C     0.83428   0.91316   0.24814   0.00000  Uiso   1.00
C610   C     0.79586   0.84444   0.40895   0.00000  Uiso   1.00
C611   C     0.85041   0.97895   0.28523   0.00000  Uiso   1.00
C612   C     0.80844   0.83684   0.35147   0.00000  Uiso   1.00
C613   C     0.84858   0.68864   0.28805   0.00000  Uiso   1.00
C614   C     0.83210   0.70931   0.25112   0.00000  Uiso   1.00
C615   C     0.81800   0.68774   0.21176   0.00000  Uiso   1.00
C616   C     0.81933   0.97793   0.20945   0.00000  Uiso   1.00
C617   C     0.83544   0.95731   0.24670   0.00000  Uiso   1.00
C618   C     0.97838   0.79846   0.23503   0.00000  Uiso   1.00
C619   C     0.69260   0.79828   0.23460   0.00000  Uiso   1.00
C620   C     0.81566   0.83582   0.49065   0.00000  Uiso   1.00
C621   C     0.68827   0.86888   0.26303   0.00000  Uiso   1.00
C622   C     0.97412   0.86906   0.26191   0.00000  Uiso   1.00
C623   C     0.83268   0.75346   0.25081   0.00000  Uiso   1.00
C624   C     0.85824   0.82766   0.14957   0.00000  Uiso   1.00
C625   C     0.93011   0.80277   0.01098   0.00000  Uiso   1.00
C626   C     0.87168   0.81600   0.09393   0.00000  Uiso   1.00
C627   C     0.74928   0.85258   0.43727   0.00000  Uiso   1.00
C628   C     0.73619   0.85690   0.49214   0.00000  Uiso   1.00
C629   C     0.76918   0.84706   0.01870   0.00000  Uiso   1.00
C630   C     0.94342   0.75112   0.11324   0.00000  Uiso   1.00
C631   C     0.83014   0.84225   0.43646   0.00000  Uiso   1.00
C632   C     0.96903   0.79328   0.36565   0.00000  Uiso   1.00
C633   C     0.68178   0.89379   0.06756   0.00000  Uiso   1.00
C634   C     0.87712   0.92507   0.40362   0.00000  Uiso   1.00
C635   C     0.84960   0.82261   0.01497   0.00000  Uiso   1.00
C636   C     0.89779   0.81778   0.48515   0.00000  Uiso   1.00
C637   C     0.91155   0.83092   0.43243   0.00000  Uiso   1.00
C638   C     0.87847   0.84994   0.41258   0.00000  Uiso   1.00
C639   C     0.83700   0.81349   0.06819   0.00000  Uiso   1.00
C640   C     0.91781   0.80508   0.06609   0.00000  Uiso   1.00
Cl641  Cl    0.86539   0.71525   0.33911   0.00000  Uiso   1.00
Cl642  Cl    0.80248   0.95102   0.15867   0.00000  Uiso   1.00
Cl643  Cl    0.72094   0.75085   0.21389   0.00000  Uiso   1.00
Cl644  Cl    0.98343   0.77764   0.47832   0.00000  Uiso   1.00
Cl645  Cl    0.78482   0.78402   0.09706   0.00000  Uiso   1.00
H646   H     0.80715   0.70445   0.18232   0.00000  Uiso   1.00
H647   H     0.90745   0.74675   0.14045   0.00000  Uiso   1.00
H648   H     0.96930   0.74501   0.13497   0.00000  Uiso   1.00
H649   H     0.98409   0.83938   0.41742   0.00000  Uiso   1.00
H650   H     0.67333   0.79410   0.34264   0.00000  Uiso   1.00
H651   H     0.94649   0.79268   0.33893   0.00000  Uiso   1.00
H652   H     0.96159   0.76381   0.38824   0.00000  Uiso   1.00
H653   H     0.66918   0.87794   0.49604   0.00000  Uiso   1.00
H654   H     0.97808   0.90424   0.08084   0.00000  Uiso   1.00
H655   H     0.70549   0.92199   0.06069   0.00000  Uiso   1.00
H656   H     0.68749   0.87476   0.09952   0.00000  Uiso   1.00
H657   H     0.96211   0.77037   0.22388   0.00000  Uiso   1.00
H658   H     0.92869   0.88645   0.36006   0.00000  Uiso   1.00
H659   H     0.89571   0.95110   0.37838   0.00000  Uiso   1.00
H660   H     0.88506   0.92849   0.44197   0.00000  Uiso   1.00
H661   H     0.83869   0.92785   0.40985   0.00000  Uiso   1.00
H662   H     0.70407   0.89735   0.27392   0.00000  Uiso   1.00
H663   H     0.95477   0.89789   0.27089   0.00000  Uiso   1.00
H664   H     0.72370   0.85737   0.41635   0.00000  Uiso   1.00
H665   H     0.75908   0.85012   0.06088   0.00000  Uiso   1.00
H666   H     0.86213   0.96220   0.31380   0.00000  Uiso   1.00
H667   H     0.98503   0.80080   0.07517   0.00000  Uiso   1.00
H668   H     0.94874   0.72803   0.08009   0.00000  Uiso   1.00
N669   N     0.71426   0.83334   0.25001   0.00000  Uiso   1.00
N670   N     0.95239   0.83331   0.25001   0.00000  Uiso   1.00
N671   N     0.95025   0.79352   0.09361   0.00000  Uiso   1.00
N672   N     0.95874   0.82982   0.40012   0.00000  Uiso   1.00
N673   N     0.68925   0.86886   0.01961   0.00000  Uiso   1.00
N674   N     0.89320   0.88501   0.37872   0.00000  Uiso   1.00
O675   O     0.79512   0.89442   0.25001   0.00000  Uiso   1.00
O676   O     0.87157   0.89441   0.25001   0.00000  Uiso   1.00
O677   O     0.77613   0.83333   0.32681   0.00000  Uiso   1.00
O678   O     0.85258   0.83332   0.32681   0.00000  Uiso   1.00
O679   O     0.79510   0.77226   0.25000   0.00000  Uiso   1.00
O680   O     0.87154   0.77225   0.25000   0.00000  Uiso   1.00
O681   O     0.81409   0.83335   0.17319   0.00000  Uiso   1.00
O682   O     0.89053   0.83334   0.17319   0.00000  Uiso   1.00
Zn683  Zn    0.78229   0.83334   0.25000   0.00000  Uiso   1.00
Zn684  Zn    0.88438   0.83333   0.25000   0.00000  Uiso   1.00
C685   C     0.16762   0.24649   0.74814   0.00000  Uiso   1.00
C686   C     0.12919   0.17777   0.90895   0.00000  Uiso   1.00
C687   C     0.18375   0.31229   0.78523   0.00000  Uiso   1.00
C688   C     0.14177   0.17017   0.85147   0.00000  Uiso   1.00
C689   C     0.18191   0.02197   0.78805   0.00000  Uiso   1.00
C690   C     0.16544   0.04265   0.75112   0.00000  Uiso   1.00
C691   C     0.15134   0.02107   0.71176   0.00000  Uiso   1.00
C692   C     0.15266   0.31126   0.70945   0.00000  Uiso   1.00
C693   C     0.16877   0.29064   0.74670   0.00000  Uiso   1.00
C694   C     0.31172   0.13179   0.73503   0.00000  Uiso   1.00
C695   C     0.02593   0.13162   0.73460   0.00000  Uiso   1.00
C696   C     0.14900   0.16915   0.99065   0.00000  Uiso   1.00
C697   C     0.02161   0.20221   0.76303   0.00000  Uiso   1.00
C698   C     0.30745   0.20239   0.76191   0.00000  Uiso   1.00
C699   C     0.16601   0.08680   0.75081   0.00000  Uiso   1.00
C700   C     0.19157   0.16099   0.64957   0.00000  Uiso   1.00
C701   C     0.26344   0.13611   0.51098   0.00000  Uiso   1.00
C702   C     0.20501   0.14933   0.59393   0.00000  Uiso   1.00
C703   C     0.08262   0.18591   0.93727   0.00000  Uiso   1.00
C704   C     0.06952   0.19023   0.99214   0.00000  Uiso   1.00
C705   C     0.10251   0.18039   0.51870   0.00000  Uiso   1.00
C706   C     0.27676   0.08446   0.61324   0.00000  Uiso   1.00
C707   C     0.16347   0.17559   0.93646   0.00000  Uiso   1.00
C708   C     0.30236   0.12661   0.86565   0.00000  Uiso   1.00
C709   C     0.01512   0.22713   0.56756   0.00000  Uiso   1.00
C710   C     0.21046   0.25840   0.90362   0.00000  Uiso   1.00
C711   C     0.18293   0.15594   0.51497   0.00000  Uiso   1.00
C712   C     0.23112   0.15112   0.98515   0.00000  Uiso   1.00
C713   C     0.24489   0.16426   0.93243   0.00000  Uiso   1.00
C714   C     0.21181   0.18327   0.91258   0.00000  Uiso   1.00
C715   C     0.17034   0.14683   0.56819   0.00000  Uiso   1.00
C716   C     0.25114   0.13841   0.56609   0.00000  Uiso   1.00
Cl717  Cl    0.19872   0.04859   0.83911   0.00000  Uiso   1.00
Cl718  Cl    0.13581   0.28435   0.65867   0.00000  Uiso   1.00
Cl719  Cl    0.05428   0.08419   0.71389   0.00000  Uiso   1.00
Cl720  Cl    0.31677   0.11097   0.97832   0.00000  Uiso   1.00
Cl721  Cl    0.11815   0.11735   0.59706   0.00000  Uiso   1.00
H722   H     0.14049   0.03779   0.68232   0.00000  Uiso   1.00
H723   H     0.24079   0.08008   0.64045   0.00000  Uiso   1.00
H724   H     0.30263   0.07835   0.63497   0.00000  Uiso   1.00
H725   H     0.31743   0.17272   0.91742   0.00000  Uiso   1.00
H726   H     0.00667   0.12743   0.84264   0.00000  Uiso   1.00
H727   H     0.27983   0.12602   0.83893   0.00000  Uiso   1.00
H728   H     0.29492   0.09714   0.88824   0.00000  Uiso   1.00
H729   H     0.00251   0.21128   0.99604   0.00000  Uiso   1.00
H730   H     0.31141   0.23758   0.58084   0.00000  Uiso   1.00
H731   H     0.03882   0.25532   0.56069   0.00000  Uiso   1.00
H732   H     0.02082   0.20810   0.59952   0.00000  Uiso   1.00
H733   H     0.29544   0.10370   0.72388   0.00000  Uiso   1.00
H734   H     0.26202   0.21978   0.86006   0.00000  Uiso   1.00
H735   H     0.22905   0.28444   0.87838   0.00000  Uiso   1.00
H736   H     0.21840   0.26183   0.94197   0.00000  Uiso   1.00
H737   H     0.17202   0.26118   0.90985   0.00000  Uiso   1.00
H738   H     0.03740   0.23068   0.77392   0.00000  Uiso   1.00
H739   H     0.28810   0.23123   0.77089   0.00000  Uiso   1.00
H740   H     0.05703   0.19070   0.91635   0.00000  Uiso   1.00
H741   H     0.09241   0.18346   0.56088   0.00000  Uiso   1.00
H742   H     0.19546   0.29554   0.81380   0.00000  Uiso   1.00
H743   H     0.31837   0.13414   0.57517   0.00000  Uiso   1.00
H744   H     0.28207   0.06137   0.58009   0.00000  Uiso   1.00
N745   N     0.04760   0.16668   0.75001   0.00000  Uiso   1.00
N746   N     0.28573   0.16665   0.75001   0.00000  Uiso   1.00
N747   N     0.28359   0.12685   0.59361   0.00000  Uiso   1.00
N748   N     0.29207   0.16315   0.90012   0.00000  Uiso   1.00
N749   N     0.02258   0.20220   0.51961   0.00000  Uiso   1.00
N750   N     0.22653   0.21835   0.87872   0.00000  Uiso   1.00
O751   O     0.12846   0.22775   0.75001   0.00000  Uiso   1.00
O752   O     0.20490   0.22774   0.75001   0.00000  Uiso   1.00
O753   O     0.10947   0.16666   0.82681   0.00000  Uiso   1.00
O754   O     0.18591   0.16665   0.82681   0.00000  Uiso   1.00
O755   O     0.12843   0.10559   0.75000   0.00000  Uiso   1.00
O756   O     0.20488   0.10558   0.75000   0.00000  Uiso   1.00
O757   O     0.14742   0.16668   0.67319   0.00000  Uiso   1.00
O758   O     0.22387   0.16667   0.67319   0.00000  Uiso   1.00
Zn759  Zn    0.11562   0.16667   0.75000   0.00000  Uiso   1.00
Zn760  Zn    0.21771   0.16666   0.75000   0.00000  Uiso   1.00
C761   C     0.50095   0.24649   0.74814   0.00000  Uiso   1.00
C762   C     0.46252   0.17777   0.90895   0.00000  Uiso   1.00
C763   C     0.51708   0.31229   0.78523   0.00000  Uiso   1.00
C764   C     0.47511   0.17017   0.85147   0.00000  Uiso   1.00
C765   C     0.51524   0.02197   0.78805   0.00000  Uiso   1.00
C766   C     0.49877   0.04265   0.75112   0.00000  Uiso   1.00
C767   C     0.48467   0.02107   0.71176   0.00000  Uiso   1.00
C768   C     0.48600   0.31126   0.70945   0.00000  Uiso   1.00
C769   C     0.50211   0.29064   0.74670   0.00000  Uiso   1.00
C770   C     0.64505   0.13179   0.73503   0.00000  Uiso   1.00
C771   C     0.35926   0.13162   0.73460   0.00000  Uiso   1.00
C772   C     0.48233   0.16915   0.99065   0.00000  Uiso   1.00
C773   C     0.35494   0.20221   0.76303   0.00000  Uiso   1.00
C774   C     0.64079   0.20239   0.76191   0.00000  Uiso   1.00
C775   C     0.49935   0.08680   0.75081   0.00000  Uiso   1.00
C776   C     0.52491   0.16099   0.64957   0.00000  Uiso   1.00
C777   C     0.59678   0.13611   0.51098   0.00000  Uiso   1.00
C778   C     0.53835   0.14933   0.59393   0.00000  Uiso   1.00
C779   C     0.41595   0.18591   0.93727   0.00000  Uiso   1.00
C780   C     0.40285   0.19023   0.99214   0.00000  Uiso   1.00
C781   C     0.43584   0.18039   0.51870   0.00000  Uiso   1.00
C782   C     0.61009   0.08446   0.61324   0.00000  Uiso   1.00
C783   C     0.49680   0.17559   0.93646   0.00000  Uiso   1.00
C784   C     0.63570   0.12661   0.86565   0.00000  Uiso   1.00
C785   C     0.34845   0.22713   0.56756   0.00000  Uiso   1.00
C786   C     0.54379   0.25840   0.90362   0.00000  Uiso   1.00
C787   C     0.51627   0.15594   0.51497   0.00000  Uiso   1.00
C788   C     0.56446   0.15112   0.98515   0.00000  Uiso   1.00
C789   C     0.57822   0.16426   0.93243   0.00000  Uiso   1.00
C790   C     0.54514   0.18327   0.91258   0.00000  Uiso   1.00
C791   C     0.50367   0.14683   0.56819   0.00000  Uiso   1.00
C792   C     0.58448   0.13841   0.56609   0.00000  Uiso   1.00
Cl793  Cl    0.53205   0.04859   0.83911   0.00000  Uiso   1.00
Cl794  Cl    0.46914   0.28435   0.65867   0.00000  Uiso   1.00
Cl795  Cl    0.38761   0.08419   0.71389   0.00000  Uiso   1.00
Cl796  Cl    0.65010   0.11097   0.97832   0.00000  Uiso   1.00
Cl797  Cl    0.45148   0.11735   0.59706   0.00000  Uiso   1.00
H798   H     0.47382   0.03779   0.68232   0.00000  Uiso   1.00
H799   H     0.57412   0.08008   0.64045   0.00000  Uiso   1.00
H800   H     0.63596   0.07835   0.63497   0.00000  Uiso   1.00
H801   H     0.65076   0.17272   0.91742   0.00000  Uiso   1.00
H802   H     0.34000   0.12743   0.84264   0.00000  Uiso   1.00
H803   H     0.61316   0.12602   0.83893   0.00000  Uiso   1.00
H804   H     0.62826   0.09714   0.88824   0.00000  Uiso   1.00
H805   H     0.33584   0.21128   0.99604   0.00000  Uiso   1.00
H806   H     0.64475   0.23758   0.58084   0.00000  Uiso   1.00
H807   H     0.37215   0.25532   0.56069   0.00000  Uiso   1.00
H808   H     0.35416   0.20810   0.59952   0.00000  Uiso   1.00
H809   H     0.62877   0.10370   0.72388   0.00000  Uiso   1.00
H810   H     0.59536   0.21978   0.86006   0.00000  Uiso   1.00
H811   H     0.56238   0.28444   0.87838   0.00000  Uiso   1.00
H812   H     0.55173   0.26183   0.94197   0.00000  Uiso   1.00
H813   H     0.50536   0.26118   0.90985   0.00000  Uiso   1.00
H814   H     0.37073   0.23068   0.77392   0.00000  Uiso   1.00
H815   H     0.62143   0.23123   0.77089   0.00000  Uiso   1.00
H816   H     0.39037   0.19070   0.91635   0.00000  Uiso   1.00
H817   H     0.42574   0.18346   0.56088   0.00000  Uiso   1.00
H818   H     0.52880   0.29554   0.81380   0.00000  Uiso   1.00
H819   H     0.65170   0.13414   0.57517   0.00000  Uiso   1.00
H820   H     0.61540   0.06137   0.58009   0.00000  Uiso   1.00
N821   N     0.38093   0.16668   0.75001   0.00000  Uiso   1.00
N822   N     0.61906   0.16665   0.75001   0.00000  Uiso   1.00
N823   N     0.61692   0.12685   0.59361   0.00000  Uiso   1.00
N824   N     0.62541   0.16315   0.90012   0.00000  Uiso   1.00
N825   N     0.35591   0.20220   0.51961   0.00000  Uiso   1.00
N826   N     0.55986   0.21835   0.87872   0.00000  Uiso   1.00
O827   O     0.46179   0.22775   0.75001   0.00000  Uiso   1.00
O828   O     0.53823   0.22774   0.75001   0.00000  Uiso   1.00
O829   O     0.44280   0.16666   0.82681   0.00000  Uiso   1.00
O830   O     0.51924   0.16665   0.82681   0.00000  Uiso   1.00
O831   O     0.46177   0.10559   0.75000   0.00000  Uiso   1.00
O832   O     0.53821   0.10558   0.75000   0.00000  Uiso   1.00
O833   O     0.48076   0.16668   0.67319   0.00000  Uiso   1.00
O834   O     0.55720   0.16667   0.67319   0.00000  Uiso   1.00
Zn835  Zn    0.44896   0.16667   0.75000   0.00000  Uiso   1.00
Zn836  Zn    0.55104   0.16666   0.75000   0.00000  Uiso   1.00
C837   C     0.83428   0.24649   0.74814   0.00000  Uiso   1.00
C838   C     0.79586   0.17777   0.90895   0.00000  Uiso   1.00
C839   C     0.85041   0.31229   0.78523   0.00000  Uiso   1.00
C840   C     0.80844   0.17017   0.85147   0.00000  Uiso   1.00
C841   C     0.84858   0.02197   0.78805   0.00000  Uiso   1.00
C842   C     0.83210   0.04265   0.75112   0.00000  Uiso   1.00
C843   C     0.81800   0.02107   0.71176   0.00000  Uiso   1.00
C844   C     0.81933   0.31126   0.70945   0.00000  Uiso   1.00
C845   C     0.83544   0.29064   0.74670   0.00000  Uiso   1.00
C846   C     0.97838   0.13179   0.73503   0.00000  Uiso   1.00
C847   C     0.69260   0.13162   0.73460   0.00000  Uiso   1.00
C848   C     0.81566   0.16915   0.99065   0.00000  Uiso   1.00
C849   C     0.68827   0.20221   0.76303   0.00000  Uiso   1.00
C850   C     0.97412   0.20239   0.76191   0.00000  Uiso   1.00
C851   C     0.83268   0.08680   0.75081   0.00000  Uiso   1.00
C852   C     0.85824   0.16099   0.64957   0.00000  Uiso   1.00
C853   C     0.93011   0.13611   0.51098   0.00000  Uiso   1.00
C854   C     0.87168   0.14933   0.59393   0.00000  Uiso   1.00
C855   C     0.74928   0.18591   0.93727   0.00000  Uiso   1.00
C856   C     0.73619   0.19023   0.99214   0.00000  Uiso   1.00
C857   C     0.76918   0.18039   0.51870   0.00000  Uiso   1.00
C858   C     0.94342   0.08446   0.61324   0.00000  Uiso   1.00
C859   C     0.83014   0.17559   0.93646   0.00000  Uiso   1.00
C860   C     0.96903   0.12661   0.86565   0.00000  Uiso   1.00
C861   C     0.68178   0.22713   0.56756   0.00000  Uiso   1.00
C862   C     0.87712   0.25840   0.90362   0.00000  Uiso   1.00
C863   C     0.84960   0.15594   0.51497   0.00000  Uiso   1.00
C864   C     0.89779   0.15112   0.98515   0.00000  Uiso   1.00
C865   C     0.91155   0.16426   0.93243   0.00000  Uiso   1.00
C866   C     0.87847   0.18327   0.91258   0.00000  Uiso   1.00
C867   C     0.83700   0.14683   0.56819   0.00000  Uiso   1.00
C868   C     0.91781   0.13841   0.56609   0.00000  Uiso   1.00
Cl869  Cl    0.86539   0.04859   0.83911   0.00000  Uiso   1.00
Cl870  Cl    0.80248   0.28435   0.65867   0.00000  Uiso   1.00
Cl871  Cl    0.72094   0.08419   0.71389   0.00000  Uiso   1.00
Cl872  Cl    0.98343   0.11097   0.97832   0.00000  Uiso   1.00
Cl873  Cl    0.78482   0.11735   0.59706   0.00000  Uiso   1.00
H874   H     0.80715   0.03779   0.68232   0.00000  Uiso   1.00
H875   H     0.90745   0.08008   0.64045   0.00000  Uiso   1.00
H876   H     0.96930   0.07835   0.63497   0.00000  Uiso   1.00
H877   H     0.98409   0.17272   0.91742   0.00000  Uiso   1.00
H878   H     0.67333   0.12743   0.84264   0.00000  Uiso   1.00
H879   H     0.94649   0.12602   0.83893   0.00000  Uiso   1.00
H880   H     0.96159   0.09714   0.88824   0.00000  Uiso   1.00
H881   H     0.66918   0.21128   0.99604   0.00000  Uiso   1.00
H882   H     0.97808   0.23758   0.58084   0.00000  Uiso   1.00
H883   H     0.70549   0.25532   0.56069   0.00000  Uiso   1.00
H884   H     0.68749   0.20810   0.59952   0.00000  Uiso   1.00
H885   H     0.96211   0.10370   0.72388   0.00000  Uiso   1.00
H886   H     0.92869   0.21978   0.86006   0.00000  Uiso   1.00
H887   H     0.89571   0.28444   0.87838   0.00000  Uiso   1.00
H888   H     0.88506   0.26183   0.94197   0.00000  Uiso   1.00
H889   H     0.83869   0.26118   0.90985   0.00000  Uiso   1.00
H890   H     0.70407   0.23068   0.77392   0.00000  Uiso   1.00
H891   H     0.95477   0.23123   0.77089   0.00000  Uiso   1.00
H892   H     0.72370   0.19070   0.91635   0.00000  Uiso   1.00
H893   H     0.75908   0.18346   0.56088   0.00000  Uiso   1.00
H894   H     0.86213   0.29554   0.81380   0.00000  Uiso   1.00
H895   H     0.98503   0.13414   0.57517   0.00000  Uiso   1.00
H896   H     0.94874   0.06137   0.58009   0.00000  Uiso   1.00
N897   N     0.71426   0.16668   0.75001   0.00000  Uiso   1.00
N898   N     0.95239   0.16665   0.75001   0.00000  Uiso   1.00
N899   N     0.95025   0.12685   0.59361   0.00000  Uiso   1.00
N900   N     0.95874   0.16315   0.90012   0.00000  Uiso   1.00
N901   N     0.68925   0.20220   0.51961   0.00000  Uiso   1.00
N902   N     0.89320   0.21835   0.87872   0.00000  Uiso   1.00
O903   O     0.79512   0.22775   0.75001   0.00000  Uiso   1.00
O904   O     0.87157   0.22774   0.75001   0.00000  Uiso   1.00
O905   O     0.77613   0.16666   0.82681   0.00000  Uiso   1.00
O906   O     0.85258   0.16665   0.82681   0.00000  Uiso   1.00
O907   O     0.79510   0.10559   0.75000   0.00000  Uiso   1.00
O908   O     0.87154   0.10558   0.75000   0.00000  Uiso   1.00
O909   O     0.81409   0.16668   0.67319   0.00000  Uiso   1.00
O910   O     0.89053   0.16667   0.67319   0.00000  Uiso   1.00
Zn911  Zn    0.78229   0.16667   0.75000   0.00000  Uiso   1.00
Zn912  Zn    0.88438   0.16666   0.75000   0.00000  Uiso   1.00
C913   C     0.16762   0.57982   0.74814   0.00000  Uiso   1.00
C914   C     0.12919   0.51111   0.90895   0.00000  Uiso   1.00
C915   C     0.18375   0.64562   0.78523   0.00000  Uiso   1.00
C916   C     0.14177   0.50351   0.85147   0.00000  Uiso   1.00
C917   C     0.18191   0.35531   0.78805   0.00000  Uiso   1.00
C918   C     0.16544   0.37598   0.75112   0.00000  Uiso   1.00
C919   C     0.15134   0.35440   0.71176   0.00000  Uiso   1.00
C920   C     0.15266   0.64460   0.70945   0.00000  Uiso   1.00
C921   C     0.16877   0.62398   0.74670   0.00000  Uiso   1.00
C922   C     0.31172   0.46512   0.73503   0.00000  Uiso   1.00
C923   C     0.02593   0.46495   0.73460   0.00000  Uiso   1.00
C924   C     0.14900   0.50248   0.99065   0.00000  Uiso   1.00
C925   C     0.02161   0.53554   0.76303   0.00000  Uiso   1.00
C926   C     0.30745   0.53573   0.76191   0.00000  Uiso   1.00
C927   C     0.16601   0.42013   0.75081   0.00000  Uiso   1.00
C928   C     0.19157   0.49432   0.64957   0.00000  Uiso   1.00
C929   C     0.26344   0.46944   0.51098   0.00000  Uiso   1.00
C930   C     0.20501   0.48267   0.59393   0.00000  Uiso   1.00
C931   C     0.08262   0.51924   0.93727   0.00000  Uiso   1.00
C932   C     0.06952   0.52356   0.99214   0.00000  Uiso   1.00
C933   C     0.10251   0.51373   0.51870   0.00000  Uiso   1.00
C934   C     0.27676   0.41779   0.61324   0.00000  Uiso   1.00
C935   C     0.16347   0.50892   0.93646   0.00000  Uiso   1.00
C936   C     0.30236   0.45994   0.86565   0.00000  Uiso   1.00
C937   C     0.01512   0.56046   0.56756   0.00000  Uiso   1.00
C938   C     0.21046   0.59173   0.90362   0.00000  Uiso   1.00
C939   C     0.18293   0.48927   0.51497   0.00000  Uiso   1.00
C940   C     0.23112   0.48445   0.98515   0.00000  Uiso   1.00
C941   C     0.24489   0.49759   0.93243   0.00000  Uiso   1.00
C942   C     0.21181   0.51661   0.91258   0.00000  Uiso   1.00
C943   C     0.17034   0.48016   0.56819   0.00000  Uiso   1.00
C944   C     0.25114   0.47175   0.56609   0.00000  Uiso   1.00
Cl945  Cl    0.19872   0.38192   0.83911   0.00000  Uiso   1.00
Cl946  Cl    0.13581   0.61769   0.65867   0.00000  Uiso   1.00
Cl947  Cl    0.05428   0.41752   0.71389   0.00000  Uiso   1.00
Cl948  Cl    0.31677   0.44431   0.97832   0.00000  Uiso   1.00
Cl949  Cl    0.11815   0.45069   0.59706   0.00000  Uiso   1.00
H950   H     0.14049   0.37112   0.68232   0.00000  Uiso   1.00
H951   H     0.24079   0.41341   0.64045   0.00000  Uiso   1.00
H952   H     0.30263   0.41168   0.63497   0.00000  Uiso   1.00
H953   H     0.31743   0.50605   0.91742   0.00000  Uiso   1.00
H954   H     0.00667   0.46077   0.84264   0.00000  Uiso   1.00
H955   H     0.27983   0.45935   0.83893   0.00000  Uiso   1.00
H956   H     0.29492   0.43048   0.88824   0.00000  Uiso   1.00
H957   H     0.00251   0.54461   0.99604   0.00000  Uiso   1.00
H958   H     0.31141   0.57091   0.58084   0.00000  Uiso   1.00
H959   H     0.03882   0.58866   0.56069   0.00000  Uiso   1.00
H960   H     0.02082   0.54143   0.59952   0.00000  Uiso   1.00
H961   H     0.29544   0.43703   0.72388   0.00000  Uiso   1.00
H962   H     0.26202   0.55311   0.86006   0.00000  Uiso   1.00
H963   H     0.22905   0.61777   0.87838   0.00000  Uiso   1.00
H964   H     0.21840   0.59516   0.94197   0.00000  Uiso   1.00
H965   H     0.17202   0.59451   0.90985   0.00000  Uiso   1.00
H966   H     0.03740   0.56402   0.77392   0.00000  Uiso   1.00
H967   H     0.28810   0.56456   0.77089   0.00000  Uiso   1.00
H968   H     0.05703   0.52404   0.91635   0.00000  Uiso   1.00
H969   H     0.09241   0.51679   0.56088   0.00000  Uiso   1.00
H970   H     0.19546   0.62887   0.81380   0.00000  Uiso   1.00
H971   H     0.31837   0.46747   0.57517   0.00000  Uiso   1.00
H972   H     0.28207   0.39470   0.58009   0.00000  Uiso   1.00
N973   N     0.04760   0.50001   0.75001   0.00000  Uiso   1.00
N974   N     0.28573   0.49998   0.75001   0.00000  Uiso   1.00
N975   N     0.28359   0.46018   0.59361   0.00000  Uiso   1.00
N976   N     0.29207   0.49649   0.90012   0.00000  Uiso   1.00
N977   N     0.02258   0.53553   0.51961   0.00000  Uiso   1.00
N978   N     0.22653   0.55168   0.87872   0.00000  Uiso   1.00
O979   O     0.12846   0.56108   0.75001   0.00000  Uiso   1.00
O980   O     0.20490   0.56107   0.75001   0.00000  Uiso   1.00
O981   O     0.10947   0.50000   0.82681   0.00000  Uiso   1.00
O982   O     0.18591   0.49999   0.82681   0.00000  Uiso   1.00
O983   O     0.12843   0.43893   0.75000   0.00000  Uiso   1.00
O984   O     0.20488   0.43892   0.75000   0.00000  Uiso   1.00
O985   O     0.14742   0.50001   0.67319   0.00000  Uiso   1.00
O986   O     0.22387   0.50000   0.67319   0.00000  Uiso   1.00
Zn987  Zn    0.11562   0.50001   0.75000   0.00000  Uiso   1.00
Zn988  Zn    0.21771   0.49999   0.75000   0.00000  Uiso   1.00
C989   C     0.50095   0.57982   0.74814   0.00000  Uiso   1.00
C990   C     0.46252   0.51111   0.90895   0.00000  Uiso   1.00
C991   C     0.51708   0.64562   0.78523   0.00000  Uiso   1.00
C992   C     0.47511   0.50351   0.85147   0.00000  Uiso   1.00
C993   C     0.51524   0.35531   0.78805   0.00000  Uiso   1.00
C994   C     0.49877   0.37598   0.75112   0.00000  Uiso   1.00
C995   C     0.48467   0.35440   0.71176   0.00000  Uiso   1.00
C996   C     0.48600   0.64460   0.70945   0.00000  Uiso   1.00
C997   C     0.50211   0.62398   0.74670   0.00000  Uiso   1.00
C998   C     0.64505   0.46512   0.73503   0.00000  Uiso   1.00
C999   C     0.35926   0.46495   0.73460   0.00000  Uiso   1.00
C1000  C     0.48233   0.50248   0.99065   0.00000  Uiso   1.00
C1001  C     0.35494   0.53554   0.76303   0.00000  Uiso   1.00
C1002  C     0.64079   0.53573   0.76191   0.00000  Uiso   1.00
C1003  C     0.49935   0.42013   0.75081   0.00000  Uiso   1.00
C1004  C     0.52491   0.49432   0.64957   0.00000  Uiso   1.00
C1005  C     0.59678   0.46944   0.51098   0.00000  Uiso   1.00
C1006  C     0.53835   0.48267   0.59393   0.00000  Uiso   1.00
C1007  C     0.41595   0.51924   0.93727   0.00000  Uiso   1.00
C1008  C     0.40285   0.52356   0.99214   0.00000  Uiso   1.00
C1009  C     0.43584   0.51373   0.51870   0.00000  Uiso   1.00
C1010  C     0.61009   0.41779   0.61324   0.00000  Uiso   1.00
C1011  C     0.49680   0.50892   0.93646   0.00000  Uiso   1.00
C1012  C     0.63570   0.45994   0.86565   0.00000  Uiso   1.00
C1013  C     0.34845   0.56046   0.56756   0.00000  Uiso   1.00
C1014  C     0.54379   0.59173   0.90362   0.00000  Uiso   1.00
C1015  C     0.51627   0.48927   0.51497   0.00000  Uiso   1.00
C1016  C     0.56446   0.48445   0.98515   0.00000  Uiso   1.00
C1017  C     0.57822   0.49759   0.93243   0.00000  Uiso   1.00
C1018  C     0.54514   0.51661   0.91258   0.00000  Uiso   1.00
C1019  C     0.50367   0.48016   0.56819   0.00000  Uiso   1.00
C1020  C     0.58448   0.47175   0.56609   0.00000  Uiso   1.00
Cl1021 Cl    0.53205   0.38192   0.83911   0.00000  Uiso   1.00
Cl1022 Cl    0.46914   0.61769   0.65867   0.00000  Uiso   1.00
Cl1023 Cl    0.38761   0.41752   0.71389   0.00000  Uiso   1.00
Cl1024 Cl    0.65010   0.44431   0.97832   0.00000  Uiso   1.00
Cl1025 Cl    0.45148   0.45069   0.59706   0.00000  Uiso   1.00
H1026  H     0.47382   0.37112   0.68232   0.00000  Uiso   1.00
H1027  H     0.57412   0.41341   0.64045   0.00000  Uiso   1.00
H1028  H     0.63596   0.41168   0.63497   0.00000  Uiso   1.00
H1029  H     0.65076   0.50605   0.91742   0.00000  Uiso   1.00
H1030  H     0.34000   0.46077   0.84264   0.00000  Uiso   1.00
H1031  H     0.61316   0.45935   0.83893   0.00000  Uiso   1.00
H1032  H     0.62826   0.43048   0.88824   0.00000  Uiso   1.00
H1033  H     0.33584   0.54461   0.99604   0.00000  Uiso   1.00
H1034  H     0.64475   0.57091   0.58084   0.00000  Uiso   1.00
H1035  H     0.37215   0.58866   0.56069   0.00000  Uiso   1.00
H1036  H     0.35416   0.54143   0.59952   0.00000  Uiso   1.00
H1037  H     0.62877   0.43703   0.72388   0.00000  Uiso   1.00
H1038  H     0.59536   0.55311   0.86006   0.00000  Uiso   1.00
H1039  H     0.56238   0.61777   0.87838   0.00000  Uiso   1.00
H1040  H     0.55173   0.59516   0.94197   0.00000  Uiso   1.00
H1041  H     0.50536   0.59451   0.90985   0.00000  Uiso   1.00
H1042  H     0.37073   0.56402   0.77392   0.00000  Uiso   1.00
H1043  H     0.62143   0.56456   0.77089   0.00000  Uiso   1.00
H1044  H     0.39037   0.52404   0.91635   0.00000  Uiso   1.00
H1045  H     0.42574   0.51679   0.56088   0.00000  Uiso   1.00
H1046  H     0.52880   0.62887   0.81380   0.00000  Uiso   1.00
H1047  H     0.65170   0.46747   0.57517   0.00000  Uiso   1.00
H1048  H     0.61540   0.39470   0.58009   0.00000  Uiso   1.00
N1049  N     0.38093   0.50001   0.75001   0.00000  Uiso   1.00
N1050  N     0.61906   0.49998   0.75001   0.00000  Uiso   1.00
N1051  N     0.61692   0.46018   0.59361   0.00000  Uiso   1.00
N1052  N     0.62541   0.49649   0.90012   0.00000  Uiso   1.00
N1053  N     0.35591   0.53553   0.51961   0.00000  Uiso   1.00
N1054  N     0.55986   0.55168   0.87872   0.00000  Uiso   1.00
O1055  O     0.46179   0.56108   0.75001   0.00000  Uiso   1.00
O1056  O     0.53823   0.56107   0.75001   0.00000  Uiso   1.00
O1057  O     0.44280   0.50000   0.82681   0.00000  Uiso   1.00
O1058  O     0.51924   0.49999   0.82681   0.00000  Uiso   1.00
O1059  O     0.46177   0.43893   0.75000   0.00000  Uiso   1.00
O1060  O     0.53821   0.43892   0.75000   0.00000  Uiso   1.00
O1061  O     0.48076   0.50001   0.67319   0.00000  Uiso   1.00
O1062  O     0.55720   0.50000   0.67319   0.00000  Uiso   1.00
Zn1063 Zn    0.44896   0.50001   0.75000   0.00000  Uiso   1.00
Zn1064 Zn    0.55104   0.49999   0.75000   0.00000  Uiso   1.00
C1065  C     0.83428   0.57982   0.74814   0.00000  Uiso   1.00
C1066  C     0.79586   0.51111   0.90895   0.00000  Uiso   1.00
C1067  C     0.85041   0.64562   0.78523   0.00000  Uiso   1.00
C1068  C     0.80844   0.50351   0.85147   0.00000  Uiso   1.00
C1069  C     0.84858   0.35531   0.78805   0.00000  Uiso   1.00
C1070  C     0.83210   0.37598   0.75112   0.00000  Uiso   1.00
C1071  C     0.81800   0.35440   0.71176   0.00000  Uiso   1.00
C1072  C     0.81933   0.64460   0.70945   0.00000  Uiso   1.00
C1073  C     0.83544   0.62398   0.74670   0.00000  Uiso   1.00
C1074  C     0.97838   0.46512   0.73503   0.00000  Uiso   1.00
C1075  C     0.69260   0.46495   0.73460   0.00000  Uiso   1.00
C1076  C     0.81566   0.50248   0.99065   0.00000  Uiso   1.00
C1077  C     0.68827   0.53554   0.76303   0.00000  Uiso   1.00
C1078  C     0.97412   0.53573   0.76191   0.00000  Uiso   1.00
C1079  C     0.83268   0.42013   0.75081   0.00000  Uiso   1.00
C1080  C     0.85824   0.49432   0.64957   0.00000  Uiso   1.00
C1081  C     0.93011   0.46944   0.51098   0.00000  Uiso   1.00
C1082  C     0.87168   0.48267   0.59393   0.00000  Uiso   1.00
C1083  C     0.74928   0.51924   0.93727   0.00000  Uiso   1.00
C1084  C     0.73619   0.52356   0.99214   0.00000  Uiso   1.00
C1085  C     0.76918   0.51373   0.51870   0.00000  Uiso   1.00
C1086  C     0.94342   0.41779   0.61324   0.00000  Uiso   1.00
C1087  C     0.83014   0.50892   0.93646   0.00000  Uiso   1.00
C1088  C     0.96903   0.45994   0.86565   0.00000  Uiso   1.00
C1089  C     0.68178   0.56046   0.56756   0.00000  Uiso   1.00
C1090  C     0.87712   0.59173   0.90362   0.00000  Uiso   1.00
C1091  C     0.84960   0.48927   0.51497   0.00000  Uiso   1.00
C1092  C     0.89779   0.48445   0.98515   0.00000  Uiso   1.00
C1093  C     0.91155   0.49759   0.93243   0.00000  Uiso   1.00
C1094  C     0.87847   0.51661   0.91258   0.00000  Uiso   1.00
C1095  C     0.83700   0.48016   0.56819   0.00000  Uiso   1.00
C1096  C     0.91781   0.47175   0.56609   0.00000  Uiso   1.00
Cl1097 Cl    0.86539   0.38192   0.83911   0.00000  Uiso   1.00
Cl1098 Cl    0.80248   0.61769   0.65867   0.00000  Uiso   1.00
Cl1099 Cl    0.72094   0.41752   0.71389   0.00000  Uiso   1.00
Cl1100 Cl    0.98343   0.44431   0.97832   0.00000  Uiso   1.00
Cl1101 Cl    0.78482   0.45069   0.59706   0.00000  Uiso   1.00
H1102  H     0.80715   0.37112   0.68232   0.00000  Uiso   1.00
H1103  H     0.90745   0.41341   0.64045   0.00000  Uiso   1.00
H1104  H     0.96930   0.41168   0.63497   0.00000  Uiso   1.00
H1105  H     0.98409   0.50605   0.91742   0.00000  Uiso   1.00
H1106  H     0.67333   0.46077   0.84264   0.00000  Uiso   1.00
H1107  H     0.94649   0.45935   0.83893   0.00000  Uiso   1.00
H1108  H     0.96159   0.43048   0.88824   0.00000  Uiso   1.00
H1109  H     0.66918   0.54461   0.99604   0.00000  Uiso   1.00
H1110  H     0.97808   0.57091   0.58084   0.00000  Uiso   1.00
H1111  H     0.70549   0.58866   0.56069   0.00000  Uiso   1.00
H1112  H     0.68749   0.54143   0.59952   0.00000  Uiso   1.00
H1113  H     0.96211   0.43703   0.72388   0.00000  Uiso   1.00
H1114  H     0.92869   0.55311   0.86006   0.00000  Uiso   1.00
H1115  H     0.89571   0.61777   0.87838   0.00000  Uiso   1.00
H1116  H     0.88506   0.59516   0.94197   0.00000  Uiso   1.00
H1117  H     0.83869   0.59451   0.90985   0.00000  Uiso   1.00
H1118  H     0.70407   0.56402   0.77392   0.00000  Uiso   1.00
H1119  H     0.95477   0.56456   0.77089   0.00000  Uiso   1.00
H1120  H     0.72370   0.52404   0.91635   0.00000  Uiso   1.00
H1121  H     0.75908   0.51679   0.56088   0.00000  Uiso   1.00
H1122  H     0.86213   0.62887   0.81380   0.00000  Uiso   1.00
H1123  H     0.98503   0.46747   0.57517   0.00000  Uiso   1.00
H1124  H     0.94874   0.39470   0.58009   0.00000  Uiso   1.00
N1125  N     0.71426   0.50001   0.75001   0.00000  Uiso   1.00
N1126  N     0.95239   0.49998   0.75001   0.00000  Uiso   1.00
N1127  N     0.95025   0.46018   0.59361   0.00000  Uiso   1.00
N1128  N     0.95874   0.49649   0.90012   0.00000  Uiso   1.00
N1129  N     0.68925   0.53553   0.51961   0.00000  Uiso   1.00
N1130  N     0.89320   0.55168   0.87872   0.00000  Uiso   1.00
O1131  O     0.79512   0.56108   0.75001   0.00000  Uiso   1.00
O1132  O     0.87157   0.56107   0.75001   0.00000  Uiso   1.00
O1133  O     0.77613   0.50000   0.82681   0.00000  Uiso   1.00
O1134  O     0.85258   0.49999   0.82681   0.00000  Uiso   1.00
O1135  O     0.79510   0.43893   0.75000   0.00000  Uiso   1.00
O1136  O     0.87154   0.43892   0.75000   0.00000  Uiso   1.00
O1137  O     0.81409   0.50001   0.67319   0.00000  Uiso   1.00
O1138  O     0.89053   0.50000   0.67319   0.00000  Uiso   1.00
Zn1139 Zn    0.78229   0.50001   0.75000   0.00000  Uiso   1.00
Zn1140 Zn    0.88438   0.49999   0.75000   0.00000  Uiso   1.00
C1141  C     0.16762   0.91316   0.74814   0.00000  Uiso   1.00
C1142  C     0.12919   0.84444   0.90895   0.00000  Uiso   1.00
C1143  C     0.18375   0.97895   0.78523   0.00000  Uiso   1.00
C1144  C     0.14177   0.83684   0.85147   0.00000  Uiso   1.00
C1145  C     0.18191   0.68864   0.78805   0.00000  Uiso   1.00
C1146  C     0.16544   0.70931   0.75112   0.00000  Uiso   1.00
C1147  C     0.15134   0.68774   0.71176   0.00000  Uiso   1.00
C1148  C     0.15266   0.97793   0.70945   0.00000  Uiso   1.00
C1149  C     0.16877   0.95731   0.74670   0.00000  Uiso   1.00
C1150  C     0.31172   0.79846   0.73503   0.00000  Uiso   1.00
C1151  C     0.02593   0.79828   0.73460   0.00000  Uiso   1.00
C1152  C     0.14900   0.83582   0.99065   0.00000  Uiso   1.00
C1153  C     0.02161   0.86888   0.76303   0.00000  Uiso   1.00
C1154  C     0.30745   0.86906   0.76191   0.00000  Uiso   1.00
C1155  C     0.16601   0.75346   0.75081   0.00000  Uiso   1.00
C1156  C     0.19157   0.82766   0.64957   0.00000  Uiso   1.00
C1157  C     0.26344   0.80277   0.51098   0.00000  Uiso   1.00
C1158  C     0.20501   0.81600   0.59393   0.00000  Uiso   1.00
C1159  C     0.08262   0.85258   0.93727   0.00000  Uiso   1.00
C1160  C     0.06952   0.85690   0.99214   0.00000  Uiso   1.00
C1161  C     0.10251   0.84706   0.51870   0.00000  Uiso   1.00
C1162  C     0.27676   0.75112   0.61324   0.00000  Uiso   1.00
C1163  C     0.16347   0.84225   0.93646   0.00000  Uiso   1.00
C1164  C     0.30236   0.79328   0.86565   0.00000  Uiso   1.00
C1165  C     0.01512   0.89379   0.56756   0.00000  Uiso   1.00
C1166  C     0.21046   0.92507   0.90362   0.00000  Uiso   1.00
C1167  C     0.18293   0.82261   0.51497   0.00000  Uiso   1.00
C1168  C     0.23112   0.81778   0.98515   0.00000  Uiso   1.00
C1169  C     0.24489   0.83092   0.93243   0.00000  Uiso   1.00
C1170  C     0.21181   0.84994   0.91258   0.00000  Uiso   1.00
C1171  C     0.17034   0.81349   0.56819   0.00000  Uiso   1.00
C1172  C     0.25114   0.80508   0.56609   0.00000  Uiso   1.00
Cl1173 Cl    0.19872   0.71525   0.83911   0.00000  Uiso   1.00
Cl1174 Cl    0.13581   0.95102   0.65867   0.00000  Uiso   1.00
Cl1175 Cl    0.05428   0.75085   0.71389   0.00000  Uiso   1.00
Cl1176 Cl    0.31677   0.77764   0.97832   0.00000  Uiso   1.00
Cl1177 Cl    0.11815   0.78402   0.59706   0.00000  Uiso   1.00
H1178  H     0.14049   0.70445   0.68232   0.00000  Uiso   1.00
H1179  H     0.24079   0.74675   0.64045   0.00000  Uiso   1.00
H1180  H     0.30263   0.74501   0.63497   0.00000  Uiso   1.00
H1181  H     0.31743   0.83938   0.91742   0.00000  Uiso   1.00
H1182  H     0.00667   0.79410   0.84264   0.00000  Uiso   1.00
H1183  H     0.27983   0.79268   0.83893   0.00000  Uiso   1.00
H1184  H     0.29492   0.76381   0.88824   0.00000  Uiso   1.00
H1185  H     0.00251   0.87794   0.99604   0.00000  Uiso   1.00
H1186  H     0.31141   0.90424   0.58084   0.00000  Uiso   1.00
H1187  H     0.03882   0.92199   0.56069   0.00000  Uiso   1.00
H1188  H     0.02082   0.87476   0.59952   0.00000  Uiso   1.00
H1189  H     0.29544   0.77037   0.72388   0.00000  Uiso   1.00
H1190  H     0.26202   0.88645   0.86006   0.00000  Uiso   1.00
H1191  H     0.22905   0.95110   0.87838   0.00000  Uiso   1.00
H1192  H     0.21840   0.92849   0.94197   0.00000  Uiso   1.00
H1193  H     0.17202   0.92785   0.90985   0.00000  Uiso   1.00
H1194  H     0.03740   0.89735   0.77392   0.00000  Uiso   1.00
H1195  H     0.28810   0.89789   0.77089   0.00000  Uiso   1.00
H1196  H     0.05703   0.85737   0.91635   0.00000  Uiso   1.00
H1197  H     0.09241   0.85012   0.56088   0.00000  Uiso   1.00
H1198  H     0.19546   0.96220   0.81380   0.00000  Uiso   1.00
H1199  H     0.31837   0.80080   0.57517   0.00000  Uiso   1.00
H1200  H     0.28207   0.72803   0.58009   0.00000  Uiso   1.00
N1201  N     0.04760   0.83334   0.75001   0.00000  Uiso   1.00
N1202  N     0.28573   0.83331   0.75001   0.00000  Uiso   1.00
N1203  N     0.28359   0.79352   0.59361   0.00000  Uiso   1.00
N1204  N     0.29207   0.82982   0.90012   0.00000  Uiso   1.00
N1205  N     0.02258   0.86886   0.51961   0.00000  Uiso   1.00
N1206  N     0.22653   0.88501   0.87872   0.00000  Uiso   1.00
O1207  O     0.12846   0.89442   0.75001   0.00000  Uiso   1.00
O1208  O     0.20490   0.89441   0.75001   0.00000  Uiso   1.00
O1209  O     0.10947   0.83333   0.82681   0.00000  Uiso   1.00
O1210  O     0.18591   0.83332   0.82681   0.00000  Uiso   1.00
O1211  O     0.12843   0.77226   0.75000   0.00000  Uiso   1.00
O1212  O     0.20488   0.77225   0.75000   0.00000  Uiso   1.00
O1213  O     0.14742   0.83335   0.67319   0.00000  Uiso   1.00
O1214  O     0.22387   0.83334   0.67319   0.00000  Uiso   1.00
Zn1215 Zn    0.11562   0.83334   0.75000   0.00000  Uiso   1.00
Zn1216 Zn    0.21771   0.83333   0.75000   0.00000  Uiso   1.00
C1217  C     0.50095   0.91316   0.74814   0.00000  Uiso   1.00
C1218  C     0.46252   0.84444   0.90895   0.00000  Uiso   1.00
C1219  C     0.51708   0.97895   0.78523   0.00000  Uiso   1.00
C1220  C     0.47511   0.83684   0.85147   0.00000  Uiso   1.00
C1221  C     0.51524   0.68864   0.78805   0.00000  Uiso   1.00
C1222  C     0.49877   0.70931   0.75112   0.00000  Uiso   1.00
C1223  C     0.48467   0.68774   0.71176   0.00000  Uiso   1.00
C1224  C     0.48600   0.97793   0.70945   0.00000  Uiso   1.00
C1225  C     0.50211   0.95731   0.74670   0.00000  Uiso   1.00
C1226  C     0.64505   0.79846   0.73503   0.00000  Uiso   1.00
C1227  C     0.35926   0.79828   0.73460   0.00000  Uiso   1.00
C1228  C     0.48233   0.83582   0.99065   0.00000  Uiso   1.00
C1229  C     0.35494   0.86888   0.76303   0.00000  Uiso   1.00
C1230  C     0.64079   0.86906   0.76191   0.00000  Uiso   1.00
C1231  C     0.49935   0.75346   0.75081   0.00000  Uiso   1.00
C1232  C     0.52491   0.82766   0.64957   0.00000  Uiso   1.00
C1233  C     0.59678   0.80277   0.51098   0.00000  Uiso   1.00
C1234  C     0.53835   0.81600   0.59393   0.00000  Uiso   1.00
C1235  C     0.41595   0.85258   0.93727   0.00000  Uiso   1.00
C1236  C     0.40285   0.85690   0.99214   0.00000  Uiso   1.00
C1237  C     0.43584   0.84706   0.51870   0.00000  Uiso   1.00
C1238  C     0.61009   0.75112   0.61324   0.00000  Uiso   1.00
C1239  C     0.49680   0.84225   0.93646   0.00000  Uiso   1.00
C1240  C     0.63570   0.79328   0.86565   0.00000  Uiso   1.00
C1241  C     0.34845   0.89379   0.56756   0.00000  Uiso   1.00
C1242  C     0.54379   0.92507   0.90362   0.00000  Uiso   1.00
C1243  C     0.51627   0.82261   0.51497   0.00000  Uiso   1.00
C1244  C     0.56446   0.81778   0.98515   0.00000  Uiso   1.00
C1245  C     0.57822   0.83092   0.93243   0.00000  Uiso   1.00
C1246  C     0.54514   0.84994   0.91258   0.00000  Uiso   1.00
C1247  C     0.50367   0.81349   0.56819   0.00000  Uiso   1.00
C1248  C     0.58448   0.80508   0.56609   0.00000  Uiso   1.00
Cl1249 Cl    0.53205   0.71525   0.83911   0.00000  Uiso   1.00
Cl1250 Cl    0.46914   0.95102   0.65867   0.00000  Uiso   1.00
Cl1251 Cl    0.38761   0.75085   0.71389   0.00000  Uiso   1.00
Cl1252 Cl    0.65010   0.77764   0.97832   0.00000  Uiso   1.00
Cl1253 Cl    0.45148   0.78402   0.59706   0.00000  Uiso   1.00
H1254  H     0.47382   0.70445   0.68232   0.00000  Uiso   1.00
H1255  H     0.57412   0.74675   0.64045   0.00000  Uiso   1.00
H1256  H     0.63596   0.74501   0.63497   0.00000  Uiso   1.00
H1257  H     0.65076   0.83938   0.91742   0.00000  Uiso   1.00
H1258  H     0.34000   0.79410   0.84264   0.00000  Uiso   1.00
H1259  H     0.61316   0.79268   0.83893   0.00000  Uiso   1.00
H1260  H     0.62826   0.76381   0.88824   0.00000  Uiso   1.00
H1261  H     0.33584   0.87794   0.99604   0.00000  Uiso   1.00
H1262  H     0.64475   0.90424   0.58084   0.00000  Uiso   1.00
H1263  H     0.37215   0.92199   0.56069   0.00000  Uiso   1.00
H1264  H     0.35416   0.87476   0.59952   0.00000  Uiso   1.00
H1265  H     0.62877   0.77037   0.72388   0.00000  Uiso   1.00
H1266  H     0.59536   0.88645   0.86006   0.00000  Uiso   1.00
H1267  H     0.56238   0.95110   0.87838   0.00000  Uiso   1.00
H1268  H     0.55173   0.92849   0.94197   0.00000  Uiso   1.00
H1269  H     0.50536   0.92785   0.90985   0.00000  Uiso   1.00
H1270  H     0.37073   0.89735   0.77392   0.00000  Uiso   1.00
H1271  H     0.62143   0.89789   0.77089   0.00000  Uiso   1.00
H1272  H     0.39037   0.85737   0.91635   0.00000  Uiso   1.00
H1273  H     0.42574   0.85012   0.56088   0.00000  Uiso   1.00
H1274  H     0.52880   0.96220   0.81380   0.00000  Uiso   1.00
H1275  H     0.65170   0.80080   0.57517   0.00000  Uiso   1.00
H1276  H     0.61540   0.72803   0.58009   0.00000  Uiso   1.00
N1277  N     0.38093   0.83334   0.75001   0.00000  Uiso   1.00
N1278  N     0.61906   0.83331   0.75001   0.00000  Uiso   1.00
N1279  N     0.61692   0.79352   0.59361   0.00000  Uiso   1.00
N1280  N     0.62541   0.82982   0.90012   0.00000  Uiso   1.00
N1281  N     0.35591   0.86886   0.51961   0.00000  Uiso   1.00
N1282  N     0.55986   0.88501   0.87872   0.00000  Uiso   1.00
O1283  O     0.46179   0.89442   0.75001   0.00000  Uiso   1.00
O1284  O     0.53823   0.89441   0.75001   0.00000  Uiso   1.00
O1285  O     0.44280   0.83333   0.82681   0.00000  Uiso   1.00
O1286  O     0.51924   0.83332   0.82681   0.00000  Uiso   1.00
O1287  O     0.46177   0.77226   0.75000   0.00000  Uiso   1.00
O1288  O     0.53821   0.77225   0.75000   0.00000  Uiso   1.00
O1289  O     0.48076   0.83335   0.67319   0.00000  Uiso   1.00
O1290  O     0.55720   0.83334   0.67319   0.00000  Uiso   1.00
Zn1291 Zn    0.44896   0.83334   0.75000   0.00000  Uiso   1.00
Zn1292 Zn    0.55104   0.83333   0.75000   0.00000  Uiso   1.00
C1293  C     0.83428   0.91316   0.74814   0.00000  Uiso   1.00
C1294  C     0.79586   0.84444   0.90895   0.00000  Uiso   1.00
C1295  C     0.85041   0.97895   0.78523   0.00000  Uiso   1.00
C1296  C     0.80844   0.83684   0.85147   0.00000  Uiso   1.00
C1297  C     0.84858   0.68864   0.78805   0.00000  Uiso   1.00
C1298  C     0.83210   0.70931   0.75112   0.00000  Uiso   1.00
C1299  C     0.81800   0.68774   0.71176   0.00000  Uiso   1.00
C1300  C     0.81933   0.97793   0.70945   0.00000  Uiso   1.00
C1301  C     0.83544   0.95731   0.74670   0.00000  Uiso   1.00
C1302  C     0.97838   0.79846   0.73503   0.00000  Uiso   1.00
C1303  C     0.69260   0.79828   0.73460   0.00000  Uiso   1.00
C1304  C     0.81566   0.83582   0.99065   0.00000  Uiso   1.00
C1305  C     0.68827   0.86888   0.76303   0.00000  Uiso   1.00
C1306  C     0.97412   0.86906   0.76191   0.00000  Uiso   1.00
C1307  C     0.83268   0.75346   0.75081   0.00000  Uiso   1.00
C1308  C     0.85824   0.82766   0.64957   0.00000  Uiso   1.00
C1309  C     0.93011   0.80277   0.51098   0.00000  Uiso   1.00
C1310  C     0.87168   0.81600   0.59393   0.00000  Uiso   1.00
C1311  C     0.74928   0.85258   0.93727   0.00000  Uiso   1.00
C1312  C     0.73619   0.85690   0.99214   0.00000  Uiso   1.00
C1313  C     0.76918   0.84706   0.51870   0.00000  Uiso   1.00
C1314  C     0.94342   0.75112   0.61324   0.00000  Uiso   1.00
C1315  C     0.83014   0.84225   0.93646   0.00000  Uiso   1.00
C1316  C     0.96903   0.79328   0.86565   0.00000  Uiso   1.00
C1317  C     0.68178   0.89379   0.56756   0.00000  Uiso   1.00
C1318  C     0.87712   0.92507   0.90362   0.00000  Uiso   1.00
C1319  C     0.84960   0.82261   0.51497   0.00000  Uiso   1.00
C1320  C     0.89779   0.81778   0.98515   0.00000  Uiso   1.00
C1321  C     0.91155   0.83092   0.93243   0.00000  Uiso   1.00
C1322  C     0.87847   0.84994   0.91258   0.00000  Uiso   1.00
C1323  C     0.83700   0.81349   0.56819   0.00000  Uiso   1.00
C1324  C     0.91781   0.80508   0.56609   0.00000  Uiso   1.00
Cl1325 Cl    0.86539   0.71525   0.83911   0.00000  Uiso   1.00
Cl1326 Cl    0.80248   0.95102   0.65867   0.00000  Uiso   1.00
Cl1327 Cl    0.72094   0.75085   0.71389   0.00000  Uiso   1.00
Cl1328 Cl    0.98343   0.77764   0.97832   0.00000  Uiso   1.00
Cl1329 Cl    0.78482   0.78402   0.59706   0.00000  Uiso   1.00
H1330  H     0.80715   0.70445   0.68232   0.00000  Uiso   1.00
H1331  H     0.90745   0.74675   0.64045   0.00000  Uiso   1.00
H1332  H     0.96930   0.74501   0.63497   0.00000  Uiso   1.00
H1333  H     0.98409   0.83938   0.91742   0.00000  Uiso   1.00
H1334  H     0.67333   0.79410   0.84264   0.00000  Uiso   1.00
H1335  H     0.94649   0.79268   0.83893   0.00000  Uiso   1.00
H1336  H     0.96159   0.76381   0.88824   0.00000  Uiso   1.00
H1337  H     0.66918   0.87794   0.99604   0.00000  Uiso   1.00
H1338  H     0.97808   0.90424   0.58084   0.00000  Uiso   1.00
H1339  H     0.70549   0.92199   0.56069   0.00000  Uiso   1.00
H1340  H     0.68749   0.87476   0.59952   0.00000  Uiso   1.00
H1341  H     0.96211   0.77037   0.72388   0.00000  Uiso   1.00
H1342  H     0.92869   0.88645   0.86006   0.00000  Uiso   1.00
H1343  H     0.89571   0.95110   0.87838   0.00000  Uiso   1.00
H1344  H     0.88506   0.92849   0.94197   0.00000  Uiso   1.00
H1345  H     0.83869   0.92785   0.90985   0.00000  Uiso   1.00
H1346  H     0.70407   0.89735   0.77392   0.00000  Uiso   1.00
H1347  H     0.95477   0.89789   0.77089   0.00000  Uiso   1.00
H1348  H     0.72370   0.85737   0.91635   0.00000  Uiso   1.00
H1349  H     0.75908   0.85012   0.56088   0.00000  Uiso   1.00
H1350  H     0.86213   0.96220   0.81380   0.00000  Uiso   1.00
H1351  H     0.98503   0.80080   0.57517   0.00000  Uiso   1.00
H1352  H     0.94874   0.72803   0.58009   0.00000  Uiso   1.00
N1353  N     0.71426   0.83334   0.75001   0.00000  Uiso   1.00
N1354  N     0.95239   0.83331   0.75001   0.00000  Uiso   1.00
N1355  N     0.95025   0.79352   0.59361   0.00000  Uiso   1.00
N1356  N     0.95874   0.82982   0.90012   0.00000  Uiso   1.00
N1357  N     0.68925   0.86886   0.51961   0.00000  Uiso   1.00
N1358  N     0.89320   0.88501   0.87872   0.00000  Uiso   1.00
O1359  O     0.79512   0.89442   0.75001   0.00000  Uiso   1.00
O1360  O     0.87157   0.89441   0.75001   0.00000  Uiso   1.00
O1361  O     0.77613   0.83333   0.82681   0.00000  Uiso   1.00
O1362  O     0.85258   0.83332   0.82681   0.00000  Uiso   1.00
O1363  O     0.79510   0.77226   0.75000   0.00000  Uiso   1.00
O1364  O     0.87154   0.77225   0.75000   0.00000  Uiso   1.00
O1365  O     0.81409   0.83335   0.67319   0.00000  Uiso   1.00
O1366  O     0.89053   0.83334   0.67319   0.00000  Uiso   1.00
Zn1367 Zn    0.78229   0.83334   0.75000   0.00000  Uiso   1.00
Zn1368 Zn    0.88438   0.83333   0.75000   0.00000  Uiso   1.00
loop_
_geom_bond_atom_site_label_1
_geom_bond_atom_site_label_2
_geom_bond_distance
_geom_bond_site_symmetry_2
_ccdc_geom_bond_type
C1     O68     1.286   .     A
C1     C9      1.407   .     S
C1     O67     1.281   .     A
C2     C4      1.479   .     S
C2     C23     1.418   .     A
C2     C19     1.398   .     A
C3     C9      1.390   .     A
C3     H58     1.079   .     S
C3     C233    1.372   .     S
C4     O70     1.291   .     A
C4     O69     1.310   .     A
C5     C6      1.401   .     A
C5     Cl33    1.766   .     S
C5     C459    1.372   1_545 S
C6     C15     1.406   .     S
C6     C7      1.394   .     A
C7     H38     1.084   .     S
C7     C464    1.375   1_545 S
C8     C9      1.401   .     A
C8     Cl34    1.765   .     S
C8     C235    1.375   .     S
C10    N62     1.354   .     A
C10    H49     1.081   .     S
C10    C87     1.409   .     S
C11    N61     1.385   .     A
C11    Cl35    1.747   .     S
C11    C162    1.409   1_455 S
C12    C23     1.397   .     A
C12    C705    1.417   .     S
C12    C711    1.422   .     S
C13    N61     1.367   .     A
C13    H54     1.081   .     S
C13    C166    1.419   1_455 S
C14    N62     1.368   .     A
C14    H55     1.081   .     S
C14    C89     1.419   .     S
C15    O72     1.280   .     A
C15    O71     1.286   .     A
C16    O74     1.296   .     A
C16    O73     1.295   .     A
C16    C18     1.457   .     S
C17    C32     1.403   .     A
C17    C712    1.429   1_554 S
C17    Cl720   1.772   1_554 S
C18    C32     1.404   .     A
C18    C31     1.391   .     A
C19    H56     1.079   .     S
C19    C20     1.400   .     A
C20    C705    1.408   .     S
C20    N749    1.431   .     S
C21    H57     1.076   .     S
C21    C704    1.408   1_554 S
C21    C696    1.417   1_554 S
C22    H60     1.111   .     S
C22    N63     1.447   .     S
C22    H40     1.110   .     S
C22    H39     1.111   .     S
C23    C30     1.409   .     A
C24    N64     1.446   .     S
C24    H44     1.109   .     S
C24    H43     1.107   .     S
C24    H118    1.108   .     S
C25    H47     1.111   .     S
C25    H48     1.110   .     S
C25    N65     1.449   .     S
C25    H198    1.111   1_455 S
C26    N66     1.449   .     S
C26    H52     1.112   .     S
C26    H53     1.110   .     S
C26    H51     1.109   .     S
C27    C31     1.390   .     A
C27    C696    1.422   1_554 S
C27    C712    1.432   1_554 S
C28    C29     1.412   .     A
C28    C701    1.429   .     S
C28    C711    1.432   .     S
C29    N64     1.417   .     S
C29    C30     1.399   .     A
C30    N66     1.430   .     S
C31    Cl37    1.772   .     S
C32    N63     1.427   .     S
Cl36   C701    1.772   .     S
H41    N64     1.025   .     S
H42    C176    1.108   1_455 S
H45    N749    1.032   .     S
H46    C101    1.111   .     S
H50    N66     1.027   .     S
H59    N63     1.030   .     S
N61    Zn75    2.020   .     S
N62    Zn76    2.020   .     S
N65    C704    1.431   1_554 S
N65    H729    1.032   1_554 S
O67    Zn75    1.972   .     S
O68    Zn76    1.992   .     S
O69    Zn75    1.995   .     S
O70    Zn76    1.985   .     S
O71    Zn75    1.992   .     S
O72    Zn76    1.972   .     S
O73    Zn75    1.985   .     S
O74    Zn76    1.995   .     S
C77    O144    1.286   .     A
C77    C85     1.407   .     S
C77    O143    1.281   .     A
C78    C80     1.479   .     S
C78    C99     1.418   .     A
C78    C95     1.398   .     A
C79    C85     1.390   .     A
C79    H134    1.079   .     S
C79    C309    1.372   .     S
C80    O146    1.291   .     A
C80    O145    1.310   .     A
C81    C82     1.401   .     A
C81    Cl109   1.766   .     S
C81    C535    1.372   1_545 S
C82    C91     1.406   .     S
C82    C83     1.394   .     A
C83    H114    1.084   .     S
C83    C540    1.375   1_545 S
C84    C85     1.401   .     A
C84    Cl110   1.765   .     S
C84    C311    1.375   .     S
C86    N138    1.354   .     A
C86    H125    1.081   .     S
C86    C163    1.409   .     S
C87    N137    1.385   .     A
C87    Cl111   1.747   .     S
C88    C99     1.397   .     A
C88    C781    1.417   .     S
C88    C787    1.422   .     S
C89    N137    1.367   .     A
C89    H130    1.081   .     S
C90    N138    1.368   .     A
C90    H131    1.081   .     S
C90    C165    1.419   .     S
C91    O148    1.280   .     A
C91    O147    1.286   .     A
C92    O150    1.296   .     A
C92    O149    1.295   .     A
C92    C94     1.457   .     S
C93    C108    1.403   .     A
C93    C788    1.429   1_554 S
C93    Cl796   1.772   1_554 S
C94    C108    1.404   .     A
C94    C107    1.391   .     A
C95    H132    1.079   .     S
C95    C96     1.400   .     A
C96    C781    1.408   .     S
C96    N825    1.431   .     S
C97    H133    1.076   .     S
C97    C780    1.408   1_554 S
C97    C772    1.417   1_554 S
C98    H136    1.111   .     S
C98    N139    1.447   .     S
C98    H116    1.110   .     S
C98    H115    1.111   .     S
C99    C106    1.409   .     A
C100   N140    1.446   .     S
C100   H120    1.109   .     S
C100   H119    1.107   .     S
C100   H194    1.108   .     S
C101   H123    1.111   .     S
C101   H124    1.110   .     S
C101   N141    1.449   .     S
C102   N142    1.449   .     S
C102   H128    1.112   .     S
C102   H129    1.110   .     S
C102   H127    1.109   .     S
C103   C107    1.390   .     A
C103   C772    1.422   1_554 S
C103   C788    1.432   1_554 S
C104   C105    1.412   .     A
C104   C777    1.429   .     S
C104   C787    1.432   .     S
C105   N140    1.417   .     S
C105   C106    1.399   .     A
C106   N142    1.430   .     S
C107   Cl113   1.772   .     S
C108   N139    1.427   .     S
Cl112  C777    1.772   .     S
H117   N140    1.025   .     S
H121   N825    1.032   .     S
H122   C177    1.111   .     S
H126   N142    1.027   .     S
H135   N139    1.030   .     S
N137   Zn151   2.020   .     S
N138   Zn152   2.020   .     S
N141   C780    1.431   1_554 S
N141   H805    1.032   1_554 S
O143   Zn151   1.972   .     S
O144   Zn152   1.992   .     S
O145   Zn151   1.995   .     S
O146   Zn152   1.985   .     S
O147   Zn151   1.992   .     S
O148   Zn152   1.972   .     S
O149   Zn151   1.985   .     S
O150   Zn152   1.995   .     S
C153   O220    1.286   .     A
C153   C161    1.407   .     S
C153   O219    1.281   .     A
C154   C156    1.479   .     S
C154   C175    1.418   .     A
C154   C171    1.398   .     A
C155   C161    1.390   .     A
C155   H210    1.079   .     S
C155   C385    1.372   .     S
C156   O222    1.291   .     A
C156   O221    1.310   .     A
C157   C158    1.401   .     A
C157   Cl185   1.766   .     S
C157   C611    1.372   1_545 S
C158   C167    1.406   .     S
C158   C159    1.394   .     A
C159   H190    1.084   .     S
C159   C616    1.375   1_545 S
C160   C161    1.401   .     A
C160   Cl186   1.765   .     S
C160   C387    1.375   .     S
C162   N214    1.354   .     A
C162   H201    1.081   .     S
C162   C11     1.409   1_655 S
C163   N213    1.385   .     A
C163   Cl187   1.747   .     S
C164   C175    1.397   .     A
C164   C857    1.417   .     S
C164   C863    1.422   .     S
C165   N213    1.367   .     A
C165   H206    1.081   .     S
C166   N214    1.368   .     A
C166   H207    1.081   .     S
C166   C13     1.419   1_655 S
C167   O224    1.280   .     A
C167   O223    1.286   .     A
C168   O226    1.296   .     A
C168   O225    1.295   .     A
C168   C170    1.457   .     S
C169   C184    1.403   .     A
C169   C864    1.429   1_554 S
C169   Cl872   1.772   1_554 S
C170   C184    1.404   .     A
C170   C183    1.391   .     A
C171   H208    1.079   .     S
C171   C172    1.400   .     A
C172   C857    1.408   .     S
C172   N901    1.431   .     S
C173   H209    1.076   .     S
C173   C856    1.408   1_554 S
C173   C848    1.417   1_554 S
C174   H212    1.111   .     S
C174   N215    1.447   .     S
C174   H192    1.110   .     S
C174   H191    1.111   .     S
C175   C182    1.409   .     A
C176   N216    1.446   .     S
C176   H196    1.109   .     S
C176   H195    1.107   .     S
C176   H42     1.108   1_655 S
C177   H199    1.111   .     S
C177   H200    1.110   .     S
C177   N217    1.449   .     S
C178   N218    1.449   .     S
C178   H204    1.112   .     S
C178   H205    1.110   .     S
C178   H203    1.109   .     S
C179   C183    1.390   .     A
C179   C848    1.422   1_554 S
C179   C864    1.432   1_554 S
C180   C181    1.412   .     A
C180   C853    1.429   .     S
C180   C863    1.432   .     S
C181   N216    1.417   .     S
C181   C182    1.399   .     A
C182   N218    1.430   .     S
C183   Cl189   1.772   .     S
C184   N215    1.427   .     S
Cl188  C853    1.772   .     S
H193   N216    1.025   .     S
H197   N901    1.032   .     S
H198   C25     1.111   1_655 S
H202   N218    1.027   .     S
H211   N215    1.030   .     S
N213   Zn227   2.020   .     S
N214   Zn228   2.020   .     S
N217   C856    1.431   1_554 S
N217   H881    1.032   1_554 S
O219   Zn227   1.972   .     S
O220   Zn228   1.992   .     S
O221   Zn227   1.995   .     S
O222   Zn228   1.985   .     S
O223   Zn227   1.992   .     S
O224   Zn228   1.972   .     S
O225   Zn227   1.985   .     S
O226   Zn228   1.995   .     S
C229   O296    1.286   .     A
C229   C237    1.407   .     S
C229   O295    1.281   .     A
C230   C232    1.479   .     S
C230   C251    1.418   .     A
C230   C247    1.398   .     A
C231   C237    1.390   .     A
C231   H286    1.079   .     S
C231   C461    1.372   .     S
C232   O298    1.291   .     A
C232   O297    1.310   .     A
C233   C234    1.401   .     A
C233   Cl261   1.766   .     S
C234   C243    1.406   .     S
C234   C235    1.394   .     A
C235   H266    1.084   .     S
C236   C237    1.401   .     A
C236   Cl262   1.765   .     S
C236   C463    1.375   .     S
C238   N290    1.354   .     A
C238   H277    1.081   .     S
C238   C315    1.409   .     S
C239   N289    1.385   .     A
C239   Cl263   1.747   .     S
C239   C390    1.409   1_455 S
C240   C251    1.397   .     A
C240   C933    1.417   .     S
C240   C939    1.422   .     S
C241   N289    1.367   .     A
C241   H282    1.081   .     S
C241   C394    1.419   1_455 S
C242   N290    1.368   .     A
C242   H283    1.081   .     S
C242   C317    1.419   .     S
C243   O300    1.280   .     A
C243   O299    1.286   .     A
C244   O302    1.296   .     A
C244   O301    1.295   .     A
C244   C246    1.457   .     S
C245   C260    1.403   .     A
C245   C940    1.429   1_554 S
C245   Cl948   1.772   1_554 S
C246   C260    1.404   .     A
C246   C259    1.391   .     A
C247   H284    1.079   .     S
C247   C248    1.400   .     A
C248   C933    1.408   .     S
C248   N977    1.431   .     S
C249   H285    1.076   .     S
C249   C932    1.408   1_554 S
C249   C924    1.417   1_554 S
C250   H288    1.111   .     S
C250   N291    1.447   .     S
C250   H268    1.110   .     S
C250   H267    1.111   .     S
C251   C258    1.409   .     A
C252   N292    1.446   .     S
C252   H272    1.109   .     S
C252   H271    1.107   .     S
C252   H346    1.108   .     S
C253   H275    1.111   .     S
C253   H276    1.110   .     S
C253   N293    1.449   .     S
C253   H426    1.111   1_455 S
C254   N294    1.449   .     S
C254   H280    1.112   .     S
C254   H281    1.110   .     S
C254   H279    1.109   .     S
C255   C259    1.390   .     A
C255   C924    1.422   1_554 S
C255   C940    1.432   1_554 S
C256   C257    1.412   .     A
C256   C929    1.429   .     S
C256   C939    1.432   .     S
C257   N292    1.417   .     S
C257   C258    1.399   .     A
C258   N294    1.430   .     S
C259   Cl265   1.772   .     S
C260   N291    1.427   .     S
Cl264  C929    1.772   .     S
H269   N292    1.025   .     S
H270   C404    1.108   1_455 S
H273   N977    1.032   .     S
H274   C329    1.111   .     S
H278   N294    1.027   .     S
H287   N291    1.030   .     S
N289   Zn303   2.020   .     S
N290   Zn304   2.020   .     S
N293   C932    1.431   1_554 S
N293   H957    1.032   1_554 S
O295   Zn303   1.972   .     S
O296   Zn304   1.992   .     S
O297   Zn303   1.995   .     S
O298   Zn304   1.985   .     S
O299   Zn303   1.992   .     S
O300   Zn304   1.972   .     S
O301   Zn303   1.985   .     S
O302   Zn304   1.995   .     S
C305   O372    1.286   .     A
C305   C313    1.407   .     S
C305   O371    1.281   .     A
C306   C308    1.479   .     S
C306   C327    1.418   .     A
C306   C323    1.398   .     A
C307   C313    1.390   .     A
C307   H362    1.079   .     S
C307   C537    1.372   .     S
C308   O374    1.291   .     A
C308   O373    1.310   .     A
C309   C310    1.401   .     A
C309   Cl337   1.766   .     S
C310   C319    1.406   .     S
C310   C311    1.394   .     A
C311   H342    1.084   .     S
C312   C313    1.401   .     A
C312   Cl338   1.765   .     S
C312   C539    1.375   .     S
C314   N366    1.354   .     A
C314   H353    1.081   .     S
C314   C391    1.409   .     S
C315   N365    1.385   .     A
C315   Cl339   1.747   .     S
C316   C327    1.397   .     A
C316   C1009   1.417   .     S
C316   C1015   1.422   .     S
C317   N365    1.367   .     A
C317   H358    1.081   .     S
C318   N366    1.368   .     A
C318   H359    1.081   .     S
C318   C393    1.419   .     S
C319   O376    1.280   .     A
C319   O375    1.286   .     A
C320   O378    1.296   .     A
C320   O377    1.295   .     A
C320   C322    1.457   .     S
C321   C336    1.403   .     A
C321   C1016   1.429   1_554 S
C321   Cl1024  1.772   1_554 S
C322   C336    1.404   .     A
C322   C335    1.391   .     A
C323   H360    1.079   .     S
C323   C324    1.400   .     A
C324   C1009   1.408   .     S
C324   N1053   1.431   .     S
C325   H361    1.076   .     S
C325   C1008   1.408   1_554 S
C325   C1000   1.417   1_554 S
C326   H364    1.111   .     S
C326   N367    1.447   .     S
C326   H344    1.110   .     S
C326   H343    1.111   .     S
C327   C334    1.409   .     A
C328   N368    1.446   .     S
C328   H348    1.109   .     S
C328   H347    1.107   .     S
C328   H422    1.108   .     S
C329   H351    1.111   .     S
C329   H352    1.110   .     S
C329   N369    1.449   .     S
C330   N370    1.449   .     S
C330   H356    1.112   .     S
C330   H357    1.110   .     S
C330   H355    1.109   .     S
C331   C335    1.390   .     A
C331   C1000   1.422   1_554 S
C331   C1016   1.432   1_554 S
C332   C333    1.412   .     A
C332   C1005   1.429   .     S
C332   C1015   1.432   .     S
C333   N368    1.417   .     S
C333   C334    1.399   .     A
C334   N370    1.430   .     S
C335   Cl341   1.772   .     S
C336   N367    1.427   .     S
Cl340  C1005   1.772   .     S
H345   N368    1.025   .     S
H349   N1053   1.032   .     S
H350   C405    1.111   .     S
H354   N370    1.027   .     S
H363   N367    1.030   .     S
N365   Zn379   2.020   .     S
N366   Zn380   2.020   .     S
N369   C1008   1.431   1_554 S
N369   H1033   1.032   1_554 S
O371   Zn379   1.972   .     S
O372   Zn380   1.992   .     S
O373   Zn379   1.995   .     S
O374   Zn380   1.985   .     S
O375   Zn379   1.992   .     S
O376   Zn380   1.972   .     S
O377   Zn379   1.985   .     S
O378   Zn380   1.995   .     S
C381   O448    1.286   .     A
C381   C389    1.407   .     S
C381   O447    1.281   .     A
C382   C384    1.479   .     S
C382   C403    1.418   .     A
C382   C399    1.398   .     A
C383   C389    1.390   .     A
C383   H438    1.079   .     S
C383   C613    1.372   .     S
C384   O450    1.291   .     A
C384   O449    1.310   .     A
C385   C386    1.401   .     A
C385   Cl413   1.766   .     S
C386   C395    1.406   .     S
C386   C387    1.394   .     A
C387   H418    1.084   .     S
C388   C389    1.401   .     A
C388   Cl414   1.765   .     S
C388   C615    1.375   .     S
C390   N442    1.354   .     A
C390   H429    1.081   .     S
C390   C239    1.409   1_655 S
C391   N441    1.385   .     A
C391   Cl415   1.747   .     S
C392   C403    1.397   .     A
C392   C1085   1.417   .     S
C392   C1091   1.422   .     S
C393   N441    1.367   .     A
C393   H434    1.081   .     S
C394   N442    1.368   .     A
C394   H435    1.081   .     S
C394   C241    1.419   1_655 S
C395   O452    1.280   .     A
C395   O451    1.286   .     A
C396   O454    1.296   .     A
C396   O453    1.295   .     A
C396   C398    1.457   .     S
C397   C412    1.403   .     A
C397   C1092   1.429   1_554 S
C397   Cl1100  1.772   1_554 S
C398   C412    1.404   .     A
C398   C411    1.391   .     A
C399   H436    1.079   .     S
C399   C400    1.400   .     A
C400   C1085   1.408   .     S
C400   N1129   1.431   .     S
C401   H437    1.076   .     S
C401   C1084   1.408   1_554 S
C401   C1076   1.417   1_554 S
C402   H440    1.111   .     S
C402   N443    1.447   .     S
C402   H420    1.110   .     S
C402   H419    1.111   .     S
C403   C410    1.409   .     A
C404   N444    1.446   .     S
C404   H424    1.109   .     S
C404   H423    1.107   .     S
C404   H270    1.108   1_655 S
C405   H427    1.111   .     S
C405   H428    1.110   .     S
C405   N445    1.449   .     S
C406   N446    1.449   .     S
C406   H432    1.112   .     S
C406   H433    1.110   .     S
C406   H431    1.109   .     S
C407   C411    1.390   .     A
C407   C1076   1.422   1_554 S
C407   C1092   1.432   1_554 S
C408   C409    1.412   .     A
C408   C1081   1.429   .     S
C408   C1091   1.432   .     S
C409   N444    1.417   .     S
C409   C410    1.399   .     A
C410   N446    1.430   .     S
C411   Cl417   1.772   .     S
C412   N443    1.427   .     S
Cl416  C1081   1.772   .     S
H421   N444    1.025   .     S
H425   N1129   1.032   .     S
H426   C253    1.111   1_655 S
H430   N446    1.027   .     S
H439   N443    1.030   .     S
N441   Zn455   2.020   .     S
N442   Zn456   2.020   .     S
N445   C1084   1.431   1_554 S
N445   H1109   1.032   1_554 S
O447   Zn455   1.972   .     S
O448   Zn456   1.992   .     S
O449   Zn455   1.995   .     S
O450   Zn456   1.985   .     S
O451   Zn455   1.992   .     S
O452   Zn456   1.972   .     S
O453   Zn455   1.985   .     S
O454   Zn456   1.995   .     S
C457   O524    1.286   .     A
C457   C465    1.407   .     S
C457   O523    1.281   .     A
C458   C460    1.479   .     S
C458   C479    1.418   .     A
C458   C475    1.398   .     A
C459   C465    1.390   .     A
C459   H514    1.079   .     S
C459   C5      1.372   1_565 S
C460   O526    1.291   .     A
C460   O525    1.310   .     A
C461   C462    1.401   .     A
C461   Cl489   1.766   .     S
C462   C471    1.406   .     S
C462   C463    1.394   .     A
C463   H494    1.084   .     S
C464   C465    1.401   .     A
C464   Cl490   1.765   .     S
C464   C7      1.375   1_565 S
C466   N518    1.354   .     A
C466   H505    1.081   .     S
C466   C543    1.409   .     S
C467   N517    1.385   .     A
C467   Cl491   1.747   .     S
C467   C618    1.409   1_455 S
C468   C479    1.397   .     A
C468   C1161   1.417   .     S
C468   C1167   1.422   .     S
C469   N517    1.367   .     A
C469   H510    1.081   .     S
C469   C622    1.419   1_455 S
C470   N518    1.368   .     A
C470   H511    1.081   .     S
C470   C545    1.419   .     S
C471   O528    1.280   .     A
C471   O527    1.286   .     A
C472   O530    1.296   .     A
C472   O529    1.295   .     A
C472   C474    1.457   .     S
C473   C488    1.403   .     A
C473   C1168   1.429   1_554 S
C473   Cl1176  1.772   1_554 S
C474   C488    1.404   .     A
C474   C487    1.391   .     A
C475   H512    1.079   .     S
C475   C476    1.400   .     A
C476   C1161   1.408   .     S
C476   N1205   1.431   .     S
C477   H513    1.076   .     S
C477   C1160   1.408   1_554 S
C477   C1152   1.417   1_554 S
C478   H516    1.111   .     S
C478   N519    1.447   .     S
C478   H496    1.110   .     S
C478   H495    1.111   .     S
C479   C486    1.409   .     A
C480   N520    1.446   .     S
C480   H500    1.109   .     S
C480   H499    1.107   .     S
C480   H574    1.108   .     S
C481   H503    1.111   .     S
C481   H504    1.110   .     S
C481   N521    1.449   .     S
C481   H654    1.111   1_455 S
C482   N522    1.449   .     S
C482   H508    1.112   .     S
C482   H509    1.110   .     S
C482   H507    1.109   .     S
C483   C487    1.390   .     A
C483   C1152   1.422   1_554 S
C483   C1168   1.432   1_554 S
C484   C485    1.412   .     A
C484   C1157   1.429   .     S
C484   C1167   1.432   .     S
C485   N520    1.417   .     S
C485   C486    1.399   .     A
C486   N522    1.430   .     S
C487   Cl493   1.772   .     S
C488   N519    1.427   .     S
Cl492  C1157   1.772   .     S
H497   N520    1.025   .     S
H498   C632    1.108   1_455 S
H501   N1205   1.032   .     S
H502   C557    1.111   .     S
H506   N522    1.027   .     S
H515   N519    1.030   .     S
N517   Zn531   2.020   .     S
N518   Zn532   2.020   .     S
N521   C1160   1.431   1_554 S
N521   H1185   1.032   1_554 S
O523   Zn531   1.972   .     S
O524   Zn532   1.992   .     S
O525   Zn531   1.995   .     S
O526   Zn532   1.985   .     S
O527   Zn531   1.992   .     S
O528   Zn532   1.972   .     S
O529   Zn531   1.985   .     S
O530   Zn532   1.995   .     S
C533   O600    1.286   .     A
C533   C541    1.407   .     S
C533   O599    1.281   .     A
C534   C536    1.479   .     S
C534   C555    1.418   .     A
C534   C551    1.398   .     A
C535   C541    1.390   .     A
C535   H590    1.079   .     S
C535   C81     1.372   1_565 S
C536   O602    1.291   .     A
C536   O601    1.310   .     A
C537   C538    1.401   .     A
C537   Cl565   1.766   .     S
C538   C547    1.406   .     S
C538   C539    1.394   .     A
C539   H570    1.084   .     S
C540   C541    1.401   .     A
C540   Cl566   1.765   .     S
C540   C83     1.375   1_565 S
C542   N594    1.354   .     A
C542   H581    1.081   .     S
C542   C619    1.409   .     S
C543   N593    1.385   .     A
C543   Cl567   1.747   .     S
C544   C555    1.397   .     A
C544   C1237   1.417   .     S
C544   C1243   1.422   .     S
C545   N593    1.367   .     A
C545   H586    1.081   .     S
C546   N594    1.368   .     A
C546   H587    1.081   .     S
C546   C621    1.419   .     S
C547   O604    1.280   .     A
C547   O603    1.286   .     A
C548   O606    1.296   .     A
C548   O605    1.295   .     A
C548   C550    1.457   .     S
C549   C564    1.403   .     A
C549   C1244   1.429   1_554 S
C549   Cl1252  1.772   1_554 S
C550   C564    1.404   .     A
C550   C563    1.391   .     A
C551   H588    1.079   .     S
C551   C552    1.400   .     A
C552   C1237   1.408   .     S
C552   N1281   1.431   .     S
C553   H589    1.076   .     S
C553   C1236   1.408   1_554 S
C553   C1228   1.417   1_554 S
C554   H592    1.111   .     S
C554   N595    1.447   .     S
C554   H572    1.110   .     S
C554   H571    1.111   .     S
C555   C562    1.409   .     A
C556   N596    1.446   .     S
C556   H576    1.109   .     S
C556   H575    1.107   .     S
C556   H650    1.108   .     S
C557   H579    1.111   .     S
C557   H580    1.110   .     S
C557   N597    1.449   .     S
C558   N598    1.449   .     S
C558   H584    1.112   .     S
C558   H585    1.110   .     S
C558   H583    1.109   .     S
C559   C563    1.390   .     A
C559   C1228   1.422   1_554 S
C559   C1244   1.432   1_554 S
C560   C561    1.412   .     A
C560   C1233   1.429   .     S
C560   C1243   1.432   .     S
C561   N596    1.417   .     S
C561   C562    1.399   .     A
C562   N598    1.430   .     S
C563   Cl569   1.772   .     S
C564   N595    1.427   .     S
Cl568  C1233   1.772   .     S
H573   N596    1.025   .     S
H577   N1281   1.032   .     S
H578   C633    1.111   .     S
H582   N598    1.027   .     S
H591   N595    1.030   .     S
N593   Zn607   2.020   .     S
N594   Zn608   2.020   .     S
N597   C1236   1.431   1_554 S
N597   H1261   1.032   1_554 S
O599   Zn607   1.972   .     S
O600   Zn608   1.992   .     S
O601   Zn607   1.995   .     S
O602   Zn608   1.985   .     S
O603   Zn607   1.992   .     S
O604   Zn608   1.972   .     S
O605   Zn607   1.985   .     S
O606   Zn608   1.995   .     S
C609   O676    1.286   .     A
C609   C617    1.407   .     S
C609   O675    1.281   .     A
C610   C612    1.479   .     S
C610   C631    1.418   .     A
C610   C627    1.398   .     A
C611   C617    1.390   .     A
C611   H666    1.079   .     S
C611   C157    1.372   1_565 S
C612   O678    1.291   .     A
C612   O677    1.310   .     A
C613   C614    1.401   .     A
C613   Cl641   1.766   .     S
C614   C623    1.406   .     S
C614   C615    1.394   .     A
C615   H646    1.084   .     S
C616   C617    1.401   .     A
C616   Cl642   1.765   .     S
C616   C159    1.375   1_565 S
C618   N670    1.354   .     A
C618   H657    1.081   .     S
C618   C467    1.409   1_655 S
C619   N669    1.385   .     A
C619   Cl643   1.747   .     S
C620   C631    1.397   .     A
C620   C1313   1.417   .     S
C620   C1319   1.422   .     S
C621   N669    1.367   .     A
C621   H662    1.081   .     S
C622   N670    1.368   .     A
C622   H663    1.081   .     S
C622   C469    1.419   1_655 S
C623   O680    1.280   .     A
C623   O679    1.286   .     A
C624   O682    1.296   .     A
C624   O681    1.295   .     A
C624   C626    1.457   .     S
C625   C640    1.403   .     A
C625   C1320   1.429   1_554 S
C625   Cl1328  1.772   1_554 S
C626   C640    1.404   .     A
C626   C639    1.391   .     A
C627   H664    1.079   .     S
C627   C628    1.400   .     A
C628   C1313   1.408   .     S
C628   N1357   1.431   .     S
C629   H665    1.076   .     S
C629   C1312   1.408   1_554 S
C629   C1304   1.417   1_554 S
C630   H668    1.111   .     S
C630   N671    1.447   .     S
C630   H648    1.110   .     S
C630   H647    1.111   .     S
C631   C638    1.409   .     A
C632   N672    1.446   .     S
C632   H652    1.109   .     S
C632   H651    1.107   .     S
C632   H498    1.108   1_655 S
C633   H655    1.111   .     S
C633   H656    1.110   .     S
C633   N673    1.449   .     S
C634   N674    1.449   .     S
C634   H660    1.112   .     S
C634   H661    1.110   .     S
C634   H659    1.109   .     S
C635   C639    1.390   .     A
C635   C1304   1.422   1_554 S
C635   C1320   1.432   1_554 S
C636   C637    1.412   .     A
C636   C1309   1.429   .     S
C636   C1319   1.432   .     S
C637   N672    1.417   .     S
C637   C638    1.399   .     A
C638   N674    1.430   .     S
C639   Cl645   1.772   .     S
C640   N671    1.427   .     S
Cl644  C1309   1.772   .     S
H649   N672    1.025   .     S
H653   N1357   1.032   .     S
H654   C481    1.111   1_655 S
H658   N674    1.027   .     S
H667   N671    1.030   .     S
N669   Zn683   2.020   .     S
N670   Zn684   2.020   .     S
N673   C1312   1.431   1_554 S
N673   H1337   1.032   1_554 S
O675   Zn683   1.972   .     S
O676   Zn684   1.992   .     S
O677   Zn683   1.995   .     S
O678   Zn684   1.985   .     S
O679   Zn683   1.992   .     S
O680   Zn684   1.972   .     S
O681   Zn683   1.985   .     S
O682   Zn684   1.995   .     S
C685   O752    1.286   .     A
C685   C693    1.407   .     S
C685   O751    1.281   .     A
C686   C688    1.479   .     S
C686   C707    1.418   .     A
C686   C703    1.398   .     A
C687   C693    1.390   .     A
C687   H742    1.079   .     S
C687   C917    1.372   .     S
C688   O754    1.291   .     A
C688   O753    1.310   .     A
C689   C690    1.401   .     A
C689   Cl717   1.766   .     S
C689   C1143   1.372   1_545 S
C690   C699    1.406   .     S
C690   C691    1.394   .     A
C691   H722    1.084   .     S
C691   C1148   1.375   1_545 S
C692   C693    1.401   .     A
C692   Cl718   1.765   .     S
C692   C919    1.375   .     S
C694   N746    1.354   .     A
C694   H733    1.081   .     S
C694   C771    1.409   .     S
C695   N745    1.385   .     A
C695   Cl719   1.747   .     S
C695   C846    1.409   1_455 S
C696   C707    1.397   .     A
C696   C21     1.417   1_556 S
C696   C27     1.422   1_556 S
C697   N745    1.367   .     A
C697   H738    1.081   .     S
C697   C850    1.419   1_455 S
C698   N746    1.368   .     A
C698   H739    1.081   .     S
C698   C773    1.419   .     S
C699   O756    1.280   .     A
C699   O755    1.286   .     A
C700   O758    1.296   .     A
C700   O757    1.295   .     A
C700   C702    1.457   .     S
C701   C716    1.403   .     A
C702   C716    1.404   .     A
C702   C715    1.391   .     A
C703   H740    1.079   .     S
C703   C704    1.400   .     A
C704   C21     1.408   1_556 S
C704   N65     1.431   1_556 S
C705   H741    1.076   .     S
C706   H744    1.111   .     S
C706   N747    1.447   .     S
C706   H724    1.110   .     S
C706   H723    1.111   .     S
C707   C714    1.409   .     A
C708   N748    1.446   .     S
C708   H728    1.109   .     S
C708   H727    1.107   .     S
C708   H802    1.108   .     S
C709   H731    1.111   .     S
C709   H732    1.110   .     S
C709   N749    1.449   .     S
C709   H882    1.111   1_455 S
C710   N750    1.449   .     S
C710   H736    1.112   .     S
C710   H737    1.110   .     S
C710   H735    1.109   .     S
C711   C715    1.390   .     A
C712   C713    1.412   .     A
C712   C17     1.429   1_556 S
C712   C27     1.432   1_556 S
C713   N748    1.417   .     S
C713   C714    1.399   .     A
C714   N750    1.430   .     S
C715   Cl721   1.772   .     S
C716   N747    1.427   .     S
Cl720  C17     1.772   1_556 S
H725   N748    1.025   .     S
H726   C860    1.108   1_455 S
H729   N65     1.032   1_556 S
H730   C785    1.111   .     S
H734   N750    1.027   .     S
H743   N747    1.030   .     S
N745   Zn759   2.020   .     S
N746   Zn760   2.020   .     S
O751   Zn759   1.972   .     S
O752   Zn760   1.992   .     S
O753   Zn759   1.995   .     S
O754   Zn760   1.985   .     S
O755   Zn759   1.992   .     S
O756   Zn760   1.972   .     S
O757   Zn759   1.985   .     S
O758   Zn760   1.995   .     S
C761   O828    1.286   .     A
C761   C769    1.407   .     S
C761   O827    1.281   .     A
C762   C764    1.479   .     S
C762   C783    1.418   .     A
C762   C779    1.398   .     A
C763   C769    1.390   .     A
C763   H818    1.079   .     S
C763   C993    1.372   .     S
C764   O830    1.291   .     A
C764   O829    1.310   .     A
C765   C766    1.401   .     A
C765   Cl793   1.766   .     S
C765   C1219   1.372   1_545 S
C766   C775    1.406   .     S
C766   C767    1.394   .     A
C767   H798    1.084   .     S
C767   C1224   1.375   1_545 S
C768   C769    1.401   .     A
C768   Cl794   1.765   .     S
C768   C995    1.375   .     S
C770   N822    1.354   .     A
C770   H809    1.081   .     S
C770   C847    1.409   .     S
C771   N821    1.385   .     A
C771   Cl795   1.747   .     S
C772   C783    1.397   .     A
C772   C97     1.417   1_556 S
C772   C103    1.422   1_556 S
C773   N821    1.367   .     A
C773   H814    1.081   .     S
C774   N822    1.368   .     A
C774   H815    1.081   .     S
C774   C849    1.419   .     S
C775   O832    1.280   .     A
C775   O831    1.286   .     A
C776   O834    1.296   .     A
C776   O833    1.295   .     A
C776   C778    1.457   .     S
C777   C792    1.403   .     A
C778   C792    1.404   .     A
C778   C791    1.391   .     A
C779   H816    1.079   .     S
C779   C780    1.400   .     A
C780   C97     1.408   1_556 S
C780   N141    1.431   1_556 S
C781   H817    1.076   .     S
C782   H820    1.111   .     S
C782   N823    1.447   .     S
C782   H800    1.110   .     S
C782   H799    1.111   .     S
C783   C790    1.409   .     A
C784   N824    1.446   .     S
C784   H804    1.109   .     S
C784   H803    1.107   .     S
C784   H878    1.108   .     S
C785   H807    1.111   .     S
C785   H808    1.110   .     S
C785   N825    1.449   .     S
C786   N826    1.449   .     S
C786   H812    1.112   .     S
C786   H813    1.110   .     S
C786   H811    1.109   .     S
C787   C791    1.390   .     A
C788   C789    1.412   .     A
C788   C93     1.429   1_556 S
C788   C103    1.432   1_556 S
C789   N824    1.417   .     S
C789   C790    1.399   .     A
C790   N826    1.430   .     S
C791   Cl797   1.772   .     S
C792   N823    1.427   .     S
Cl796  C93     1.772   1_556 S
H801   N824    1.025   .     S
H805   N141    1.032   1_556 S
H806   C861    1.111   .     S
H810   N826    1.027   .     S
H819   N823    1.030   .     S
N821   Zn835   2.020   .     S
N822   Zn836   2.020   .     S
O827   Zn835   1.972   .     S
O828   Zn836   1.992   .     S
O829   Zn835   1.995   .     S
O830   Zn836   1.985   .     S
O831   Zn835   1.992   .     S
O832   Zn836   1.972   .     S
O833   Zn835   1.985   .     S
O834   Zn836   1.995   .     S
C837   O904    1.286   .     A
C837   C845    1.407   .     S
C837   O903    1.281   .     A
C838   C840    1.479   .     S
C838   C859    1.418   .     A
C838   C855    1.398   .     A
C839   C845    1.390   .     A
C839   H894    1.079   .     S
C839   C1069   1.372   .     S
C840   O906    1.291   .     A
C840   O905    1.310   .     A
C841   C842    1.401   .     A
C841   Cl869   1.766   .     S
C841   C1295   1.372   1_545 S
C842   C851    1.406   .     S
C842   C843    1.394   .     A
C843   H874    1.084   .     S
C843   C1300   1.375   1_545 S
C844   C845    1.401   .     A
C844   Cl870   1.765   .     S
C844   C1071   1.375   .     S
C846   N898    1.354   .     A
C846   H885    1.081   .     S
C846   C695    1.409   1_655 S
C847   N897    1.385   .     A
C847   Cl871   1.747   .     S
C848   C859    1.397   .     A
C848   C173    1.417   1_556 S
C848   C179    1.422   1_556 S
C849   N897    1.367   .     A
C849   H890    1.081   .     S
C850   N898    1.368   .     A
C850   H891    1.081   .     S
C850   C697    1.419   1_655 S
C851   O908    1.280   .     A
C851   O907    1.286   .     A
C852   O910    1.296   .     A
C852   O909    1.295   .     A
C852   C854    1.457   .     S
C853   C868    1.403   .     A
C854   C868    1.404   .     A
C854   C867    1.391   .     A
C855   H892    1.079   .     S
C855   C856    1.400   .     A
C856   C173    1.408   1_556 S
C856   N217    1.431   1_556 S
C857   H893    1.076   .     S
C858   H896    1.111   .     S
C858   N899    1.447   .     S
C858   H876    1.110   .     S
C858   H875    1.111   .     S
C859   C866    1.409   .     A
C860   N900    1.446   .     S
C860   H880    1.109   .     S
C860   H879    1.107   .     S
C860   H726    1.108   1_655 S
C861   H883    1.111   .     S
C861   H884    1.110   .     S
C861   N901    1.449   .     S
C862   N902    1.449   .     S
C862   H888    1.112   .     S
C862   H889    1.110   .     S
C862   H887    1.109   .     S
C863   C867    1.390   .     A
C864   C865    1.412   .     A
C864   C169    1.429   1_556 S
C864   C179    1.432   1_556 S
C865   N900    1.417   .     S
C865   C866    1.399   .     A
C866   N902    1.430   .     S
C867   Cl873   1.772   .     S
C868   N899    1.427   .     S
Cl872  C169    1.772   1_556 S
H877   N900    1.025   .     S
H881   N217    1.032   1_556 S
H882   C709    1.111   1_655 S
H886   N902    1.027   .     S
H895   N899    1.030   .     S
N897   Zn911   2.020   .     S
N898   Zn912   2.020   .     S
O903   Zn911   1.972   .     S
O904   Zn912   1.992   .     S
O905   Zn911   1.995   .     S
O906   Zn912   1.985   .     S
O907   Zn911   1.992   .     S
O908   Zn912   1.972   .     S
O909   Zn911   1.985   .     S
O910   Zn912   1.995   .     S
C913   O980    1.286   .     A
C913   C921    1.407   .     S
C913   O979    1.281   .     A
C914   C916    1.479   .     S
C914   C935    1.418   .     A
C914   C931    1.398   .     A
C915   C921    1.390   .     A
C915   H970    1.079   .     S
C915   C1145   1.372   .     S
C916   O982    1.291   .     A
C916   O981    1.310   .     A
C917   C918    1.401   .     A
C917   Cl945   1.766   .     S
C918   C927    1.406   .     S
C918   C919    1.394   .     A
C919   H950    1.084   .     S
C920   C921    1.401   .     A
C920   Cl946   1.765   .     S
C920   C1147   1.375   .     S
C922   N974    1.354   .     A
C922   H961    1.081   .     S
C922   C999    1.409   .     S
C923   N973    1.385   .     A
C923   Cl947   1.747   .     S
C923   C1074   1.409   1_455 S
C924   C935    1.397   .     A
C924   C249    1.417   1_556 S
C924   C255    1.422   1_556 S
C925   N973    1.367   .     A
C925   H966    1.081   .     S
C925   C1078   1.419   1_455 S
C926   N974    1.368   .     A
C926   H967    1.081   .     S
C926   C1001   1.419   .     S
C927   O984    1.280   .     A
C927   O983    1.286   .     A
C928   O986    1.296   .     A
C928   O985    1.295   .     A
C928   C930    1.457   .     S
C929   C944    1.403   .     A
C930   C944    1.404   .     A
C930   C943    1.391   .     A
C931   H968    1.079   .     S
C931   C932    1.400   .     A
C932   C249    1.408   1_556 S
C932   N293    1.431   1_556 S
C933   H969    1.076   .     S
C934   H972    1.111   .     S
C934   N975    1.447   .     S
C934   H952    1.110   .     S
C934   H951    1.111   .     S
C935   C942    1.409   .     A
C936   N976    1.446   .     S
C936   H956    1.109   .     S
C936   H955    1.107   .     S
C936   H1030   1.108   .     S
C937   H959    1.111   .     S
C937   H960    1.110   .     S
C937   N977    1.449   .     S
C937   H1110   1.111   1_455 S
C938   N978    1.449   .     S
C938   H964    1.112   .     S
C938   H965    1.110   .     S
C938   H963    1.109   .     S
C939   C943    1.390   .     A
C940   C941    1.412   .     A
C940   C245    1.429   1_556 S
C940   C255    1.432   1_556 S
C941   N976    1.417   .     S
C941   C942    1.399   .     A
C942   N978    1.430   .     S
C943   Cl949   1.772   .     S
C944   N975    1.427   .     S
Cl948  C245    1.772   1_556 S
H953   N976    1.025   .     S
H954   C1088   1.108   1_455 S
H957   N293    1.032   1_556 S
H958   C1013   1.111   .     S
H962   N978    1.027   .     S
H971   N975    1.030   .     S
N973   Zn987   2.020   .     S
N974   Zn988   2.020   .     S
O979   Zn987   1.972   .     S
O980   Zn988   1.992   .     S
O981   Zn987   1.995   .     S
O982   Zn988   1.985   .     S
O983   Zn987   1.992   .     S
O984   Zn988   1.972   .     S
O985   Zn987   1.985   .     S
O986   Zn988   1.995   .     S
C989   O1056   1.286   .     A
C989   C997    1.407   .     S
C989   O1055   1.281   .     A
C990   C992    1.479   .     S
C990   C1011   1.418   .     A
C990   C1007   1.398   .     A
C991   C997    1.390   .     A
C991   H1046   1.079   .     S
C991   C1221   1.372   .     S
C992   O1058   1.291   .     A
C992   O1057   1.310   .     A
C993   C994    1.401   .     A
C993   Cl1021  1.766   .     S
C994   C1003   1.406   .     S
C994   C995    1.394   .     A
C995   H1026   1.084   .     S
C996   C997    1.401   .     A
C996   Cl1022  1.765   .     S
C996   C1223   1.375   .     S
C998   N1050   1.354   .     A
C998   H1037   1.081   .     S
C998   C1075   1.409   .     S
C999   N1049   1.385   .     A
C999   Cl1023  1.747   .     S
C1000  C1011   1.397   .     A
C1000  C325    1.417   1_556 S
C1000  C331    1.422   1_556 S
C1001  N1049   1.367   .     A
C1001  H1042   1.081   .     S
C1002  N1050   1.368   .     A
C1002  H1043   1.081   .     S
C1002  C1077   1.419   .     S
C1003  O1060   1.280   .     A
C1003  O1059   1.286   .     A
C1004  O1062   1.296   .     A
C1004  O1061   1.295   .     A
C1004  C1006   1.457   .     S
C1005  C1020   1.403   .     A
C1006  C1020   1.404   .     A
C1006  C1019   1.391   .     A
C1007  H1044   1.079   .     S
C1007  C1008   1.400   .     A
C1008  C325    1.408   1_556 S
C1008  N369    1.431   1_556 S
C1009  H1045   1.076   .     S
C1010  H1048   1.111   .     S
C1010  N1051   1.447   .     S
C1010  H1028   1.110   .     S
C1010  H1027   1.111   .     S
C1011  C1018   1.409   .     A
C1012  N1052   1.446   .     S
C1012  H1032   1.109   .     S
C1012  H1031   1.107   .     S
C1012  H1106   1.108   .     S
C1013  H1035   1.111   .     S
C1013  H1036   1.110   .     S
C1013  N1053   1.449   .     S
C1014  N1054   1.449   .     S
C1014  H1040   1.112   .     S
C1014  H1041   1.110   .     S
C1014  H1039   1.109   .     S
C1015  C1019   1.390   .     A
C1016  C1017   1.412   .     A
C1016  C321    1.429   1_556 S
C1016  C331    1.432   1_556 S
C1017  N1052   1.417   .     S
C1017  C1018   1.399   .     A
C1018  N1054   1.430   .     S
C1019  Cl1025  1.772   .     S
C1020  N1051   1.427   .     S
Cl1024 C321    1.772   1_556 S
H1029  N1052   1.025   .     S
H1033  N369    1.032   1_556 S
H1034  C1089   1.111   .     S
H1038  N1054   1.027   .     S
H1047  N1051   1.030   .     S
N1049  Zn1063  2.020   .     S
N1050  Zn1064  2.020   .     S
O1055  Zn1063  1.972   .     S
O1056  Zn1064  1.992   .     S
O1057  Zn1063  1.995   .     S
O1058  Zn1064  1.985   .     S
O1059  Zn1063  1.992   .     S
O1060  Zn1064  1.972   .     S
O1061  Zn1063  1.985   .     S
O1062  Zn1064  1.995   .     S
C1065  O1132   1.286   .     A
C1065  C1073   1.407   .     S
C1065  O1131   1.281   .     A
C1066  C1068   1.479   .     S
C1066  C1087   1.418   .     A
C1066  C1083   1.398   .     A
C1067  C1073   1.390   .     A
C1067  H1122   1.079   .     S
C1067  C1297   1.372   .     S
C1068  O1134   1.291   .     A
C1068  O1133   1.310   .     A
C1069  C1070   1.401   .     A
C1069  Cl1097  1.766   .     S
C1070  C1079   1.406   .     S
C1070  C1071   1.394   .     A
C1071  H1102   1.084   .     S
C1072  C1073   1.401   .     A
C1072  Cl1098  1.765   .     S
C1072  C1299   1.375   .     S
C1074  N1126   1.354   .     A
C1074  H1113   1.081   .     S
C1074  C923    1.409   1_655 S
C1075  N1125   1.385   .     A
C1075  Cl1099  1.747   .     S
C1076  C1087   1.397   .     A
C1076  C401    1.417   1_556 S
C1076  C407    1.422   1_556 S
C1077  N1125   1.367   .     A
C1077  H1118   1.081   .     S
C1078  N1126   1.368   .     A
C1078  H1119   1.081   .     S
C1078  C925    1.419   1_655 S
C1079  O1136   1.280   .     A
C1079  O1135   1.286   .     A
C1080  O1138   1.296   .     A
C1080  O1137   1.295   .     A
C1080  C1082   1.457   .     S
C1081  C1096   1.403   .     A
C1082  C1096   1.404   .     A
C1082  C1095   1.391   .     A
C1083  H1120   1.079   .     S
C1083  C1084   1.400   .     A
C1084  C401    1.408   1_556 S
C1084  N445    1.431   1_556 S
C1085  H1121   1.076   .     S
C1086  H1124   1.111   .     S
C1086  N1127   1.447   .     S
C1086  H1104   1.110   .     S
C1086  H1103   1.111   .     S
C1087  C1094   1.409   .     A
C1088  N1128   1.446   .     S
C1088  H1108   1.109   .     S
C1088  H1107   1.107   .     S
C1088  H954    1.108   1_655 S
C1089  H1111   1.111   .     S
C1089  H1112   1.110   .     S
C1089  N1129   1.449   .     S
C1090  N1130   1.449   .     S
C1090  H1116   1.112   .     S
C1090  H1117   1.110   .     S
C1090  H1115   1.109   .     S
C1091  C1095   1.390   .     A
C1092  C1093   1.412   .     A
C1092  C397    1.429   1_556 S
C1092  C407    1.432   1_556 S
C1093  N1128   1.417   .     S
C1093  C1094   1.399   .     A
C1094  N1130   1.430   .     S
C1095  Cl1101  1.772   .     S
C1096  N1127   1.427   .     S
Cl1100 C397    1.772   1_556 S
H1105  N1128   1.025   .     S
H1109  N445    1.032   1_556 S
H1110  C937    1.111   1_655 S
H1114  N1130   1.027   .     S
H1123  N1127   1.030   .     S
N1125  Zn1139  2.020   .     S
N1126  Zn1140  2.020   .     S
O1131  Zn1139  1.972   .     S
O1132  Zn1140  1.992   .     S
O1133  Zn1139  1.995   .     S
O1134  Zn1140  1.985   .     S
O1135  Zn1139  1.992   .     S
O1136  Zn1140  1.972   .     S
O1137  Zn1139  1.985   .     S
O1138  Zn1140  1.995   .     S
C1141  O1208   1.286   .     A
C1141  C1149   1.407   .     S
C1141  O1207   1.281   .     A
C1142  C1144   1.479   .     S
C1142  C1163   1.418   .     A
C1142  C1159   1.398   .     A
C1143  C1149   1.390   .     A
C1143  H1198   1.079   .     S
C1143  C689    1.372   1_565 S
C1144  O1210   1.291   .     A
C1144  O1209   1.310   .     A
C1145  C1146   1.401   .     A
C1145  Cl1173  1.766   .     S
C1146  C1155   1.406   .     S
C1146  C1147   1.394   .     A
C1147  H1178   1.084   .     S
C1148  C1149   1.401   .     A
C1148  Cl1174  1.765   .     S
C1148  C691    1.375   1_565 S
C1150  N1202   1.354   .     A
C1150  H1189   1.081   .     S
C1150  C1227   1.409   .     S
C1151  N1201   1.385   .     A
C1151  Cl1175  1.747   .     S
C1151  C1302   1.409   1_455 S
C1152  C1163   1.397   .     A
C1152  C477    1.417   1_556 S
C1152  C483    1.422   1_556 S
C1153  N1201   1.367   .     A
C1153  H1194   1.081   .     S
C1153  C1306   1.419   1_455 S
C1154  N1202   1.368   .     A
C1154  H1195   1.081   .     S
C1154  C1229   1.419   .     S
C1155  O1212   1.280   .     A
C1155  O1211   1.286   .     A
C1156  O1214   1.296   .     A
C1156  O1213   1.295   .     A
C1156  C1158   1.457   .     S
C1157  C1172   1.403   .     A
C1158  C1172   1.404   .     A
C1158  C1171   1.391   .     A
C1159  H1196   1.079   .     S
C1159  C1160   1.400   .     A
C1160  C477    1.408   1_556 S
C1160  N521    1.431   1_556 S
C1161  H1197   1.076   .     S
C1162  H1200   1.111   .     S
C1162  N1203   1.447   .     S
C1162  H1180   1.110   .     S
C1162  H1179   1.111   .     S
C1163  C1170   1.409   .     A
C1164  N1204   1.446   .     S
C1164  H1184   1.109   .     S
C1164  H1183   1.107   .     S
C1164  H1258   1.108   .     S
C1165  H1187   1.111   .     S
C1165  H1188   1.110   .     S
C1165  N1205   1.449   .     S
C1165  H1338   1.111   1_455 S
C1166  N1206   1.449   .     S
C1166  H1192   1.112   .     S
C1166  H1193   1.110   .     S
C1166  H1191   1.109   .     S
C1167  C1171   1.390   .     A
C1168  C1169   1.412   .     A
C1168  C473    1.429   1_556 S
C1168  C483    1.432   1_556 S
C1169  N1204   1.417   .     S
C1169  C1170   1.399   .     A
C1170  N1206   1.430   .     S
C1171  Cl1177  1.772   .     S
C1172  N1203   1.427   .     S
Cl1176 C473    1.772   1_556 S
H1181  N1204   1.025   .     S
H1182  C1316   1.108   1_455 S
H1185  N521    1.032   1_556 S
H1186  C1241   1.111   .     S
H1190  N1206   1.027   .     S
H1199  N1203   1.030   .     S
N1201  Zn1215  2.020   .     S
N1202  Zn1216  2.020   .     S
O1207  Zn1215  1.972   .     S
O1208  Zn1216  1.992   .     S
O1209  Zn1215  1.995   .     S
O1210  Zn1216  1.985   .     S
O1211  Zn1215  1.992   .     S
O1212  Zn1216  1.972   .     S
O1213  Zn1215  1.985   .     S
O1214  Zn1216  1.995   .     S
C1217  O1284   1.286   .     A
C1217  C1225   1.407   .     S
C1217  O1283   1.281   .     A
C1218  C1220   1.479   .     S
C1218  C1239   1.418   .     A
C1218  C1235   1.398   .     A
C1219  C1225   1.390   .     A
C1219  H1274   1.079   .     S
C1219  C765    1.372   1_565 S
C1220  O1286   1.291   .     A
C1220  O1285   1.310   .     A
C1221  C1222   1.401   .     A
C1221  Cl1249  1.766   .     S
C1222  C1231   1.406   .     S
C1222  C1223   1.394   .     A
C1223  H1254   1.084   .     S
C1224  C1225   1.401   .     A
C1224  Cl1250  1.765   .     S
C1224  C767    1.375   1_565 S
C1226  N1278   1.354   .     A
C1226  H1265   1.081   .     S
C1226  C1303   1.409   .     S
C1227  N1277   1.385   .     A
C1227  Cl1251  1.747   .     S
C1228  C1239   1.397   .     A
C1228  C553    1.417   1_556 S
C1228  C559    1.422   1_556 S
C1229  N1277   1.367   .     A
C1229  H1270   1.081   .     S
C1230  N1278   1.368   .     A
C1230  H1271   1.081   .     S
C1230  C1305   1.419   .     S
C1231  O1288   1.280   .     A
C1231  O1287   1.286   .     A
C1232  O1290   1.296   .     A
C1232  O1289   1.295   .     A
C1232  C1234   1.457   .     S
C1233  C1248   1.403   .     A
C1234  C1248   1.404   .     A
C1234  C1247   1.391   .     A
C1235  H1272   1.079   .     S
C1235  C1236   1.400   .     A
C1236  C553    1.408   1_556 S
C1236  N597    1.431   1_556 S
C1237  H1273   1.076   .     S
C1238  H1276   1.111   .     S
C1238  N1279   1.447   .     S
C1238  H1256   1.110   .     S
C1238  H1255   1.111   .     S
C1239  C1246   1.409   .     A
C1240  N1280   1.446   .     S
C1240  H1260   1.109   .     S
C1240  H1259   1.107   .     S
C1240  H1334   1.108   .     S
C1241  H1263   1.111   .     S
C1241  H1264   1.110   .     S
C1241  N1281   1.449   .     S
C1242  N1282   1.449   .     S
C1242  H1268   1.112   .     S
C1242  H1269   1.110   .     S
C1242  H1267   1.109   .     S
C1243  C1247   1.390   .     A
C1244  C1245   1.412   .     A
C1244  C549    1.429   1_556 S
C1244  C559    1.432   1_556 S
C1245  N1280   1.417   .     S
C1245  C1246   1.399   .     A
C1246  N1282   1.430   .     S
C1247  Cl1253  1.772   .     S
C1248  N1279   1.427   .     S
Cl1252 C549    1.772   1_556 S
H1257  N1280   1.025   .     S
H1261  N597    1.032   1_556 S
H1262  C1317   1.111   .     S
H1266  N1282   1.027   .     S
H1275  N1279   1.030   .     S
N1277  Zn1291  2.020   .     S
N1278  Zn1292  2.020   .     S
O1283  Zn1291  1.972   .     S
O1284  Zn1292  1.992   .     S
O1285  Zn1291  1.995   .     S
O1286  Zn1292  1.985   .     S
O1287  Zn1291  1.992   .     S
O1288  Zn1292  1.972   .     S
O1289  Zn1291  1.985   .     S
O1290  Zn1292  1.995   .     S
C1293  O1360   1.286   .     A
C1293  C1301   1.407   .     S
C1293  O1359   1.281   .     A
C1294  C1296   1.479   .     S
C1294  C1315   1.418   .     A
C1294  C1311   1.398   .     A
C1295  C1301   1.390   .     A
C1295  H1350   1.079   .     S
C1295  C841    1.372   1_565 S
C1296  O1362   1.291   .     A
C1296  O1361   1.310   .     A
C1297  C1298   1.401   .     A
C1297  Cl1325  1.766   .     S
C1298  C1307   1.406   .     S
C1298  C1299   1.394   .     A
C1299  H1330   1.084   .     S
C1300  C1301   1.401   .     A
C1300  Cl1326  1.765   .     S
C1300  C843    1.375   1_565 S
C1302  N1354   1.354   .     A
C1302  H1341   1.081   .     S
C1302  C1151   1.409   1_655 S
C1303  N1353   1.385   .     A
C1303  Cl1327  1.747   .     S
C1304  C1315   1.397   .     A
C1304  C629    1.417   1_556 S
C1304  C635    1.422   1_556 S
C1305  N1353   1.367   .     A
C1305  H1346   1.081   .     S
C1306  N1354   1.368   .     A
C1306  H1347   1.081   .     S
C1306  C1153   1.419   1_655 S
C1307  O1364   1.280   .     A
C1307  O1363   1.286   .     A
C1308  O1366   1.296   .     A
C1308  O1365   1.295   .     A
C1308  C1310   1.457   .     S
C1309  C1324   1.403   .     A
C1310  C1324   1.404   .     A
C1310  C1323   1.391   .     A
C1311  H1348   1.079   .     S
C1311  C1312   1.400   .     A
C1312  C629    1.408   1_556 S
C1312  N673    1.431   1_556 S
C1313  H1349   1.076   .     S
C1314  H1352   1.111   .     S
C1314  N1355   1.447   .     S
C1314  H1332   1.110   .     S
C1314  H1331   1.111   .     S
C1315  C1322   1.409   .     A
C1316  N1356   1.446   .     S
C1316  H1336   1.109   .     S
C1316  H1335   1.107   .     S
C1316  H1182   1.108   1_655 S
C1317  H1339   1.111   .     S
C1317  H1340   1.110   .     S
C1317  N1357   1.449   .     S
C1318  N1358   1.449   .     S
C1318  H1344   1.112   .     S
C1318  H1345   1.110   .     S
C1318  H1343   1.109   .     S
C1319  C1323   1.390   .     A
C1320  C1321   1.412   .     A
C1320  C625    1.429   1_556 S
C1320  C635    1.432   1_556 S
C1321  N1356   1.417   .     S
C1321  C1322   1.399   .     A
C1322  N1358   1.430   .     S
C1323  Cl1329  1.772   .     S
C1324  N1355   1.427   .     S
Cl1328 C625    1.772   1_556 S
H1333  N1356   1.025   .     S
H1337  N673    1.032   1_556 S
H1338  C1165   1.111   1_655 S
H1342  N1358   1.027   .     S
H1351  N1355   1.030   .     S
N1353  Zn1367  2.020   .     S
N1354  Zn1368  2.020   .     S
O1359  Zn1367  1.972   .     S
O1360  Zn1368  1.992   .     S
O1361  Zn1367  1.995   .     S
O1362  Zn1368  1.985   .     S
O1363  Zn1367  1.992   .     S
O1364  Zn1368  1.972   .     S
O1365  Zn1367  1.985   .     S
O1366  Zn1368  1.995   .     S
