data_str_m2_o1_o2_pcu_sym.50
_audit_creation_date              2020-01-03
_audit_creation_method            'Materials Studio'
_symmetry_space_group_name_H-M    'P1'
_symmetry_Int_Tables_number       1
_symmetry_cell_setting            triclinic
loop_
_symmetry_equiv_pos_as_xyz
  x,y,z
_cell_length_a                    32.6510
_cell_length_b                    28.7425
_cell_length_c                    30.2649
_cell_angle_alpha                 89.9982
_cell_angle_beta                  92.3900
_cell_angle_gamma                 90.0039
loop_
_atom_site_label
_atom_site_type_symbol
_atom_site_fract_x
_atom_site_fract_y
_atom_site_fract_z
_atom_site_U_iso_or_equiv
_atom_site_adp_type
_atom_site_occupancy
C1     C     0.08746   0.16680   0.25109   0.00000  Uiso   1.00
C2     C     0.31211   0.20984   0.24972   0.00000  Uiso   1.00
C3     C     0.31227   0.12545   0.24699   0.00000  Uiso   1.00
C4     C     0.02124   0.20984   0.25045   0.00000  Uiso   1.00
C5     C     0.18832   0.20070   0.04800   0.00000  Uiso   1.00
C6     C     0.18624   0.12971   0.45330   0.00000  Uiso   1.00
C7     C     0.14505   0.20073   0.45201   0.00000  Uiso   1.00
C8     C     0.14701   0.12975   0.04670   0.00000  Uiso   1.00
C9     C     0.18924   0.20006   0.09413   0.00000  Uiso   1.00
C10    C     0.18586   0.13015   0.40724   0.00000  Uiso   1.00
C11    C     0.14413   0.20009   0.40587   0.00000  Uiso   1.00
C12    C     0.24588   0.16680   0.24892   0.00000  Uiso   1.00
C13    C     0.14740   0.13020   0.09276   0.00000  Uiso   1.00
C14    C     0.16775   0.16581   0.11668   0.00000  Uiso   1.00
C15    C     0.16557   0.16580   0.38333   0.00000  Uiso   1.00
C16    C     0.16706   0.16545   0.02419   0.00000  Uiso   1.00
C17    C     0.16625   0.16544   0.47581   0.00000  Uiso   1.00
C18    C     0.29052   0.16742   0.24803   0.00000  Uiso   1.00
C19    C     0.04281   0.16741   0.25200   0.00000  Uiso   1.00
C20    C     0.07525   0.03334   0.19055   0.00000  Uiso   1.00
C21    C     0.19125   0.29551   0.35600   0.00000  Uiso   1.00
C22    C     0.25811   0.03338   0.30934   0.00000  Uiso   1.00
C23    C     0.16708   0.16654   0.16502   0.00000  Uiso   1.00
C24    C     0.14220   0.29551   0.14399   0.00000  Uiso   1.00
C25    C     0.24642   0.22722   0.01733   0.00000  Uiso   1.00
C26    C     0.24526   0.10136   0.48578   0.00000  Uiso   1.00
C27    C     0.08699   0.22735   0.48266   0.00000  Uiso   1.00
C28    C     0.08794   0.10153   0.01420   0.00000  Uiso   1.00
C29    C     0.16625   0.16654   0.33498   0.00000  Uiso   1.00
C30    C     0.14141   0.02516   0.22093   0.00000  Uiso   1.00
C31    C     0.18898   0.30858   0.28163   0.00000  Uiso   1.00
C32    C     0.19193   0.02516   0.27907   0.00000  Uiso   1.00
C33    C     0.14436   0.30858   0.21837   0.00000  Uiso   1.00
C34    C     0.02105   0.12544   0.25292   0.00000  Uiso   1.00
Cu35   Cu    0.16667   0.21355   0.25000   0.00000  Uiso   1.00
Cu36   Cu    0.16667   0.11978   0.25000   0.00000  Uiso   1.00
F37    F     0.21253   0.23187   0.11677   0.00000  Uiso   1.00
F38    F     0.20596   0.09593   0.38618   0.00000  Uiso   1.00
F39    F     0.12089   0.23195   0.38324   0.00000  Uiso   1.00
F40    F     0.12724   0.09602   0.11383   0.00000  Uiso   1.00
F41    F     0.04013   0.08428   0.26080   0.00000  Uiso   1.00
F42    F     0.29248   0.25151   0.24997   0.00000  Uiso   1.00
F43    F     0.29318   0.08432   0.23899   0.00000  Uiso   1.00
F44    F     0.04088   0.25151   0.25035   0.00000  Uiso   1.00
H45    H     0.05413   0.06294   0.18388   0.00000  Uiso   1.00
H46    H     0.13309   0.26856   0.11930   0.00000  Uiso   1.00
H47    H     0.17627   0.29658   0.14714   0.00000  Uiso   1.00
H48    H     0.13102   0.32921   0.13046   0.00000  Uiso   1.00
H49    H     0.24737   0.20379   0.48825   0.00000  Uiso   1.00
H50    H     0.26378   0.21189   0.04630   0.00000  Uiso   1.00
H51    H     0.26222   0.25990   0.00856   0.00000  Uiso   1.00
H52    H     0.24866   0.12556   0.01427   0.00000  Uiso   1.00
H53    H     0.26148   0.11511   0.45683   0.00000  Uiso   1.00
H54    H     0.26047   0.06827   0.49578   0.00000  Uiso   1.00
H55    H     0.08600   0.20390   0.01173   0.00000  Uiso   1.00
H56    H     0.06653   0.01613   0.22180   0.00000  Uiso   1.00
H57    H     0.06961   0.21207   0.45368   0.00000  Uiso   1.00
H58    H     0.07123   0.26005   0.49145   0.00000  Uiso   1.00
H59    H     0.08460   0.12565   0.48565   0.00000  Uiso   1.00
H60    H     0.07175   0.11542   0.04311   0.00000  Uiso   1.00
H61    H     0.07266   0.06846   0.00430   0.00000  Uiso   1.00
H62    H     0.06999   0.00908   0.16246   0.00000  Uiso   1.00
H63    H     0.20248   0.32919   0.36953   0.00000  Uiso   1.00
H64    H     0.15718   0.29662   0.35291   0.00000  Uiso   1.00
H65    H     0.20036   0.26853   0.38067   0.00000  Uiso   1.00
H66    H     0.27921   0.06301   0.31598   0.00000  Uiso   1.00
H67    H     0.26678   0.01620   0.27807   0.00000  Uiso   1.00
H68    H     0.26343   0.00912   0.33741   0.00000  Uiso   1.00
N69    N     0.16667   0.28402   0.25000   0.00000  Uiso   1.00
N70    N     0.16667   0.04931   0.25000   0.00000  Uiso   1.00
O71    O     0.10655   0.20625   0.24999   0.00000  Uiso   1.00
O72    O     0.20915   0.28444   0.31551   0.00000  Uiso   1.00
O73    O     0.21745   0.05054   0.30790   0.00000  Uiso   1.00
O74    O     0.12423   0.28445   0.18445   0.00000  Uiso   1.00
O75    O     0.20554   0.23797   0.02656   0.00000  Uiso   1.00
O76    O     0.20349   0.09217   0.47586   0.00000  Uiso   1.00
O77    O     0.12788   0.23803   0.47344   0.00000  Uiso   1.00
O78    O     0.12969   0.09225   0.02415   0.00000  Uiso   1.00
O79    O     0.22679   0.12709   0.25000   0.00000  Uiso   1.00
O80    O     0.22679   0.20625   0.25000   0.00000  Uiso   1.00
O81    O     0.10655   0.12709   0.24999   0.00000  Uiso   1.00
O82    O     0.16666   0.20626   0.18573   0.00000  Uiso   1.00
O83    O     0.16667   0.12707   0.31427   0.00000  Uiso   1.00
O84    O     0.16667   0.20626   0.31427   0.00000  Uiso   1.00
O85    O     0.16666   0.12707   0.18573   0.00000  Uiso   1.00
O86    O     0.11591   0.05054   0.19207   0.00000  Uiso   1.00
C87    C     0.42079   0.16680   0.25109   0.00000  Uiso   1.00
C88    C     0.64544   0.20984   0.24972   0.00000  Uiso   1.00
C89    C     0.64560   0.12545   0.24699   0.00000  Uiso   1.00
C90    C     0.35457   0.20984   0.25045   0.00000  Uiso   1.00
C91    C     0.52165   0.20070   0.04800   0.00000  Uiso   1.00
C92    C     0.51958   0.12971   0.45330   0.00000  Uiso   1.00
C93    C     0.47838   0.20073   0.45201   0.00000  Uiso   1.00
C94    C     0.48034   0.12975   0.04670   0.00000  Uiso   1.00
C95    C     0.52258   0.20006   0.09413   0.00000  Uiso   1.00
C96    C     0.51919   0.13015   0.40724   0.00000  Uiso   1.00
C97    C     0.47746   0.20009   0.40587   0.00000  Uiso   1.00
C98    C     0.57921   0.16680   0.24892   0.00000  Uiso   1.00
C99    C     0.48073   0.13020   0.09276   0.00000  Uiso   1.00
C100   C     0.50108   0.16581   0.11668   0.00000  Uiso   1.00
C101   C     0.49890   0.16580   0.38333   0.00000  Uiso   1.00
C102   C     0.50040   0.16545   0.02419   0.00000  Uiso   1.00
C103   C     0.49958   0.16544   0.47581   0.00000  Uiso   1.00
C104   C     0.62385   0.16742   0.24803   0.00000  Uiso   1.00
C105   C     0.37615   0.16741   0.25200   0.00000  Uiso   1.00
C106   C     0.40858   0.03334   0.19055   0.00000  Uiso   1.00
C107   C     0.52458   0.29551   0.35600   0.00000  Uiso   1.00
C108   C     0.59145   0.03338   0.30934   0.00000  Uiso   1.00
C109   C     0.50042   0.16654   0.16502   0.00000  Uiso   1.00
C110   C     0.47553   0.29551   0.14399   0.00000  Uiso   1.00
C111   C     0.57975   0.22722   0.01733   0.00000  Uiso   1.00
C112   C     0.57860   0.10136   0.48578   0.00000  Uiso   1.00
C113   C     0.42032   0.22735   0.48266   0.00000  Uiso   1.00
C114   C     0.42128   0.10153   0.01420   0.00000  Uiso   1.00
C115   C     0.49958   0.16654   0.33498   0.00000  Uiso   1.00
C116   C     0.47474   0.02516   0.22093   0.00000  Uiso   1.00
C117   C     0.52231   0.30858   0.28163   0.00000  Uiso   1.00
C118   C     0.52526   0.02516   0.27907   0.00000  Uiso   1.00
C119   C     0.47769   0.30858   0.21837   0.00000  Uiso   1.00
C120   C     0.35438   0.12544   0.25292   0.00000  Uiso   1.00
Cu121  Cu    0.50000   0.21355   0.25000   0.00000  Uiso   1.00
Cu122  Cu    0.50000   0.11978   0.25000   0.00000  Uiso   1.00
F123   F     0.54587   0.23187   0.11677   0.00000  Uiso   1.00
F124   F     0.53929   0.09593   0.38618   0.00000  Uiso   1.00
F125   F     0.45422   0.23195   0.38324   0.00000  Uiso   1.00
F126   F     0.46057   0.09602   0.11383   0.00000  Uiso   1.00
F127   F     0.37346   0.08428   0.26080   0.00000  Uiso   1.00
F128   F     0.62581   0.25151   0.24997   0.00000  Uiso   1.00
F129   F     0.62651   0.08432   0.23899   0.00000  Uiso   1.00
F130   F     0.37422   0.25151   0.25035   0.00000  Uiso   1.00
H131   H     0.38747   0.06294   0.18388   0.00000  Uiso   1.00
H132   H     0.46642   0.26856   0.11930   0.00000  Uiso   1.00
H133   H     0.50960   0.29658   0.14714   0.00000  Uiso   1.00
H134   H     0.46436   0.32921   0.13046   0.00000  Uiso   1.00
H135   H     0.58070   0.20379   0.48825   0.00000  Uiso   1.00
H136   H     0.59711   0.21189   0.04630   0.00000  Uiso   1.00
H137   H     0.59555   0.25990   0.00856   0.00000  Uiso   1.00
H138   H     0.58200   0.12556   0.01427   0.00000  Uiso   1.00
H139   H     0.59481   0.11511   0.45683   0.00000  Uiso   1.00
H140   H     0.59380   0.06827   0.49578   0.00000  Uiso   1.00
H141   H     0.41933   0.20390   0.01173   0.00000  Uiso   1.00
H142   H     0.39987   0.01613   0.22180   0.00000  Uiso   1.00
H143   H     0.40294   0.21207   0.45368   0.00000  Uiso   1.00
H144   H     0.40457   0.26005   0.49145   0.00000  Uiso   1.00
H145   H     0.41793   0.12565   0.48565   0.00000  Uiso   1.00
H146   H     0.40509   0.11542   0.04311   0.00000  Uiso   1.00
H147   H     0.40600   0.06846   0.00430   0.00000  Uiso   1.00
H148   H     0.40333   0.00908   0.16246   0.00000  Uiso   1.00
H149   H     0.53581   0.32919   0.36953   0.00000  Uiso   1.00
H150   H     0.49051   0.29662   0.35291   0.00000  Uiso   1.00
H151   H     0.53369   0.26853   0.38067   0.00000  Uiso   1.00
H152   H     0.61254   0.06301   0.31598   0.00000  Uiso   1.00
H153   H     0.60012   0.01620   0.27807   0.00000  Uiso   1.00
H154   H     0.59676   0.00912   0.33741   0.00000  Uiso   1.00
N155   N     0.50000   0.28402   0.25000   0.00000  Uiso   1.00
N156   N     0.50000   0.04931   0.25000   0.00000  Uiso   1.00
O157   O     0.43988   0.20625   0.24999   0.00000  Uiso   1.00
O158   O     0.54249   0.28444   0.31551   0.00000  Uiso   1.00
O159   O     0.55078   0.05054   0.30790   0.00000  Uiso   1.00
O160   O     0.45756   0.28445   0.18445   0.00000  Uiso   1.00
O161   O     0.53888   0.23797   0.02656   0.00000  Uiso   1.00
O162   O     0.53683   0.09217   0.47586   0.00000  Uiso   1.00
O163   O     0.46121   0.23803   0.47344   0.00000  Uiso   1.00
O164   O     0.46303   0.09225   0.02415   0.00000  Uiso   1.00
O165   O     0.56012   0.12709   0.25000   0.00000  Uiso   1.00
O166   O     0.56012   0.20625   0.25000   0.00000  Uiso   1.00
O167   O     0.43988   0.12709   0.24999   0.00000  Uiso   1.00
O168   O     0.50000   0.20626   0.18573   0.00000  Uiso   1.00
O169   O     0.50000   0.12707   0.31427   0.00000  Uiso   1.00
O170   O     0.50000   0.20626   0.31427   0.00000  Uiso   1.00
O171   O     0.50000   0.12707   0.18573   0.00000  Uiso   1.00
O172   O     0.44924   0.05054   0.19207   0.00000  Uiso   1.00
C173   C     0.75412   0.16680   0.25109   0.00000  Uiso   1.00
C174   C     0.97877   0.20984   0.24972   0.00000  Uiso   1.00
C175   C     0.97894   0.12545   0.24699   0.00000  Uiso   1.00
C176   C     0.68791   0.20984   0.25045   0.00000  Uiso   1.00
C177   C     0.85499   0.20070   0.04800   0.00000  Uiso   1.00
C178   C     0.85291   0.12971   0.45330   0.00000  Uiso   1.00
C179   C     0.81171   0.20073   0.45201   0.00000  Uiso   1.00
C180   C     0.81368   0.12975   0.04670   0.00000  Uiso   1.00
C181   C     0.85591   0.20006   0.09413   0.00000  Uiso   1.00
C182   C     0.85252   0.13015   0.40724   0.00000  Uiso   1.00
C183   C     0.81080   0.20009   0.40587   0.00000  Uiso   1.00
C184   C     0.91254   0.16680   0.24892   0.00000  Uiso   1.00
C185   C     0.81407   0.13020   0.09276   0.00000  Uiso   1.00
C186   C     0.83442   0.16581   0.11668   0.00000  Uiso   1.00
C187   C     0.83224   0.16580   0.38333   0.00000  Uiso   1.00
C188   C     0.83373   0.16545   0.02419   0.00000  Uiso   1.00
C189   C     0.83292   0.16544   0.47581   0.00000  Uiso   1.00
C190   C     0.95719   0.16742   0.24803   0.00000  Uiso   1.00
C191   C     0.70948   0.16741   0.25200   0.00000  Uiso   1.00
C192   C     0.74191   0.03334   0.19055   0.00000  Uiso   1.00
C193   C     0.85791   0.29551   0.35600   0.00000  Uiso   1.00
C194   C     0.92478   0.03338   0.30934   0.00000  Uiso   1.00
C195   C     0.83375   0.16654   0.16502   0.00000  Uiso   1.00
C196   C     0.80887   0.29551   0.14399   0.00000  Uiso   1.00
C197   C     0.91308   0.22722   0.01733   0.00000  Uiso   1.00
C198   C     0.91193   0.10136   0.48578   0.00000  Uiso   1.00
C199   C     0.75365   0.22735   0.48266   0.00000  Uiso   1.00
C200   C     0.75461   0.10153   0.01420   0.00000  Uiso   1.00
C201   C     0.83291   0.16654   0.33498   0.00000  Uiso   1.00
C202   C     0.80807   0.02516   0.22093   0.00000  Uiso   1.00
C203   C     0.85565   0.30858   0.28163   0.00000  Uiso   1.00
C204   C     0.85860   0.02516   0.27907   0.00000  Uiso   1.00
C205   C     0.81103   0.30858   0.21837   0.00000  Uiso   1.00
C206   C     0.68772   0.12544   0.25292   0.00000  Uiso   1.00
Cu207  Cu    0.83333   0.21355   0.25000   0.00000  Uiso   1.00
Cu208  Cu    0.83333   0.11978   0.25000   0.00000  Uiso   1.00
F209   F     0.87920   0.23187   0.11677   0.00000  Uiso   1.00
F210   F     0.87262   0.09593   0.38618   0.00000  Uiso   1.00
F211   F     0.78756   0.23195   0.38324   0.00000  Uiso   1.00
F212   F     0.79390   0.09602   0.11383   0.00000  Uiso   1.00
F213   F     0.70680   0.08428   0.26080   0.00000  Uiso   1.00
F214   F     0.95914   0.25151   0.24997   0.00000  Uiso   1.00
F215   F     0.95984   0.08432   0.23899   0.00000  Uiso   1.00
F216   F     0.70755   0.25151   0.25035   0.00000  Uiso   1.00
H217   H     0.72080   0.06294   0.18388   0.00000  Uiso   1.00
H218   H     0.79976   0.26856   0.11930   0.00000  Uiso   1.00
H219   H     0.84293   0.29658   0.14714   0.00000  Uiso   1.00
H220   H     0.79769   0.32921   0.13046   0.00000  Uiso   1.00
H221   H     0.91403   0.20379   0.48825   0.00000  Uiso   1.00
H222   H     0.93044   0.21189   0.04630   0.00000  Uiso   1.00
H223   H     0.92889   0.25990   0.00856   0.00000  Uiso   1.00
H224   H     0.91533   0.12556   0.01427   0.00000  Uiso   1.00
H225   H     0.92814   0.11511   0.45683   0.00000  Uiso   1.00
H226   H     0.92714   0.06827   0.49578   0.00000  Uiso   1.00
H227   H     0.75267   0.20390   0.01173   0.00000  Uiso   1.00
H228   H     0.73320   0.01613   0.22180   0.00000  Uiso   1.00
H229   H     0.73627   0.21207   0.45368   0.00000  Uiso   1.00
H230   H     0.73790   0.26005   0.49145   0.00000  Uiso   1.00
H231   H     0.75127   0.12565   0.48565   0.00000  Uiso   1.00
H232   H     0.73842   0.11542   0.04311   0.00000  Uiso   1.00
H233   H     0.73933   0.06846   0.00430   0.00000  Uiso   1.00
H234   H     0.73666   0.00908   0.16246   0.00000  Uiso   1.00
H235   H     0.86915   0.32919   0.36953   0.00000  Uiso   1.00
H236   H     0.82385   0.29662   0.35291   0.00000  Uiso   1.00
H237   H     0.86702   0.26853   0.38067   0.00000  Uiso   1.00
H238   H     0.94588   0.06301   0.31598   0.00000  Uiso   1.00
H239   H     0.93345   0.01620   0.27807   0.00000  Uiso   1.00
H240   H     0.93009   0.00912   0.33741   0.00000  Uiso   1.00
N241   N     0.83333   0.28402   0.25000   0.00000  Uiso   1.00
N242   N     0.83333   0.04931   0.25000   0.00000  Uiso   1.00
O243   O     0.77321   0.20625   0.24999   0.00000  Uiso   1.00
O244   O     0.87582   0.28444   0.31551   0.00000  Uiso   1.00
O245   O     0.88412   0.05054   0.30790   0.00000  Uiso   1.00
O246   O     0.79089   0.28445   0.18445   0.00000  Uiso   1.00
O247   O     0.87221   0.23797   0.02656   0.00000  Uiso   1.00
O248   O     0.87016   0.09217   0.47586   0.00000  Uiso   1.00
O249   O     0.79454   0.23803   0.47344   0.00000  Uiso   1.00
O250   O     0.79636   0.09225   0.02415   0.00000  Uiso   1.00
O251   O     0.89345   0.12709   0.25000   0.00000  Uiso   1.00
O252   O     0.89345   0.20625   0.25000   0.00000  Uiso   1.00
O253   O     0.77321   0.12709   0.24999   0.00000  Uiso   1.00
O254   O     0.83333   0.20626   0.18573   0.00000  Uiso   1.00
O255   O     0.83334   0.12707   0.31427   0.00000  Uiso   1.00
O256   O     0.83334   0.20626   0.31427   0.00000  Uiso   1.00
O257   O     0.83333   0.12707   0.18573   0.00000  Uiso   1.00
O258   O     0.78258   0.05054   0.19207   0.00000  Uiso   1.00
C259   C     0.08746   0.50014   0.25109   0.00000  Uiso   1.00
C260   C     0.31211   0.54317   0.24972   0.00000  Uiso   1.00
C261   C     0.31227   0.45879   0.24699   0.00000  Uiso   1.00
C262   C     0.02124   0.54317   0.25045   0.00000  Uiso   1.00
C263   C     0.18832   0.53403   0.04800   0.00000  Uiso   1.00
C264   C     0.18624   0.46304   0.45330   0.00000  Uiso   1.00
C265   C     0.14505   0.53406   0.45201   0.00000  Uiso   1.00
C266   C     0.14701   0.46309   0.04670   0.00000  Uiso   1.00
C267   C     0.18924   0.53339   0.09413   0.00000  Uiso   1.00
C268   C     0.18586   0.46349   0.40724   0.00000  Uiso   1.00
C269   C     0.14413   0.53342   0.40587   0.00000  Uiso   1.00
C270   C     0.24588   0.50014   0.24892   0.00000  Uiso   1.00
C271   C     0.14740   0.46354   0.09276   0.00000  Uiso   1.00
C272   C     0.16775   0.49914   0.11668   0.00000  Uiso   1.00
C273   C     0.16557   0.49913   0.38333   0.00000  Uiso   1.00
C274   C     0.16706   0.49878   0.02419   0.00000  Uiso   1.00
C275   C     0.16625   0.49878   0.47581   0.00000  Uiso   1.00
C276   C     0.29052   0.50075   0.24803   0.00000  Uiso   1.00
C277   C     0.04281   0.50074   0.25200   0.00000  Uiso   1.00
C278   C     0.07525   0.36667   0.19055   0.00000  Uiso   1.00
C279   C     0.19125   0.62884   0.35600   0.00000  Uiso   1.00
C280   C     0.25811   0.36672   0.30934   0.00000  Uiso   1.00
C281   C     0.16708   0.49987   0.16502   0.00000  Uiso   1.00
C282   C     0.14220   0.62885   0.14399   0.00000  Uiso   1.00
C283   C     0.24642   0.56055   0.01733   0.00000  Uiso   1.00
C284   C     0.24526   0.43470   0.48578   0.00000  Uiso   1.00
C285   C     0.08699   0.56069   0.48266   0.00000  Uiso   1.00
C286   C     0.08794   0.43487   0.01420   0.00000  Uiso   1.00
C287   C     0.16625   0.49987   0.33498   0.00000  Uiso   1.00
C288   C     0.14141   0.35849   0.22093   0.00000  Uiso   1.00
C289   C     0.18898   0.64191   0.28163   0.00000  Uiso   1.00
C290   C     0.19193   0.35849   0.27907   0.00000  Uiso   1.00
C291   C     0.14436   0.64191   0.21837   0.00000  Uiso   1.00
C292   C     0.02105   0.45878   0.25292   0.00000  Uiso   1.00
Cu293  Cu    0.16667   0.54689   0.25000   0.00000  Uiso   1.00
Cu294  Cu    0.16667   0.45311   0.25000   0.00000  Uiso   1.00
F295   F     0.21253   0.56521   0.11677   0.00000  Uiso   1.00
F296   F     0.20596   0.42926   0.38618   0.00000  Uiso   1.00
F297   F     0.12089   0.56528   0.38324   0.00000  Uiso   1.00
F298   F     0.12724   0.42936   0.11383   0.00000  Uiso   1.00
F299   F     0.04013   0.41762   0.26080   0.00000  Uiso   1.00
F300   F     0.29248   0.58485   0.24997   0.00000  Uiso   1.00
F301   F     0.29318   0.41766   0.23899   0.00000  Uiso   1.00
F302   F     0.04088   0.58485   0.25035   0.00000  Uiso   1.00
H303   H     0.05413   0.39627   0.18388   0.00000  Uiso   1.00
H304   H     0.13309   0.60190   0.11930   0.00000  Uiso   1.00
H305   H     0.17627   0.62991   0.14714   0.00000  Uiso   1.00
H306   H     0.13102   0.66255   0.13046   0.00000  Uiso   1.00
H307   H     0.24737   0.53712   0.48825   0.00000  Uiso   1.00
H308   H     0.26378   0.54523   0.04630   0.00000  Uiso   1.00
H309   H     0.26222   0.59323   0.00856   0.00000  Uiso   1.00
H310   H     0.24866   0.45890   0.01427   0.00000  Uiso   1.00
H311   H     0.26148   0.44844   0.45683   0.00000  Uiso   1.00
H312   H     0.26047   0.40160   0.49578   0.00000  Uiso   1.00
H313   H     0.08600   0.53724   0.01173   0.00000  Uiso   1.00
H314   H     0.06653   0.34946   0.22180   0.00000  Uiso   1.00
H315   H     0.06961   0.54540   0.45368   0.00000  Uiso   1.00
H316   H     0.07123   0.59339   0.49145   0.00000  Uiso   1.00
H317   H     0.08460   0.45898   0.48565   0.00000  Uiso   1.00
H318   H     0.07175   0.44876   0.04311   0.00000  Uiso   1.00
H319   H     0.07266   0.40179   0.00430   0.00000  Uiso   1.00
H320   H     0.06999   0.34241   0.16246   0.00000  Uiso   1.00
H321   H     0.20248   0.66253   0.36953   0.00000  Uiso   1.00
H322   H     0.15718   0.62995   0.35291   0.00000  Uiso   1.00
H323   H     0.20036   0.60187   0.38067   0.00000  Uiso   1.00
H324   H     0.27921   0.39634   0.31598   0.00000  Uiso   1.00
H325   H     0.26678   0.34953   0.27807   0.00000  Uiso   1.00
H326   H     0.26343   0.34245   0.33741   0.00000  Uiso   1.00
N327   N     0.16667   0.61736   0.25000   0.00000  Uiso   1.00
N328   N     0.16667   0.38264   0.25000   0.00000  Uiso   1.00
O329   O     0.10655   0.53958   0.24999   0.00000  Uiso   1.00
O330   O     0.20915   0.61778   0.31551   0.00000  Uiso   1.00
O331   O     0.21745   0.38387   0.30790   0.00000  Uiso   1.00
O332   O     0.12423   0.61778   0.18445   0.00000  Uiso   1.00
O333   O     0.20554   0.57130   0.02656   0.00000  Uiso   1.00
O334   O     0.20349   0.42550   0.47586   0.00000  Uiso   1.00
O335   O     0.12788   0.57137   0.47344   0.00000  Uiso   1.00
O336   O     0.12969   0.42558   0.02415   0.00000  Uiso   1.00
O337   O     0.22679   0.46042   0.25000   0.00000  Uiso   1.00
O338   O     0.22679   0.53958   0.25000   0.00000  Uiso   1.00
O339   O     0.10655   0.46042   0.24999   0.00000  Uiso   1.00
O340   O     0.16666   0.53959   0.18573   0.00000  Uiso   1.00
O341   O     0.16667   0.46041   0.31427   0.00000  Uiso   1.00
O342   O     0.16667   0.53959   0.31427   0.00000  Uiso   1.00
O343   O     0.16666   0.46041   0.18573   0.00000  Uiso   1.00
O344   O     0.11591   0.38387   0.19207   0.00000  Uiso   1.00
C345   C     0.42079   0.50014   0.25109   0.00000  Uiso   1.00
C346   C     0.64544   0.54317   0.24972   0.00000  Uiso   1.00
C347   C     0.64560   0.45879   0.24699   0.00000  Uiso   1.00
C348   C     0.35457   0.54317   0.25045   0.00000  Uiso   1.00
C349   C     0.52165   0.53403   0.04800   0.00000  Uiso   1.00
C350   C     0.51958   0.46304   0.45330   0.00000  Uiso   1.00
C351   C     0.47838   0.53406   0.45201   0.00000  Uiso   1.00
C352   C     0.48034   0.46309   0.04670   0.00000  Uiso   1.00
C353   C     0.52258   0.53339   0.09413   0.00000  Uiso   1.00
C354   C     0.51919   0.46349   0.40724   0.00000  Uiso   1.00
C355   C     0.47746   0.53342   0.40587   0.00000  Uiso   1.00
C356   C     0.57921   0.50014   0.24892   0.00000  Uiso   1.00
C357   C     0.48073   0.46354   0.09276   0.00000  Uiso   1.00
C358   C     0.50108   0.49914   0.11668   0.00000  Uiso   1.00
C359   C     0.49890   0.49913   0.38333   0.00000  Uiso   1.00
C360   C     0.50040   0.49878   0.02419   0.00000  Uiso   1.00
C361   C     0.49958   0.49878   0.47581   0.00000  Uiso   1.00
C362   C     0.62385   0.50075   0.24803   0.00000  Uiso   1.00
C363   C     0.37615   0.50074   0.25200   0.00000  Uiso   1.00
C364   C     0.40858   0.36667   0.19055   0.00000  Uiso   1.00
C365   C     0.52458   0.62884   0.35600   0.00000  Uiso   1.00
C366   C     0.59145   0.36672   0.30934   0.00000  Uiso   1.00
C367   C     0.50042   0.49987   0.16502   0.00000  Uiso   1.00
C368   C     0.47553   0.62885   0.14399   0.00000  Uiso   1.00
C369   C     0.57975   0.56055   0.01733   0.00000  Uiso   1.00
C370   C     0.57860   0.43470   0.48578   0.00000  Uiso   1.00
C371   C     0.42032   0.56069   0.48266   0.00000  Uiso   1.00
C372   C     0.42128   0.43487   0.01420   0.00000  Uiso   1.00
C373   C     0.49958   0.49987   0.33498   0.00000  Uiso   1.00
C374   C     0.47474   0.35849   0.22093   0.00000  Uiso   1.00
C375   C     0.52231   0.64191   0.28163   0.00000  Uiso   1.00
C376   C     0.52526   0.35849   0.27907   0.00000  Uiso   1.00
C377   C     0.47769   0.64191   0.21837   0.00000  Uiso   1.00
C378   C     0.35438   0.45878   0.25292   0.00000  Uiso   1.00
Cu379  Cu    0.50000   0.54689   0.25000   0.00000  Uiso   1.00
Cu380  Cu    0.50000   0.45311   0.25000   0.00000  Uiso   1.00
F381   F     0.54587   0.56521   0.11677   0.00000  Uiso   1.00
F382   F     0.53929   0.42926   0.38618   0.00000  Uiso   1.00
F383   F     0.45422   0.56528   0.38324   0.00000  Uiso   1.00
F384   F     0.46057   0.42936   0.11383   0.00000  Uiso   1.00
F385   F     0.37346   0.41762   0.26080   0.00000  Uiso   1.00
F386   F     0.62581   0.58485   0.24997   0.00000  Uiso   1.00
F387   F     0.62651   0.41766   0.23899   0.00000  Uiso   1.00
F388   F     0.37422   0.58485   0.25035   0.00000  Uiso   1.00
H389   H     0.38747   0.39627   0.18388   0.00000  Uiso   1.00
H390   H     0.46642   0.60190   0.11930   0.00000  Uiso   1.00
H391   H     0.50960   0.62991   0.14714   0.00000  Uiso   1.00
H392   H     0.46436   0.66255   0.13046   0.00000  Uiso   1.00
H393   H     0.58070   0.53712   0.48825   0.00000  Uiso   1.00
H394   H     0.59711   0.54523   0.04630   0.00000  Uiso   1.00
H395   H     0.59555   0.59323   0.00856   0.00000  Uiso   1.00
H396   H     0.58200   0.45890   0.01427   0.00000  Uiso   1.00
H397   H     0.59481   0.44844   0.45683   0.00000  Uiso   1.00
H398   H     0.59380   0.40160   0.49578   0.00000  Uiso   1.00
H399   H     0.41933   0.53724   0.01173   0.00000  Uiso   1.00
H400   H     0.39987   0.34946   0.22180   0.00000  Uiso   1.00
H401   H     0.40294   0.54540   0.45368   0.00000  Uiso   1.00
H402   H     0.40457   0.59339   0.49145   0.00000  Uiso   1.00
H403   H     0.41793   0.45898   0.48565   0.00000  Uiso   1.00
H404   H     0.40509   0.44876   0.04311   0.00000  Uiso   1.00
H405   H     0.40600   0.40179   0.00430   0.00000  Uiso   1.00
H406   H     0.40333   0.34241   0.16246   0.00000  Uiso   1.00
H407   H     0.53581   0.66253   0.36953   0.00000  Uiso   1.00
H408   H     0.49051   0.62995   0.35291   0.00000  Uiso   1.00
H409   H     0.53369   0.60187   0.38067   0.00000  Uiso   1.00
H410   H     0.61254   0.39634   0.31598   0.00000  Uiso   1.00
H411   H     0.60012   0.34953   0.27807   0.00000  Uiso   1.00
H412   H     0.59676   0.34245   0.33741   0.00000  Uiso   1.00
N413   N     0.50000   0.61736   0.25000   0.00000  Uiso   1.00
N414   N     0.50000   0.38264   0.25000   0.00000  Uiso   1.00
O415   O     0.43988   0.53958   0.24999   0.00000  Uiso   1.00
O416   O     0.54249   0.61778   0.31551   0.00000  Uiso   1.00
O417   O     0.55078   0.38387   0.30790   0.00000  Uiso   1.00
O418   O     0.45756   0.61778   0.18445   0.00000  Uiso   1.00
O419   O     0.53888   0.57130   0.02656   0.00000  Uiso   1.00
O420   O     0.53683   0.42550   0.47586   0.00000  Uiso   1.00
O421   O     0.46121   0.57137   0.47344   0.00000  Uiso   1.00
O422   O     0.46303   0.42558   0.02415   0.00000  Uiso   1.00
O423   O     0.56012   0.46042   0.25000   0.00000  Uiso   1.00
O424   O     0.56012   0.53958   0.25000   0.00000  Uiso   1.00
O425   O     0.43988   0.46042   0.24999   0.00000  Uiso   1.00
O426   O     0.50000   0.53959   0.18573   0.00000  Uiso   1.00
O427   O     0.50000   0.46041   0.31427   0.00000  Uiso   1.00
O428   O     0.50000   0.53959   0.31427   0.00000  Uiso   1.00
O429   O     0.50000   0.46041   0.18573   0.00000  Uiso   1.00
O430   O     0.44924   0.38387   0.19207   0.00000  Uiso   1.00
C431   C     0.75412   0.50014   0.25109   0.00000  Uiso   1.00
C432   C     0.97877   0.54317   0.24972   0.00000  Uiso   1.00
C433   C     0.97894   0.45879   0.24699   0.00000  Uiso   1.00
C434   C     0.68791   0.54317   0.25045   0.00000  Uiso   1.00
C435   C     0.85499   0.53403   0.04800   0.00000  Uiso   1.00
C436   C     0.85291   0.46304   0.45330   0.00000  Uiso   1.00
C437   C     0.81171   0.53406   0.45201   0.00000  Uiso   1.00
C438   C     0.81368   0.46309   0.04670   0.00000  Uiso   1.00
C439   C     0.85591   0.53339   0.09413   0.00000  Uiso   1.00
C440   C     0.85252   0.46349   0.40724   0.00000  Uiso   1.00
C441   C     0.81080   0.53342   0.40587   0.00000  Uiso   1.00
C442   C     0.91254   0.50014   0.24892   0.00000  Uiso   1.00
C443   C     0.81407   0.46354   0.09276   0.00000  Uiso   1.00
C444   C     0.83442   0.49914   0.11668   0.00000  Uiso   1.00
C445   C     0.83224   0.49913   0.38333   0.00000  Uiso   1.00
C446   C     0.83373   0.49878   0.02419   0.00000  Uiso   1.00
C447   C     0.83292   0.49878   0.47581   0.00000  Uiso   1.00
C448   C     0.95719   0.50075   0.24803   0.00000  Uiso   1.00
C449   C     0.70948   0.50074   0.25200   0.00000  Uiso   1.00
C450   C     0.74191   0.36667   0.19055   0.00000  Uiso   1.00
C451   C     0.85791   0.62884   0.35600   0.00000  Uiso   1.00
C452   C     0.92478   0.36672   0.30934   0.00000  Uiso   1.00
C453   C     0.83375   0.49987   0.16502   0.00000  Uiso   1.00
C454   C     0.80887   0.62885   0.14399   0.00000  Uiso   1.00
C455   C     0.91308   0.56055   0.01733   0.00000  Uiso   1.00
C456   C     0.91193   0.43470   0.48578   0.00000  Uiso   1.00
C457   C     0.75365   0.56069   0.48266   0.00000  Uiso   1.00
C458   C     0.75461   0.43487   0.01420   0.00000  Uiso   1.00
C459   C     0.83291   0.49987   0.33498   0.00000  Uiso   1.00
C460   C     0.80807   0.35849   0.22093   0.00000  Uiso   1.00
C461   C     0.85565   0.64191   0.28163   0.00000  Uiso   1.00
C462   C     0.85860   0.35849   0.27907   0.00000  Uiso   1.00
C463   C     0.81103   0.64191   0.21837   0.00000  Uiso   1.00
C464   C     0.68772   0.45878   0.25292   0.00000  Uiso   1.00
Cu465  Cu    0.83333   0.54689   0.25000   0.00000  Uiso   1.00
Cu466  Cu    0.83333   0.45311   0.25000   0.00000  Uiso   1.00
F467   F     0.87920   0.56521   0.11677   0.00000  Uiso   1.00
F468   F     0.87262   0.42926   0.38618   0.00000  Uiso   1.00
F469   F     0.78756   0.56528   0.38324   0.00000  Uiso   1.00
F470   F     0.79390   0.42936   0.11383   0.00000  Uiso   1.00
F471   F     0.70680   0.41762   0.26080   0.00000  Uiso   1.00
F472   F     0.95914   0.58485   0.24997   0.00000  Uiso   1.00
F473   F     0.95984   0.41766   0.23899   0.00000  Uiso   1.00
F474   F     0.70755   0.58485   0.25035   0.00000  Uiso   1.00
H475   H     0.72080   0.39627   0.18388   0.00000  Uiso   1.00
H476   H     0.79976   0.60190   0.11930   0.00000  Uiso   1.00
H477   H     0.84293   0.62991   0.14714   0.00000  Uiso   1.00
H478   H     0.79769   0.66255   0.13046   0.00000  Uiso   1.00
H479   H     0.91403   0.53712   0.48825   0.00000  Uiso   1.00
H480   H     0.93044   0.54523   0.04630   0.00000  Uiso   1.00
H481   H     0.92889   0.59323   0.00856   0.00000  Uiso   1.00
H482   H     0.91533   0.45890   0.01427   0.00000  Uiso   1.00
H483   H     0.92814   0.44844   0.45683   0.00000  Uiso   1.00
H484   H     0.92714   0.40160   0.49578   0.00000  Uiso   1.00
H485   H     0.75267   0.53724   0.01173   0.00000  Uiso   1.00
H486   H     0.73320   0.34946   0.22180   0.00000  Uiso   1.00
H487   H     0.73627   0.54540   0.45368   0.00000  Uiso   1.00
H488   H     0.73790   0.59339   0.49145   0.00000  Uiso   1.00
H489   H     0.75127   0.45898   0.48565   0.00000  Uiso   1.00
H490   H     0.73842   0.44876   0.04311   0.00000  Uiso   1.00
H491   H     0.73933   0.40179   0.00430   0.00000  Uiso   1.00
H492   H     0.73666   0.34241   0.16246   0.00000  Uiso   1.00
H493   H     0.86915   0.66253   0.36953   0.00000  Uiso   1.00
H494   H     0.82385   0.62995   0.35291   0.00000  Uiso   1.00
H495   H     0.86702   0.60187   0.38067   0.00000  Uiso   1.00
H496   H     0.94588   0.39634   0.31598   0.00000  Uiso   1.00
H497   H     0.93345   0.34953   0.27807   0.00000  Uiso   1.00
H498   H     0.93009   0.34245   0.33741   0.00000  Uiso   1.00
N499   N     0.83333   0.61736   0.25000   0.00000  Uiso   1.00
N500   N     0.83333   0.38264   0.25000   0.00000  Uiso   1.00
O501   O     0.77321   0.53958   0.24999   0.00000  Uiso   1.00
O502   O     0.87582   0.61778   0.31551   0.00000  Uiso   1.00
O503   O     0.88412   0.38387   0.30790   0.00000  Uiso   1.00
O504   O     0.79089   0.61778   0.18445   0.00000  Uiso   1.00
O505   O     0.87221   0.57130   0.02656   0.00000  Uiso   1.00
O506   O     0.87016   0.42550   0.47586   0.00000  Uiso   1.00
O507   O     0.79454   0.57137   0.47344   0.00000  Uiso   1.00
O508   O     0.79636   0.42558   0.02415   0.00000  Uiso   1.00
O509   O     0.89345   0.46042   0.25000   0.00000  Uiso   1.00
O510   O     0.89345   0.53958   0.25000   0.00000  Uiso   1.00
O511   O     0.77321   0.46042   0.24999   0.00000  Uiso   1.00
O512   O     0.83333   0.53959   0.18573   0.00000  Uiso   1.00
O513   O     0.83334   0.46041   0.31427   0.00000  Uiso   1.00
O514   O     0.83334   0.53959   0.31427   0.00000  Uiso   1.00
O515   O     0.83333   0.46041   0.18573   0.00000  Uiso   1.00
O516   O     0.78258   0.38387   0.19207   0.00000  Uiso   1.00
C517   C     0.08746   0.83347   0.25109   0.00000  Uiso   1.00
C518   C     0.31211   0.87651   0.24972   0.00000  Uiso   1.00
C519   C     0.31227   0.79212   0.24699   0.00000  Uiso   1.00
C520   C     0.02124   0.87650   0.25045   0.00000  Uiso   1.00
C521   C     0.18832   0.86736   0.04800   0.00000  Uiso   1.00
C522   C     0.18624   0.79637   0.45330   0.00000  Uiso   1.00
C523   C     0.14505   0.86740   0.45201   0.00000  Uiso   1.00
C524   C     0.14701   0.79642   0.04670   0.00000  Uiso   1.00
C525   C     0.18924   0.86672   0.09413   0.00000  Uiso   1.00
C526   C     0.18586   0.79682   0.40724   0.00000  Uiso   1.00
C527   C     0.14413   0.86676   0.40587   0.00000  Uiso   1.00
C528   C     0.24588   0.83347   0.24892   0.00000  Uiso   1.00
C529   C     0.14740   0.79687   0.09276   0.00000  Uiso   1.00
C530   C     0.16775   0.83247   0.11668   0.00000  Uiso   1.00
C531   C     0.16557   0.83247   0.38333   0.00000  Uiso   1.00
C532   C     0.16706   0.83211   0.02419   0.00000  Uiso   1.00
C533   C     0.16625   0.83211   0.47581   0.00000  Uiso   1.00
C534   C     0.29052   0.83409   0.24803   0.00000  Uiso   1.00
C535   C     0.04281   0.83408   0.25200   0.00000  Uiso   1.00
C536   C     0.07525   0.70000   0.19055   0.00000  Uiso   1.00
C537   C     0.19125   0.96218   0.35600   0.00000  Uiso   1.00
C538   C     0.25811   0.70005   0.30934   0.00000  Uiso   1.00
C539   C     0.16708   0.83321   0.16502   0.00000  Uiso   1.00
C540   C     0.14220   0.96218   0.14399   0.00000  Uiso   1.00
C541   C     0.24642   0.89389   0.01733   0.00000  Uiso   1.00
C542   C     0.24526   0.76803   0.48578   0.00000  Uiso   1.00
C543   C     0.08699   0.89402   0.48266   0.00000  Uiso   1.00
C544   C     0.08794   0.76820   0.01420   0.00000  Uiso   1.00
C545   C     0.16625   0.83320   0.33498   0.00000  Uiso   1.00
C546   C     0.14141   0.69182   0.22093   0.00000  Uiso   1.00
C547   C     0.18898   0.97525   0.28163   0.00000  Uiso   1.00
C548   C     0.19193   0.69182   0.27907   0.00000  Uiso   1.00
C549   C     0.14436   0.97525   0.21837   0.00000  Uiso   1.00
C550   C     0.02105   0.79211   0.25292   0.00000  Uiso   1.00
Cu551  Cu    0.16667   0.88022   0.25000   0.00000  Uiso   1.00
Cu552  Cu    0.16667   0.78645   0.25000   0.00000  Uiso   1.00
F553   F     0.21253   0.89854   0.11677   0.00000  Uiso   1.00
F554   F     0.20596   0.76259   0.38618   0.00000  Uiso   1.00
F555   F     0.12089   0.89861   0.38324   0.00000  Uiso   1.00
F556   F     0.12724   0.76269   0.11383   0.00000  Uiso   1.00
F557   F     0.04013   0.75095   0.26080   0.00000  Uiso   1.00
F558   F     0.29248   0.91818   0.24997   0.00000  Uiso   1.00
F559   F     0.29318   0.75099   0.23899   0.00000  Uiso   1.00
F560   F     0.04088   0.91818   0.25035   0.00000  Uiso   1.00
H561   H     0.05413   0.72961   0.18388   0.00000  Uiso   1.00
H562   H     0.13309   0.93523   0.11930   0.00000  Uiso   1.00
H563   H     0.17627   0.96324   0.14714   0.00000  Uiso   1.00
H564   H     0.13102   0.99588   0.13046   0.00000  Uiso   1.00
H565   H     0.24737   0.87045   0.48825   0.00000  Uiso   1.00
H566   H     0.26378   0.87856   0.04630   0.00000  Uiso   1.00
H567   H     0.26222   0.92657   0.00856   0.00000  Uiso   1.00
H568   H     0.24866   0.79223   0.01427   0.00000  Uiso   1.00
H569   H     0.26148   0.78177   0.45683   0.00000  Uiso   1.00
H570   H     0.26047   0.73494   0.49578   0.00000  Uiso   1.00
H571   H     0.08600   0.87057   0.01173   0.00000  Uiso   1.00
H572   H     0.06653   0.68279   0.22180   0.00000  Uiso   1.00
H573   H     0.06961   0.87874   0.45368   0.00000  Uiso   1.00
H574   H     0.07123   0.92672   0.49145   0.00000  Uiso   1.00
H575   H     0.08460   0.79231   0.48565   0.00000  Uiso   1.00
H576   H     0.07175   0.78209   0.04311   0.00000  Uiso   1.00
H577   H     0.07266   0.73512   0.00430   0.00000  Uiso   1.00
H578   H     0.06999   0.67575   0.16246   0.00000  Uiso   1.00
H579   H     0.20248   0.99586   0.36953   0.00000  Uiso   1.00
H580   H     0.15718   0.96328   0.35291   0.00000  Uiso   1.00
H581   H     0.20036   0.93520   0.38067   0.00000  Uiso   1.00
H582   H     0.27921   0.72967   0.31598   0.00000  Uiso   1.00
H583   H     0.26678   0.68286   0.27807   0.00000  Uiso   1.00
H584   H     0.26343   0.67578   0.33741   0.00000  Uiso   1.00
N585   N     0.16667   0.95069   0.25000   0.00000  Uiso   1.00
N586   N     0.16667   0.71598   0.25000   0.00000  Uiso   1.00
O587   O     0.10655   0.87291   0.24999   0.00000  Uiso   1.00
O588   O     0.20915   0.95111   0.31551   0.00000  Uiso   1.00
O589   O     0.21745   0.71720   0.30790   0.00000  Uiso   1.00
O590   O     0.12423   0.95111   0.18445   0.00000  Uiso   1.00
O591   O     0.20554   0.90464   0.02656   0.00000  Uiso   1.00
O592   O     0.20349   0.75884   0.47586   0.00000  Uiso   1.00
O593   O     0.12788   0.90470   0.47344   0.00000  Uiso   1.00
O594   O     0.12969   0.75891   0.02415   0.00000  Uiso   1.00
O595   O     0.22679   0.79375   0.25000   0.00000  Uiso   1.00
O596   O     0.22679   0.87291   0.25000   0.00000  Uiso   1.00
O597   O     0.10655   0.79375   0.24999   0.00000  Uiso   1.00
O598   O     0.16666   0.87293   0.18573   0.00000  Uiso   1.00
O599   O     0.16667   0.79374   0.31427   0.00000  Uiso   1.00
O600   O     0.16667   0.87293   0.31427   0.00000  Uiso   1.00
O601   O     0.16666   0.79374   0.18573   0.00000  Uiso   1.00
O602   O     0.11591   0.71721   0.19207   0.00000  Uiso   1.00
C603   C     0.42079   0.83347   0.25109   0.00000  Uiso   1.00
C604   C     0.64544   0.87651   0.24972   0.00000  Uiso   1.00
C605   C     0.64560   0.79212   0.24699   0.00000  Uiso   1.00
C606   C     0.35457   0.87650   0.25045   0.00000  Uiso   1.00
C607   C     0.52165   0.86736   0.04800   0.00000  Uiso   1.00
C608   C     0.51958   0.79637   0.45330   0.00000  Uiso   1.00
C609   C     0.47838   0.86740   0.45201   0.00000  Uiso   1.00
C610   C     0.48034   0.79642   0.04670   0.00000  Uiso   1.00
C611   C     0.52258   0.86672   0.09413   0.00000  Uiso   1.00
C612   C     0.51919   0.79682   0.40724   0.00000  Uiso   1.00
C613   C     0.47746   0.86676   0.40587   0.00000  Uiso   1.00
C614   C     0.57921   0.83347   0.24892   0.00000  Uiso   1.00
C615   C     0.48073   0.79687   0.09276   0.00000  Uiso   1.00
C616   C     0.50108   0.83247   0.11668   0.00000  Uiso   1.00
C617   C     0.49890   0.83247   0.38333   0.00000  Uiso   1.00
C618   C     0.50040   0.83211   0.02419   0.00000  Uiso   1.00
C619   C     0.49958   0.83211   0.47581   0.00000  Uiso   1.00
C620   C     0.62385   0.83409   0.24803   0.00000  Uiso   1.00
C621   C     0.37615   0.83408   0.25200   0.00000  Uiso   1.00
C622   C     0.40858   0.70000   0.19055   0.00000  Uiso   1.00
C623   C     0.52458   0.96218   0.35600   0.00000  Uiso   1.00
C624   C     0.59145   0.70005   0.30934   0.00000  Uiso   1.00
C625   C     0.50042   0.83321   0.16502   0.00000  Uiso   1.00
C626   C     0.47553   0.96218   0.14399   0.00000  Uiso   1.00
C627   C     0.57975   0.89389   0.01733   0.00000  Uiso   1.00
C628   C     0.57860   0.76803   0.48578   0.00000  Uiso   1.00
C629   C     0.42032   0.89402   0.48266   0.00000  Uiso   1.00
C630   C     0.42128   0.76820   0.01420   0.00000  Uiso   1.00
C631   C     0.49958   0.83320   0.33498   0.00000  Uiso   1.00
C632   C     0.47474   0.69182   0.22093   0.00000  Uiso   1.00
C633   C     0.52231   0.97525   0.28163   0.00000  Uiso   1.00
C634   C     0.52526   0.69182   0.27907   0.00000  Uiso   1.00
C635   C     0.47769   0.97525   0.21837   0.00000  Uiso   1.00
C636   C     0.35438   0.79211   0.25292   0.00000  Uiso   1.00
Cu637  Cu    0.50000   0.88022   0.25000   0.00000  Uiso   1.00
Cu638  Cu    0.50000   0.78645   0.25000   0.00000  Uiso   1.00
F639   F     0.54587   0.89854   0.11677   0.00000  Uiso   1.00
F640   F     0.53929   0.76259   0.38618   0.00000  Uiso   1.00
F641   F     0.45422   0.89861   0.38324   0.00000  Uiso   1.00
F642   F     0.46057   0.76269   0.11383   0.00000  Uiso   1.00
F643   F     0.37346   0.75095   0.26080   0.00000  Uiso   1.00
F644   F     0.62581   0.91818   0.24997   0.00000  Uiso   1.00
F645   F     0.62651   0.75099   0.23899   0.00000  Uiso   1.00
F646   F     0.37422   0.91818   0.25035   0.00000  Uiso   1.00
H647   H     0.38747   0.72961   0.18388   0.00000  Uiso   1.00
H648   H     0.46642   0.93523   0.11930   0.00000  Uiso   1.00
H649   H     0.50960   0.96324   0.14714   0.00000  Uiso   1.00
H650   H     0.46436   0.99588   0.13046   0.00000  Uiso   1.00
H651   H     0.58070   0.87045   0.48825   0.00000  Uiso   1.00
H652   H     0.59711   0.87856   0.04630   0.00000  Uiso   1.00
H653   H     0.59555   0.92657   0.00856   0.00000  Uiso   1.00
H654   H     0.58200   0.79223   0.01427   0.00000  Uiso   1.00
H655   H     0.59481   0.78177   0.45683   0.00000  Uiso   1.00
H656   H     0.59380   0.73494   0.49578   0.00000  Uiso   1.00
H657   H     0.41933   0.87057   0.01173   0.00000  Uiso   1.00
H658   H     0.39987   0.68279   0.22180   0.00000  Uiso   1.00
H659   H     0.40294   0.87874   0.45368   0.00000  Uiso   1.00
H660   H     0.40457   0.92672   0.49145   0.00000  Uiso   1.00
H661   H     0.41793   0.79231   0.48565   0.00000  Uiso   1.00
H662   H     0.40509   0.78209   0.04311   0.00000  Uiso   1.00
H663   H     0.40600   0.73512   0.00430   0.00000  Uiso   1.00
H664   H     0.40333   0.67575   0.16246   0.00000  Uiso   1.00
H665   H     0.53581   0.99586   0.36953   0.00000  Uiso   1.00
H666   H     0.49051   0.96328   0.35291   0.00000  Uiso   1.00
H667   H     0.53369   0.93520   0.38067   0.00000  Uiso   1.00
H668   H     0.61254   0.72967   0.31598   0.00000  Uiso   1.00
H669   H     0.60012   0.68286   0.27807   0.00000  Uiso   1.00
H670   H     0.59676   0.67578   0.33741   0.00000  Uiso   1.00
N671   N     0.50000   0.95069   0.25000   0.00000  Uiso   1.00
N672   N     0.50000   0.71598   0.25000   0.00000  Uiso   1.00
O673   O     0.43988   0.87291   0.24999   0.00000  Uiso   1.00
O674   O     0.54249   0.95111   0.31551   0.00000  Uiso   1.00
O675   O     0.55078   0.71720   0.30790   0.00000  Uiso   1.00
O676   O     0.45756   0.95111   0.18445   0.00000  Uiso   1.00
O677   O     0.53888   0.90464   0.02656   0.00000  Uiso   1.00
O678   O     0.53683   0.75884   0.47586   0.00000  Uiso   1.00
O679   O     0.46121   0.90470   0.47344   0.00000  Uiso   1.00
O680   O     0.46303   0.75891   0.02415   0.00000  Uiso   1.00
O681   O     0.56012   0.79375   0.25000   0.00000  Uiso   1.00
O682   O     0.56012   0.87291   0.25000   0.00000  Uiso   1.00
O683   O     0.43988   0.79375   0.24999   0.00000  Uiso   1.00
O684   O     0.50000   0.87293   0.18573   0.00000  Uiso   1.00
O685   O     0.50000   0.79374   0.31427   0.00000  Uiso   1.00
O686   O     0.50000   0.87293   0.31427   0.00000  Uiso   1.00
O687   O     0.50000   0.79374   0.18573   0.00000  Uiso   1.00
O688   O     0.44924   0.71721   0.19207   0.00000  Uiso   1.00
C689   C     0.75412   0.83347   0.25109   0.00000  Uiso   1.00
C690   C     0.97877   0.87651   0.24972   0.00000  Uiso   1.00
C691   C     0.97894   0.79212   0.24699   0.00000  Uiso   1.00
C692   C     0.68791   0.87650   0.25045   0.00000  Uiso   1.00
C693   C     0.85499   0.86736   0.04800   0.00000  Uiso   1.00
C694   C     0.85291   0.79637   0.45330   0.00000  Uiso   1.00
C695   C     0.81171   0.86740   0.45201   0.00000  Uiso   1.00
C696   C     0.81368   0.79642   0.04670   0.00000  Uiso   1.00
C697   C     0.85591   0.86672   0.09413   0.00000  Uiso   1.00
C698   C     0.85252   0.79682   0.40724   0.00000  Uiso   1.00
C699   C     0.81080   0.86676   0.40587   0.00000  Uiso   1.00
C700   C     0.91254   0.83347   0.24892   0.00000  Uiso   1.00
C701   C     0.81407   0.79687   0.09276   0.00000  Uiso   1.00
C702   C     0.83442   0.83247   0.11668   0.00000  Uiso   1.00
C703   C     0.83224   0.83247   0.38333   0.00000  Uiso   1.00
C704   C     0.83373   0.83211   0.02419   0.00000  Uiso   1.00
C705   C     0.83292   0.83211   0.47581   0.00000  Uiso   1.00
C706   C     0.95719   0.83409   0.24803   0.00000  Uiso   1.00
C707   C     0.70948   0.83408   0.25200   0.00000  Uiso   1.00
C708   C     0.74191   0.70000   0.19055   0.00000  Uiso   1.00
C709   C     0.85791   0.96218   0.35600   0.00000  Uiso   1.00
C710   C     0.92478   0.70005   0.30934   0.00000  Uiso   1.00
C711   C     0.83375   0.83321   0.16502   0.00000  Uiso   1.00
C712   C     0.80887   0.96218   0.14399   0.00000  Uiso   1.00
C713   C     0.91308   0.89389   0.01733   0.00000  Uiso   1.00
C714   C     0.91193   0.76803   0.48578   0.00000  Uiso   1.00
C715   C     0.75365   0.89402   0.48266   0.00000  Uiso   1.00
C716   C     0.75461   0.76820   0.01420   0.00000  Uiso   1.00
C717   C     0.83291   0.83320   0.33498   0.00000  Uiso   1.00
C718   C     0.80807   0.69182   0.22093   0.00000  Uiso   1.00
C719   C     0.85565   0.97525   0.28163   0.00000  Uiso   1.00
C720   C     0.85860   0.69182   0.27907   0.00000  Uiso   1.00
C721   C     0.81103   0.97525   0.21837   0.00000  Uiso   1.00
C722   C     0.68772   0.79211   0.25292   0.00000  Uiso   1.00
Cu723  Cu    0.83333   0.88022   0.25000   0.00000  Uiso   1.00
Cu724  Cu    0.83333   0.78645   0.25000   0.00000  Uiso   1.00
F725   F     0.87920   0.89854   0.11677   0.00000  Uiso   1.00
F726   F     0.87262   0.76259   0.38618   0.00000  Uiso   1.00
F727   F     0.78756   0.89861   0.38324   0.00000  Uiso   1.00
F728   F     0.79390   0.76269   0.11383   0.00000  Uiso   1.00
F729   F     0.70680   0.75095   0.26080   0.00000  Uiso   1.00
F730   F     0.95914   0.91818   0.24997   0.00000  Uiso   1.00
F731   F     0.95984   0.75099   0.23899   0.00000  Uiso   1.00
F732   F     0.70755   0.91818   0.25035   0.00000  Uiso   1.00
H733   H     0.72080   0.72961   0.18388   0.00000  Uiso   1.00
H734   H     0.79976   0.93523   0.11930   0.00000  Uiso   1.00
H735   H     0.84293   0.96324   0.14714   0.00000  Uiso   1.00
H736   H     0.79769   0.99588   0.13046   0.00000  Uiso   1.00
H737   H     0.91403   0.87045   0.48825   0.00000  Uiso   1.00
H738   H     0.93044   0.87856   0.04630   0.00000  Uiso   1.00
H739   H     0.92889   0.92657   0.00856   0.00000  Uiso   1.00
H740   H     0.91533   0.79223   0.01427   0.00000  Uiso   1.00
H741   H     0.92814   0.78177   0.45683   0.00000  Uiso   1.00
H742   H     0.92714   0.73494   0.49578   0.00000  Uiso   1.00
H743   H     0.75267   0.87057   0.01173   0.00000  Uiso   1.00
H744   H     0.73320   0.68279   0.22180   0.00000  Uiso   1.00
H745   H     0.73627   0.87874   0.45368   0.00000  Uiso   1.00
H746   H     0.73790   0.92672   0.49145   0.00000  Uiso   1.00
H747   H     0.75127   0.79231   0.48565   0.00000  Uiso   1.00
H748   H     0.73842   0.78209   0.04311   0.00000  Uiso   1.00
H749   H     0.73933   0.73512   0.00430   0.00000  Uiso   1.00
H750   H     0.73666   0.67575   0.16246   0.00000  Uiso   1.00
H751   H     0.86915   0.99586   0.36953   0.00000  Uiso   1.00
H752   H     0.82385   0.96328   0.35291   0.00000  Uiso   1.00
H753   H     0.86702   0.93520   0.38067   0.00000  Uiso   1.00
H754   H     0.94588   0.72967   0.31598   0.00000  Uiso   1.00
H755   H     0.93345   0.68286   0.27807   0.00000  Uiso   1.00
H756   H     0.93009   0.67578   0.33741   0.00000  Uiso   1.00
N757   N     0.83333   0.95069   0.25000   0.00000  Uiso   1.00
N758   N     0.83333   0.71598   0.25000   0.00000  Uiso   1.00
O759   O     0.77321   0.87291   0.24999   0.00000  Uiso   1.00
O760   O     0.87582   0.95111   0.31551   0.00000  Uiso   1.00
O761   O     0.88412   0.71720   0.30790   0.00000  Uiso   1.00
O762   O     0.79089   0.95111   0.18445   0.00000  Uiso   1.00
O763   O     0.87221   0.90464   0.02656   0.00000  Uiso   1.00
O764   O     0.87016   0.75884   0.47586   0.00000  Uiso   1.00
O765   O     0.79454   0.90470   0.47344   0.00000  Uiso   1.00
O766   O     0.79636   0.75891   0.02415   0.00000  Uiso   1.00
O767   O     0.89345   0.79375   0.25000   0.00000  Uiso   1.00
O768   O     0.89345   0.87291   0.25000   0.00000  Uiso   1.00
O769   O     0.77321   0.79375   0.24999   0.00000  Uiso   1.00
O770   O     0.83333   0.87293   0.18573   0.00000  Uiso   1.00
O771   O     0.83334   0.79374   0.31427   0.00000  Uiso   1.00
O772   O     0.83334   0.87293   0.31427   0.00000  Uiso   1.00
O773   O     0.83333   0.79374   0.18573   0.00000  Uiso   1.00
O774   O     0.78258   0.71721   0.19207   0.00000  Uiso   1.00
C775   C     0.08746   0.16680   0.75109   0.00000  Uiso   1.00
C776   C     0.31211   0.20984   0.74972   0.00000  Uiso   1.00
C777   C     0.31227   0.12545   0.74699   0.00000  Uiso   1.00
C778   C     0.02124   0.20984   0.75045   0.00000  Uiso   1.00
C779   C     0.18832   0.20070   0.54800   0.00000  Uiso   1.00
C780   C     0.18624   0.12971   0.95330   0.00000  Uiso   1.00
C781   C     0.14505   0.20073   0.95201   0.00000  Uiso   1.00
C782   C     0.14701   0.12975   0.54670   0.00000  Uiso   1.00
C783   C     0.18924   0.20006   0.59413   0.00000  Uiso   1.00
C784   C     0.18586   0.13015   0.90724   0.00000  Uiso   1.00
C785   C     0.14413   0.20009   0.90587   0.00000  Uiso   1.00
C786   C     0.24588   0.16680   0.74892   0.00000  Uiso   1.00
C787   C     0.14740   0.13020   0.59276   0.00000  Uiso   1.00
C788   C     0.16775   0.16581   0.61668   0.00000  Uiso   1.00
C789   C     0.16557   0.16580   0.88333   0.00000  Uiso   1.00
C790   C     0.16706   0.16545   0.52419   0.00000  Uiso   1.00
C791   C     0.16625   0.16544   0.97581   0.00000  Uiso   1.00
C792   C     0.29052   0.16742   0.74803   0.00000  Uiso   1.00
C793   C     0.04281   0.16741   0.75200   0.00000  Uiso   1.00
C794   C     0.07525   0.03334   0.69055   0.00000  Uiso   1.00
C795   C     0.19125   0.29551   0.85600   0.00000  Uiso   1.00
C796   C     0.25811   0.03338   0.80934   0.00000  Uiso   1.00
C797   C     0.16708   0.16654   0.66502   0.00000  Uiso   1.00
C798   C     0.14220   0.29551   0.64399   0.00000  Uiso   1.00
C799   C     0.24642   0.22722   0.51733   0.00000  Uiso   1.00
C800   C     0.24526   0.10136   0.98578   0.00000  Uiso   1.00
C801   C     0.08699   0.22735   0.98266   0.00000  Uiso   1.00
C802   C     0.08794   0.10153   0.51420   0.00000  Uiso   1.00
C803   C     0.16625   0.16654   0.83498   0.00000  Uiso   1.00
C804   C     0.14141   0.02516   0.72093   0.00000  Uiso   1.00
C805   C     0.18898   0.30858   0.78163   0.00000  Uiso   1.00
C806   C     0.19193   0.02516   0.77907   0.00000  Uiso   1.00
C807   C     0.14436   0.30858   0.71837   0.00000  Uiso   1.00
C808   C     0.02105   0.12544   0.75292   0.00000  Uiso   1.00
Cu809  Cu    0.16667   0.21355   0.75000   0.00000  Uiso   1.00
Cu810  Cu    0.16667   0.11978   0.75000   0.00000  Uiso   1.00
F811   F     0.21253   0.23187   0.61677   0.00000  Uiso   1.00
F812   F     0.20596   0.09593   0.88618   0.00000  Uiso   1.00
F813   F     0.12089   0.23195   0.88324   0.00000  Uiso   1.00
F814   F     0.12724   0.09602   0.61383   0.00000  Uiso   1.00
F815   F     0.04013   0.08428   0.76080   0.00000  Uiso   1.00
F816   F     0.29248   0.25151   0.74997   0.00000  Uiso   1.00
F817   F     0.29318   0.08432   0.73899   0.00000  Uiso   1.00
F818   F     0.04088   0.25151   0.75035   0.00000  Uiso   1.00
H819   H     0.05413   0.06294   0.68388   0.00000  Uiso   1.00
H820   H     0.13309   0.26856   0.61930   0.00000  Uiso   1.00
H821   H     0.17627   0.29658   0.64714   0.00000  Uiso   1.00
H822   H     0.13102   0.32921   0.63046   0.00000  Uiso   1.00
H823   H     0.24737   0.20379   0.98825   0.00000  Uiso   1.00
H824   H     0.26378   0.21189   0.54630   0.00000  Uiso   1.00
H825   H     0.26222   0.25990   0.50856   0.00000  Uiso   1.00
H826   H     0.24866   0.12556   0.51427   0.00000  Uiso   1.00
H827   H     0.26148   0.11511   0.95683   0.00000  Uiso   1.00
H828   H     0.26047   0.06827   0.99578   0.00000  Uiso   1.00
H829   H     0.08600   0.20390   0.51173   0.00000  Uiso   1.00
H830   H     0.06653   0.01613   0.72180   0.00000  Uiso   1.00
H831   H     0.06961   0.21207   0.95368   0.00000  Uiso   1.00
H832   H     0.07123   0.26005   0.99145   0.00000  Uiso   1.00
H833   H     0.08460   0.12565   0.98565   0.00000  Uiso   1.00
H834   H     0.07175   0.11542   0.54311   0.00000  Uiso   1.00
H835   H     0.07266   0.06846   0.50430   0.00000  Uiso   1.00
H836   H     0.06999   0.00908   0.66246   0.00000  Uiso   1.00
H837   H     0.20248   0.32919   0.86953   0.00000  Uiso   1.00
H838   H     0.15718   0.29662   0.85291   0.00000  Uiso   1.00
H839   H     0.20036   0.26853   0.88067   0.00000  Uiso   1.00
H840   H     0.27921   0.06301   0.81598   0.00000  Uiso   1.00
H841   H     0.26678   0.01620   0.77807   0.00000  Uiso   1.00
H842   H     0.26343   0.00912   0.83741   0.00000  Uiso   1.00
N843   N     0.16667   0.28402   0.75000   0.00000  Uiso   1.00
N844   N     0.16667   0.04931   0.75000   0.00000  Uiso   1.00
O845   O     0.10655   0.20625   0.74999   0.00000  Uiso   1.00
O846   O     0.20915   0.28444   0.81551   0.00000  Uiso   1.00
O847   O     0.21745   0.05054   0.80790   0.00000  Uiso   1.00
O848   O     0.12423   0.28445   0.68445   0.00000  Uiso   1.00
O849   O     0.20554   0.23797   0.52656   0.00000  Uiso   1.00
O850   O     0.20349   0.09217   0.97586   0.00000  Uiso   1.00
O851   O     0.12788   0.23803   0.97344   0.00000  Uiso   1.00
O852   O     0.12969   0.09225   0.52415   0.00000  Uiso   1.00
O853   O     0.22679   0.12709   0.75000   0.00000  Uiso   1.00
O854   O     0.22679   0.20625   0.75000   0.00000  Uiso   1.00
O855   O     0.10655   0.12709   0.74999   0.00000  Uiso   1.00
O856   O     0.16666   0.20626   0.68573   0.00000  Uiso   1.00
O857   O     0.16667   0.12707   0.81427   0.00000  Uiso   1.00
O858   O     0.16667   0.20626   0.81427   0.00000  Uiso   1.00
O859   O     0.16666   0.12707   0.68573   0.00000  Uiso   1.00
O860   O     0.11591   0.05054   0.69207   0.00000  Uiso   1.00
C861   C     0.42079   0.16680   0.75109   0.00000  Uiso   1.00
C862   C     0.64544   0.20984   0.74972   0.00000  Uiso   1.00
C863   C     0.64560   0.12545   0.74699   0.00000  Uiso   1.00
C864   C     0.35457   0.20984   0.75045   0.00000  Uiso   1.00
C865   C     0.52165   0.20070   0.54800   0.00000  Uiso   1.00
C866   C     0.51958   0.12971   0.95330   0.00000  Uiso   1.00
C867   C     0.47838   0.20073   0.95201   0.00000  Uiso   1.00
C868   C     0.48034   0.12975   0.54670   0.00000  Uiso   1.00
C869   C     0.52258   0.20006   0.59413   0.00000  Uiso   1.00
C870   C     0.51919   0.13015   0.90724   0.00000  Uiso   1.00
C871   C     0.47746   0.20009   0.90587   0.00000  Uiso   1.00
C872   C     0.57921   0.16680   0.74892   0.00000  Uiso   1.00
C873   C     0.48073   0.13020   0.59276   0.00000  Uiso   1.00
C874   C     0.50108   0.16581   0.61668   0.00000  Uiso   1.00
C875   C     0.49890   0.16580   0.88333   0.00000  Uiso   1.00
C876   C     0.50040   0.16545   0.52419   0.00000  Uiso   1.00
C877   C     0.49958   0.16544   0.97581   0.00000  Uiso   1.00
C878   C     0.62385   0.16742   0.74803   0.00000  Uiso   1.00
C879   C     0.37615   0.16741   0.75200   0.00000  Uiso   1.00
C880   C     0.40858   0.03334   0.69055   0.00000  Uiso   1.00
C881   C     0.52458   0.29551   0.85600   0.00000  Uiso   1.00
C882   C     0.59145   0.03338   0.80934   0.00000  Uiso   1.00
C883   C     0.50042   0.16654   0.66502   0.00000  Uiso   1.00
C884   C     0.47553   0.29551   0.64399   0.00000  Uiso   1.00
C885   C     0.57975   0.22722   0.51733   0.00000  Uiso   1.00
C886   C     0.57860   0.10136   0.98578   0.00000  Uiso   1.00
C887   C     0.42032   0.22735   0.98266   0.00000  Uiso   1.00
C888   C     0.42128   0.10153   0.51420   0.00000  Uiso   1.00
C889   C     0.49958   0.16654   0.83498   0.00000  Uiso   1.00
C890   C     0.47474   0.02516   0.72093   0.00000  Uiso   1.00
C891   C     0.52231   0.30858   0.78163   0.00000  Uiso   1.00
C892   C     0.52526   0.02516   0.77907   0.00000  Uiso   1.00
C893   C     0.47769   0.30858   0.71837   0.00000  Uiso   1.00
C894   C     0.35438   0.12544   0.75292   0.00000  Uiso   1.00
Cu895  Cu    0.50000   0.21355   0.75000   0.00000  Uiso   1.00
Cu896  Cu    0.50000   0.11978   0.75000   0.00000  Uiso   1.00
F897   F     0.54587   0.23187   0.61677   0.00000  Uiso   1.00
F898   F     0.53929   0.09593   0.88618   0.00000  Uiso   1.00
F899   F     0.45422   0.23195   0.88324   0.00000  Uiso   1.00
F900   F     0.46057   0.09602   0.61383   0.00000  Uiso   1.00
F901   F     0.37346   0.08428   0.76080   0.00000  Uiso   1.00
F902   F     0.62581   0.25151   0.74997   0.00000  Uiso   1.00
F903   F     0.62651   0.08432   0.73899   0.00000  Uiso   1.00
F904   F     0.37422   0.25151   0.75035   0.00000  Uiso   1.00
H905   H     0.38747   0.06294   0.68388   0.00000  Uiso   1.00
H906   H     0.46642   0.26856   0.61930   0.00000  Uiso   1.00
H907   H     0.50960   0.29658   0.64714   0.00000  Uiso   1.00
H908   H     0.46436   0.32921   0.63046   0.00000  Uiso   1.00
H909   H     0.58070   0.20379   0.98825   0.00000  Uiso   1.00
H910   H     0.59711   0.21189   0.54630   0.00000  Uiso   1.00
H911   H     0.59555   0.25990   0.50856   0.00000  Uiso   1.00
H912   H     0.58200   0.12556   0.51427   0.00000  Uiso   1.00
H913   H     0.59481   0.11511   0.95683   0.00000  Uiso   1.00
H914   H     0.59380   0.06827   0.99578   0.00000  Uiso   1.00
H915   H     0.41933   0.20390   0.51173   0.00000  Uiso   1.00
H916   H     0.39987   0.01613   0.72180   0.00000  Uiso   1.00
H917   H     0.40294   0.21207   0.95368   0.00000  Uiso   1.00
H918   H     0.40457   0.26005   0.99145   0.00000  Uiso   1.00
H919   H     0.41793   0.12565   0.98565   0.00000  Uiso   1.00
H920   H     0.40509   0.11542   0.54311   0.00000  Uiso   1.00
H921   H     0.40600   0.06846   0.50430   0.00000  Uiso   1.00
H922   H     0.40333   0.00908   0.66246   0.00000  Uiso   1.00
H923   H     0.53581   0.32919   0.86953   0.00000  Uiso   1.00
H924   H     0.49051   0.29662   0.85291   0.00000  Uiso   1.00
H925   H     0.53369   0.26853   0.88067   0.00000  Uiso   1.00
H926   H     0.61254   0.06301   0.81598   0.00000  Uiso   1.00
H927   H     0.60012   0.01620   0.77807   0.00000  Uiso   1.00
H928   H     0.59676   0.00912   0.83741   0.00000  Uiso   1.00
N929   N     0.50000   0.28402   0.75000   0.00000  Uiso   1.00
N930   N     0.50000   0.04931   0.75000   0.00000  Uiso   1.00
O931   O     0.43988   0.20625   0.74999   0.00000  Uiso   1.00
O932   O     0.54249   0.28444   0.81551   0.00000  Uiso   1.00
O933   O     0.55078   0.05054   0.80790   0.00000  Uiso   1.00
O934   O     0.45756   0.28445   0.68445   0.00000  Uiso   1.00
O935   O     0.53888   0.23797   0.52656   0.00000  Uiso   1.00
O936   O     0.53683   0.09217   0.97586   0.00000  Uiso   1.00
O937   O     0.46121   0.23803   0.97344   0.00000  Uiso   1.00
O938   O     0.46303   0.09225   0.52415   0.00000  Uiso   1.00
O939   O     0.56012   0.12709   0.75000   0.00000  Uiso   1.00
O940   O     0.56012   0.20625   0.75000   0.00000  Uiso   1.00
O941   O     0.43988   0.12709   0.74999   0.00000  Uiso   1.00
O942   O     0.50000   0.20626   0.68573   0.00000  Uiso   1.00
O943   O     0.50000   0.12707   0.81427   0.00000  Uiso   1.00
O944   O     0.50000   0.20626   0.81427   0.00000  Uiso   1.00
O945   O     0.50000   0.12707   0.68573   0.00000  Uiso   1.00
O946   O     0.44924   0.05054   0.69207   0.00000  Uiso   1.00
C947   C     0.75412   0.16680   0.75109   0.00000  Uiso   1.00
C948   C     0.97877   0.20984   0.74972   0.00000  Uiso   1.00
C949   C     0.97894   0.12545   0.74699   0.00000  Uiso   1.00
C950   C     0.68791   0.20984   0.75045   0.00000  Uiso   1.00
C951   C     0.85499   0.20070   0.54800   0.00000  Uiso   1.00
C952   C     0.85291   0.12971   0.95330   0.00000  Uiso   1.00
C953   C     0.81171   0.20073   0.95201   0.00000  Uiso   1.00
C954   C     0.81368   0.12975   0.54670   0.00000  Uiso   1.00
C955   C     0.85591   0.20006   0.59413   0.00000  Uiso   1.00
C956   C     0.85252   0.13015   0.90724   0.00000  Uiso   1.00
C957   C     0.81080   0.20009   0.90587   0.00000  Uiso   1.00
C958   C     0.91254   0.16680   0.74892   0.00000  Uiso   1.00
C959   C     0.81407   0.13020   0.59276   0.00000  Uiso   1.00
C960   C     0.83442   0.16581   0.61668   0.00000  Uiso   1.00
C961   C     0.83224   0.16580   0.88333   0.00000  Uiso   1.00
C962   C     0.83373   0.16545   0.52419   0.00000  Uiso   1.00
C963   C     0.83292   0.16544   0.97581   0.00000  Uiso   1.00
C964   C     0.95719   0.16742   0.74803   0.00000  Uiso   1.00
C965   C     0.70948   0.16741   0.75200   0.00000  Uiso   1.00
C966   C     0.74191   0.03334   0.69055   0.00000  Uiso   1.00
C967   C     0.85791   0.29551   0.85600   0.00000  Uiso   1.00
C968   C     0.92478   0.03338   0.80934   0.00000  Uiso   1.00
C969   C     0.83375   0.16654   0.66502   0.00000  Uiso   1.00
C970   C     0.80887   0.29551   0.64399   0.00000  Uiso   1.00
C971   C     0.91308   0.22722   0.51733   0.00000  Uiso   1.00
C972   C     0.91193   0.10136   0.98578   0.00000  Uiso   1.00
C973   C     0.75365   0.22735   0.98266   0.00000  Uiso   1.00
C974   C     0.75461   0.10153   0.51420   0.00000  Uiso   1.00
C975   C     0.83291   0.16654   0.83498   0.00000  Uiso   1.00
C976   C     0.80807   0.02516   0.72093   0.00000  Uiso   1.00
C977   C     0.85565   0.30858   0.78163   0.00000  Uiso   1.00
C978   C     0.85860   0.02516   0.77907   0.00000  Uiso   1.00
C979   C     0.81103   0.30858   0.71837   0.00000  Uiso   1.00
C980   C     0.68772   0.12544   0.75292   0.00000  Uiso   1.00
Cu981  Cu    0.83333   0.21355   0.75000   0.00000  Uiso   1.00
Cu982  Cu    0.83333   0.11978   0.75000   0.00000  Uiso   1.00
F983   F     0.87920   0.23187   0.61677   0.00000  Uiso   1.00
F984   F     0.87262   0.09593   0.88618   0.00000  Uiso   1.00
F985   F     0.78756   0.23195   0.88324   0.00000  Uiso   1.00
F986   F     0.79390   0.09602   0.61383   0.00000  Uiso   1.00
F987   F     0.70680   0.08428   0.76080   0.00000  Uiso   1.00
F988   F     0.95914   0.25151   0.74997   0.00000  Uiso   1.00
F989   F     0.95984   0.08432   0.73899   0.00000  Uiso   1.00
F990   F     0.70755   0.25151   0.75035   0.00000  Uiso   1.00
H991   H     0.72080   0.06294   0.68388   0.00000  Uiso   1.00
H992   H     0.79976   0.26856   0.61930   0.00000  Uiso   1.00
H993   H     0.84293   0.29658   0.64714   0.00000  Uiso   1.00
H994   H     0.79769   0.32921   0.63046   0.00000  Uiso   1.00
H995   H     0.91403   0.20379   0.98825   0.00000  Uiso   1.00
H996   H     0.93044   0.21189   0.54630   0.00000  Uiso   1.00
H997   H     0.92889   0.25990   0.50856   0.00000  Uiso   1.00
H998   H     0.91533   0.12556   0.51427   0.00000  Uiso   1.00
H999   H     0.92814   0.11511   0.95683   0.00000  Uiso   1.00
H1000  H     0.92714   0.06827   0.99578   0.00000  Uiso   1.00
H1001  H     0.75267   0.20390   0.51173   0.00000  Uiso   1.00
H1002  H     0.73320   0.01613   0.72180   0.00000  Uiso   1.00
H1003  H     0.73627   0.21207   0.95368   0.00000  Uiso   1.00
H1004  H     0.73790   0.26005   0.99145   0.00000  Uiso   1.00
H1005  H     0.75127   0.12565   0.98565   0.00000  Uiso   1.00
H1006  H     0.73842   0.11542   0.54311   0.00000  Uiso   1.00
H1007  H     0.73933   0.06846   0.50430   0.00000  Uiso   1.00
H1008  H     0.73666   0.00908   0.66246   0.00000  Uiso   1.00
H1009  H     0.86915   0.32919   0.86953   0.00000  Uiso   1.00
H1010  H     0.82385   0.29662   0.85291   0.00000  Uiso   1.00
H1011  H     0.86702   0.26853   0.88067   0.00000  Uiso   1.00
H1012  H     0.94588   0.06301   0.81598   0.00000  Uiso   1.00
H1013  H     0.93345   0.01620   0.77807   0.00000  Uiso   1.00
H1014  H     0.93009   0.00912   0.83741   0.00000  Uiso   1.00
N1015  N     0.83333   0.28402   0.75000   0.00000  Uiso   1.00
N1016  N     0.83333   0.04931   0.75000   0.00000  Uiso   1.00
O1017  O     0.77321   0.20625   0.74999   0.00000  Uiso   1.00
O1018  O     0.87582   0.28444   0.81551   0.00000  Uiso   1.00
O1019  O     0.88412   0.05054   0.80790   0.00000  Uiso   1.00
O1020  O     0.79089   0.28445   0.68445   0.00000  Uiso   1.00
O1021  O     0.87221   0.23797   0.52656   0.00000  Uiso   1.00
O1022  O     0.87016   0.09217   0.97586   0.00000  Uiso   1.00
O1023  O     0.79454   0.23803   0.97344   0.00000  Uiso   1.00
O1024  O     0.79636   0.09225   0.52415   0.00000  Uiso   1.00
O1025  O     0.89345   0.12709   0.75000   0.00000  Uiso   1.00
O1026  O     0.89345   0.20625   0.75000   0.00000  Uiso   1.00
O1027  O     0.77321   0.12709   0.74999   0.00000  Uiso   1.00
O1028  O     0.83333   0.20626   0.68573   0.00000  Uiso   1.00
O1029  O     0.83334   0.12707   0.81427   0.00000  Uiso   1.00
O1030  O     0.83334   0.20626   0.81427   0.00000  Uiso   1.00
O1031  O     0.83333   0.12707   0.68573   0.00000  Uiso   1.00
O1032  O     0.78258   0.05054   0.69207   0.00000  Uiso   1.00
C1033  C     0.08746   0.50014   0.75109   0.00000  Uiso   1.00
C1034  C     0.31211   0.54317   0.74972   0.00000  Uiso   1.00
C1035  C     0.31227   0.45879   0.74699   0.00000  Uiso   1.00
C1036  C     0.02124   0.54317   0.75045   0.00000  Uiso   1.00
C1037  C     0.18832   0.53403   0.54800   0.00000  Uiso   1.00
C1038  C     0.18624   0.46304   0.95330   0.00000  Uiso   1.00
C1039  C     0.14505   0.53406   0.95201   0.00000  Uiso   1.00
C1040  C     0.14701   0.46309   0.54670   0.00000  Uiso   1.00
C1041  C     0.18924   0.53339   0.59413   0.00000  Uiso   1.00
C1042  C     0.18586   0.46349   0.90724   0.00000  Uiso   1.00
C1043  C     0.14413   0.53342   0.90587   0.00000  Uiso   1.00
C1044  C     0.24588   0.50014   0.74892   0.00000  Uiso   1.00
C1045  C     0.14740   0.46354   0.59276   0.00000  Uiso   1.00
C1046  C     0.16775   0.49914   0.61668   0.00000  Uiso   1.00
C1047  C     0.16557   0.49913   0.88333   0.00000  Uiso   1.00
C1048  C     0.16706   0.49878   0.52419   0.00000  Uiso   1.00
C1049  C     0.16625   0.49878   0.97581   0.00000  Uiso   1.00
C1050  C     0.29052   0.50075   0.74803   0.00000  Uiso   1.00
C1051  C     0.04281   0.50074   0.75200   0.00000  Uiso   1.00
C1052  C     0.07525   0.36667   0.69055   0.00000  Uiso   1.00
C1053  C     0.19125   0.62884   0.85600   0.00000  Uiso   1.00
C1054  C     0.25811   0.36672   0.80934   0.00000  Uiso   1.00
C1055  C     0.16708   0.49987   0.66502   0.00000  Uiso   1.00
C1056  C     0.14220   0.62885   0.64399   0.00000  Uiso   1.00
C1057  C     0.24642   0.56055   0.51733   0.00000  Uiso   1.00
C1058  C     0.24526   0.43470   0.98578   0.00000  Uiso   1.00
C1059  C     0.08699   0.56069   0.98266   0.00000  Uiso   1.00
C1060  C     0.08794   0.43487   0.51420   0.00000  Uiso   1.00
C1061  C     0.16625   0.49987   0.83498   0.00000  Uiso   1.00
C1062  C     0.14141   0.35849   0.72093   0.00000  Uiso   1.00
C1063  C     0.18898   0.64191   0.78163   0.00000  Uiso   1.00
C1064  C     0.19193   0.35849   0.77907   0.00000  Uiso   1.00
C1065  C     0.14436   0.64191   0.71837   0.00000  Uiso   1.00
C1066  C     0.02105   0.45878   0.75292   0.00000  Uiso   1.00
Cu1067 Cu    0.16667   0.54689   0.75000   0.00000  Uiso   1.00
Cu1068 Cu    0.16667   0.45311   0.75000   0.00000  Uiso   1.00
F1069  F     0.21253   0.56521   0.61677   0.00000  Uiso   1.00
F1070  F     0.20596   0.42926   0.88618   0.00000  Uiso   1.00
F1071  F     0.12089   0.56528   0.88324   0.00000  Uiso   1.00
F1072  F     0.12724   0.42936   0.61383   0.00000  Uiso   1.00
F1073  F     0.04013   0.41762   0.76080   0.00000  Uiso   1.00
F1074  F     0.29248   0.58485   0.74997   0.00000  Uiso   1.00
F1075  F     0.29318   0.41766   0.73899   0.00000  Uiso   1.00
F1076  F     0.04088   0.58485   0.75035   0.00000  Uiso   1.00
H1077  H     0.05413   0.39627   0.68388   0.00000  Uiso   1.00
H1078  H     0.13309   0.60190   0.61930   0.00000  Uiso   1.00
H1079  H     0.17627   0.62991   0.64714   0.00000  Uiso   1.00
H1080  H     0.13102   0.66255   0.63046   0.00000  Uiso   1.00
H1081  H     0.24737   0.53712   0.98825   0.00000  Uiso   1.00
H1082  H     0.26378   0.54523   0.54630   0.00000  Uiso   1.00
H1083  H     0.26222   0.59323   0.50856   0.00000  Uiso   1.00
H1084  H     0.24866   0.45890   0.51427   0.00000  Uiso   1.00
H1085  H     0.26148   0.44844   0.95683   0.00000  Uiso   1.00
H1086  H     0.26047   0.40160   0.99578   0.00000  Uiso   1.00
H1087  H     0.08600   0.53724   0.51173   0.00000  Uiso   1.00
H1088  H     0.06653   0.34946   0.72180   0.00000  Uiso   1.00
H1089  H     0.06961   0.54540   0.95368   0.00000  Uiso   1.00
H1090  H     0.07123   0.59339   0.99145   0.00000  Uiso   1.00
H1091  H     0.08460   0.45898   0.98565   0.00000  Uiso   1.00
H1092  H     0.07175   0.44876   0.54311   0.00000  Uiso   1.00
H1093  H     0.07266   0.40179   0.50430   0.00000  Uiso   1.00
H1094  H     0.06999   0.34241   0.66246   0.00000  Uiso   1.00
H1095  H     0.20248   0.66253   0.86953   0.00000  Uiso   1.00
H1096  H     0.15718   0.62995   0.85291   0.00000  Uiso   1.00
H1097  H     0.20036   0.60187   0.88067   0.00000  Uiso   1.00
H1098  H     0.27921   0.39634   0.81598   0.00000  Uiso   1.00
H1099  H     0.26678   0.34953   0.77807   0.00000  Uiso   1.00
H1100  H     0.26343   0.34245   0.83741   0.00000  Uiso   1.00
N1101  N     0.16667   0.61736   0.75000   0.00000  Uiso   1.00
N1102  N     0.16667   0.38264   0.75000   0.00000  Uiso   1.00
O1103  O     0.10655   0.53958   0.74999   0.00000  Uiso   1.00
O1104  O     0.20915   0.61778   0.81551   0.00000  Uiso   1.00
O1105  O     0.21745   0.38387   0.80790   0.00000  Uiso   1.00
O1106  O     0.12423   0.61778   0.68445   0.00000  Uiso   1.00
O1107  O     0.20554   0.57130   0.52656   0.00000  Uiso   1.00
O1108  O     0.20349   0.42550   0.97586   0.00000  Uiso   1.00
O1109  O     0.12788   0.57137   0.97344   0.00000  Uiso   1.00
O1110  O     0.12969   0.42558   0.52415   0.00000  Uiso   1.00
O1111  O     0.22679   0.46042   0.75000   0.00000  Uiso   1.00
O1112  O     0.22679   0.53958   0.75000   0.00000  Uiso   1.00
O1113  O     0.10655   0.46042   0.74999   0.00000  Uiso   1.00
O1114  O     0.16666   0.53959   0.68573   0.00000  Uiso   1.00
O1115  O     0.16667   0.46041   0.81427   0.00000  Uiso   1.00
O1116  O     0.16667   0.53959   0.81427   0.00000  Uiso   1.00
O1117  O     0.16666   0.46041   0.68573   0.00000  Uiso   1.00
O1118  O     0.11591   0.38387   0.69207   0.00000  Uiso   1.00
C1119  C     0.42079   0.50014   0.75109   0.00000  Uiso   1.00
C1120  C     0.64544   0.54317   0.74972   0.00000  Uiso   1.00
C1121  C     0.64560   0.45879   0.74699   0.00000  Uiso   1.00
C1122  C     0.35457   0.54317   0.75045   0.00000  Uiso   1.00
C1123  C     0.52165   0.53403   0.54800   0.00000  Uiso   1.00
C1124  C     0.51958   0.46304   0.95330   0.00000  Uiso   1.00
C1125  C     0.47838   0.53406   0.95201   0.00000  Uiso   1.00
C1126  C     0.48034   0.46309   0.54670   0.00000  Uiso   1.00
C1127  C     0.52258   0.53339   0.59413   0.00000  Uiso   1.00
C1128  C     0.51919   0.46349   0.90724   0.00000  Uiso   1.00
C1129  C     0.47746   0.53342   0.90587   0.00000  Uiso   1.00
C1130  C     0.57921   0.50014   0.74892   0.00000  Uiso   1.00
C1131  C     0.48073   0.46354   0.59276   0.00000  Uiso   1.00
C1132  C     0.50108   0.49914   0.61668   0.00000  Uiso   1.00
C1133  C     0.49890   0.49913   0.88333   0.00000  Uiso   1.00
C1134  C     0.50040   0.49878   0.52419   0.00000  Uiso   1.00
C1135  C     0.49958   0.49878   0.97581   0.00000  Uiso   1.00
C1136  C     0.62385   0.50075   0.74803   0.00000  Uiso   1.00
C1137  C     0.37615   0.50074   0.75200   0.00000  Uiso   1.00
C1138  C     0.40858   0.36667   0.69055   0.00000  Uiso   1.00
C1139  C     0.52458   0.62884   0.85600   0.00000  Uiso   1.00
C1140  C     0.59145   0.36672   0.80934   0.00000  Uiso   1.00
C1141  C     0.50042   0.49987   0.66502   0.00000  Uiso   1.00
C1142  C     0.47553   0.62885   0.64399   0.00000  Uiso   1.00
C1143  C     0.57975   0.56055   0.51733   0.00000  Uiso   1.00
C1144  C     0.57860   0.43470   0.98578   0.00000  Uiso   1.00
C1145  C     0.42032   0.56069   0.98266   0.00000  Uiso   1.00
C1146  C     0.42128   0.43487   0.51420   0.00000  Uiso   1.00
C1147  C     0.49958   0.49987   0.83498   0.00000  Uiso   1.00
C1148  C     0.47474   0.35849   0.72093   0.00000  Uiso   1.00
C1149  C     0.52231   0.64191   0.78163   0.00000  Uiso   1.00
C1150  C     0.52526   0.35849   0.77907   0.00000  Uiso   1.00
C1151  C     0.47769   0.64191   0.71837   0.00000  Uiso   1.00
C1152  C     0.35438   0.45878   0.75292   0.00000  Uiso   1.00
Cu1153 Cu    0.50000   0.54689   0.75000   0.00000  Uiso   1.00
Cu1154 Cu    0.50000   0.45311   0.75000   0.00000  Uiso   1.00
F1155  F     0.54587   0.56521   0.61677   0.00000  Uiso   1.00
F1156  F     0.53929   0.42926   0.88618   0.00000  Uiso   1.00
F1157  F     0.45422   0.56528   0.88324   0.00000  Uiso   1.00
F1158  F     0.46057   0.42936   0.61383   0.00000  Uiso   1.00
F1159  F     0.37346   0.41762   0.76080   0.00000  Uiso   1.00
F1160  F     0.62581   0.58485   0.74997   0.00000  Uiso   1.00
F1161  F     0.62651   0.41766   0.73899   0.00000  Uiso   1.00
F1162  F     0.37422   0.58485   0.75035   0.00000  Uiso   1.00
H1163  H     0.38747   0.39627   0.68388   0.00000  Uiso   1.00
H1164  H     0.46642   0.60190   0.61930   0.00000  Uiso   1.00
H1165  H     0.50960   0.62991   0.64714   0.00000  Uiso   1.00
H1166  H     0.46436   0.66255   0.63046   0.00000  Uiso   1.00
H1167  H     0.58070   0.53712   0.98825   0.00000  Uiso   1.00
H1168  H     0.59711   0.54523   0.54630   0.00000  Uiso   1.00
H1169  H     0.59555   0.59323   0.50856   0.00000  Uiso   1.00
H1170  H     0.58200   0.45890   0.51427   0.00000  Uiso   1.00
H1171  H     0.59481   0.44844   0.95683   0.00000  Uiso   1.00
H1172  H     0.59380   0.40160   0.99578   0.00000  Uiso   1.00
H1173  H     0.41933   0.53724   0.51173   0.00000  Uiso   1.00
H1174  H     0.39987   0.34946   0.72180   0.00000  Uiso   1.00
H1175  H     0.40294   0.54540   0.95368   0.00000  Uiso   1.00
H1176  H     0.40457   0.59339   0.99145   0.00000  Uiso   1.00
H1177  H     0.41793   0.45898   0.98565   0.00000  Uiso   1.00
H1178  H     0.40509   0.44876   0.54311   0.00000  Uiso   1.00
H1179  H     0.40600   0.40179   0.50430   0.00000  Uiso   1.00
H1180  H     0.40333   0.34241   0.66246   0.00000  Uiso   1.00
H1181  H     0.53581   0.66253   0.86953   0.00000  Uiso   1.00
H1182  H     0.49051   0.62995   0.85291   0.00000  Uiso   1.00
H1183  H     0.53369   0.60187   0.88067   0.00000  Uiso   1.00
H1184  H     0.61254   0.39634   0.81598   0.00000  Uiso   1.00
H1185  H     0.60012   0.34953   0.77807   0.00000  Uiso   1.00
H1186  H     0.59676   0.34245   0.83741   0.00000  Uiso   1.00
N1187  N     0.50000   0.61736   0.75000   0.00000  Uiso   1.00
N1188  N     0.50000   0.38264   0.75000   0.00000  Uiso   1.00
O1189  O     0.43988   0.53958   0.74999   0.00000  Uiso   1.00
O1190  O     0.54249   0.61778   0.81551   0.00000  Uiso   1.00
O1191  O     0.55078   0.38387   0.80790   0.00000  Uiso   1.00
O1192  O     0.45756   0.61778   0.68445   0.00000  Uiso   1.00
O1193  O     0.53888   0.57130   0.52656   0.00000  Uiso   1.00
O1194  O     0.53683   0.42550   0.97586   0.00000  Uiso   1.00
O1195  O     0.46121   0.57137   0.97344   0.00000  Uiso   1.00
O1196  O     0.46303   0.42558   0.52415   0.00000  Uiso   1.00
O1197  O     0.56012   0.46042   0.75000   0.00000  Uiso   1.00
O1198  O     0.56012   0.53958   0.75000   0.00000  Uiso   1.00
O1199  O     0.43988   0.46042   0.74999   0.00000  Uiso   1.00
O1200  O     0.50000   0.53959   0.68573   0.00000  Uiso   1.00
O1201  O     0.50000   0.46041   0.81427   0.00000  Uiso   1.00
O1202  O     0.50000   0.53959   0.81427   0.00000  Uiso   1.00
O1203  O     0.50000   0.46041   0.68573   0.00000  Uiso   1.00
O1204  O     0.44924   0.38387   0.69207   0.00000  Uiso   1.00
C1205  C     0.75412   0.50014   0.75109   0.00000  Uiso   1.00
C1206  C     0.97877   0.54317   0.74972   0.00000  Uiso   1.00
C1207  C     0.97894   0.45879   0.74699   0.00000  Uiso   1.00
C1208  C     0.68791   0.54317   0.75045   0.00000  Uiso   1.00
C1209  C     0.85499   0.53403   0.54800   0.00000  Uiso   1.00
C1210  C     0.85291   0.46304   0.95330   0.00000  Uiso   1.00
C1211  C     0.81171   0.53406   0.95201   0.00000  Uiso   1.00
C1212  C     0.81368   0.46309   0.54670   0.00000  Uiso   1.00
C1213  C     0.85591   0.53339   0.59413   0.00000  Uiso   1.00
C1214  C     0.85252   0.46349   0.90724   0.00000  Uiso   1.00
C1215  C     0.81080   0.53342   0.90587   0.00000  Uiso   1.00
C1216  C     0.91254   0.50014   0.74892   0.00000  Uiso   1.00
C1217  C     0.81407   0.46354   0.59276   0.00000  Uiso   1.00
C1218  C     0.83442   0.49914   0.61668   0.00000  Uiso   1.00
C1219  C     0.83224   0.49913   0.88333   0.00000  Uiso   1.00
C1220  C     0.83373   0.49878   0.52419   0.00000  Uiso   1.00
C1221  C     0.83292   0.49878   0.97581   0.00000  Uiso   1.00
C1222  C     0.95719   0.50075   0.74803   0.00000  Uiso   1.00
C1223  C     0.70948   0.50074   0.75200   0.00000  Uiso   1.00
C1224  C     0.74191   0.36667   0.69055   0.00000  Uiso   1.00
C1225  C     0.85791   0.62884   0.85600   0.00000  Uiso   1.00
C1226  C     0.92478   0.36672   0.80934   0.00000  Uiso   1.00
C1227  C     0.83375   0.49987   0.66502   0.00000  Uiso   1.00
C1228  C     0.80887   0.62885   0.64399   0.00000  Uiso   1.00
C1229  C     0.91308   0.56055   0.51733   0.00000  Uiso   1.00
C1230  C     0.91193   0.43470   0.98578   0.00000  Uiso   1.00
C1231  C     0.75365   0.56069   0.98266   0.00000  Uiso   1.00
C1232  C     0.75461   0.43487   0.51420   0.00000  Uiso   1.00
C1233  C     0.83291   0.49987   0.83498   0.00000  Uiso   1.00
C1234  C     0.80807   0.35849   0.72093   0.00000  Uiso   1.00
C1235  C     0.85565   0.64191   0.78163   0.00000  Uiso   1.00
C1236  C     0.85860   0.35849   0.77907   0.00000  Uiso   1.00
C1237  C     0.81103   0.64191   0.71837   0.00000  Uiso   1.00
C1238  C     0.68772   0.45878   0.75292   0.00000  Uiso   1.00
Cu1239 Cu    0.83333   0.54689   0.75000   0.00000  Uiso   1.00
Cu1240 Cu    0.83333   0.45311   0.75000   0.00000  Uiso   1.00
F1241  F     0.87920   0.56521   0.61677   0.00000  Uiso   1.00
F1242  F     0.87262   0.42926   0.88618   0.00000  Uiso   1.00
F1243  F     0.78756   0.56528   0.88324   0.00000  Uiso   1.00
F1244  F     0.79390   0.42936   0.61383   0.00000  Uiso   1.00
F1245  F     0.70680   0.41762   0.76080   0.00000  Uiso   1.00
F1246  F     0.95914   0.58485   0.74997   0.00000  Uiso   1.00
F1247  F     0.95984   0.41766   0.73899   0.00000  Uiso   1.00
F1248  F     0.70755   0.58485   0.75035   0.00000  Uiso   1.00
H1249  H     0.72080   0.39627   0.68388   0.00000  Uiso   1.00
H1250  H     0.79976   0.60190   0.61930   0.00000  Uiso   1.00
H1251  H     0.84293   0.62991   0.64714   0.00000  Uiso   1.00
H1252  H     0.79769   0.66255   0.63046   0.00000  Uiso   1.00
H1253  H     0.91403   0.53712   0.98825   0.00000  Uiso   1.00
H1254  H     0.93044   0.54523   0.54630   0.00000  Uiso   1.00
H1255  H     0.92889   0.59323   0.50856   0.00000  Uiso   1.00
H1256  H     0.91533   0.45890   0.51427   0.00000  Uiso   1.00
H1257  H     0.92814   0.44844   0.95683   0.00000  Uiso   1.00
H1258  H     0.92714   0.40160   0.99578   0.00000  Uiso   1.00
H1259  H     0.75267   0.53724   0.51173   0.00000  Uiso   1.00
H1260  H     0.73320   0.34946   0.72180   0.00000  Uiso   1.00
H1261  H     0.73627   0.54540   0.95368   0.00000  Uiso   1.00
H1262  H     0.73790   0.59339   0.99145   0.00000  Uiso   1.00
H1263  H     0.75127   0.45898   0.98565   0.00000  Uiso   1.00
H1264  H     0.73842   0.44876   0.54311   0.00000  Uiso   1.00
H1265  H     0.73933   0.40179   0.50430   0.00000  Uiso   1.00
H1266  H     0.73666   0.34241   0.66246   0.00000  Uiso   1.00
H1267  H     0.86915   0.66253   0.86953   0.00000  Uiso   1.00
H1268  H     0.82385   0.62995   0.85291   0.00000  Uiso   1.00
H1269  H     0.86702   0.60187   0.88067   0.00000  Uiso   1.00
H1270  H     0.94588   0.39634   0.81598   0.00000  Uiso   1.00
H1271  H     0.93345   0.34953   0.77807   0.00000  Uiso   1.00
H1272  H     0.93009   0.34245   0.83741   0.00000  Uiso   1.00
N1273  N     0.83333   0.61736   0.75000   0.00000  Uiso   1.00
N1274  N     0.83333   0.38264   0.75000   0.00000  Uiso   1.00
O1275  O     0.77321   0.53958   0.74999   0.00000  Uiso   1.00
O1276  O     0.87582   0.61778   0.81551   0.00000  Uiso   1.00
O1277  O     0.88412   0.38387   0.80790   0.00000  Uiso   1.00
O1278  O     0.79089   0.61778   0.68445   0.00000  Uiso   1.00
O1279  O     0.87221   0.57130   0.52656   0.00000  Uiso   1.00
O1280  O     0.87016   0.42550   0.97586   0.00000  Uiso   1.00
O1281  O     0.79454   0.57137   0.97344   0.00000  Uiso   1.00
O1282  O     0.79636   0.42558   0.52415   0.00000  Uiso   1.00
O1283  O     0.89345   0.46042   0.75000   0.00000  Uiso   1.00
O1284  O     0.89345   0.53958   0.75000   0.00000  Uiso   1.00
O1285  O     0.77321   0.46042   0.74999   0.00000  Uiso   1.00
O1286  O     0.83333   0.53959   0.68573   0.00000  Uiso   1.00
O1287  O     0.83334   0.46041   0.81427   0.00000  Uiso   1.00
O1288  O     0.83334   0.53959   0.81427   0.00000  Uiso   1.00
O1289  O     0.83333   0.46041   0.68573   0.00000  Uiso   1.00
O1290  O     0.78258   0.38387   0.69207   0.00000  Uiso   1.00
C1291  C     0.08746   0.83347   0.75109   0.00000  Uiso   1.00
C1292  C     0.31211   0.87651   0.74972   0.00000  Uiso   1.00
C1293  C     0.31227   0.79212   0.74699   0.00000  Uiso   1.00
C1294  C     0.02124   0.87650   0.75045   0.00000  Uiso   1.00
C1295  C     0.18832   0.86736   0.54800   0.00000  Uiso   1.00
C1296  C     0.18624   0.79637   0.95330   0.00000  Uiso   1.00
C1297  C     0.14505   0.86740   0.95201   0.00000  Uiso   1.00
C1298  C     0.14701   0.79642   0.54670   0.00000  Uiso   1.00
C1299  C     0.18924   0.86672   0.59413   0.00000  Uiso   1.00
C1300  C     0.18586   0.79682   0.90724   0.00000  Uiso   1.00
C1301  C     0.14413   0.86676   0.90587   0.00000  Uiso   1.00
C1302  C     0.24588   0.83347   0.74892   0.00000  Uiso   1.00
C1303  C     0.14740   0.79687   0.59276   0.00000  Uiso   1.00
C1304  C     0.16775   0.83247   0.61668   0.00000  Uiso   1.00
C1305  C     0.16557   0.83247   0.88333   0.00000  Uiso   1.00
C1306  C     0.16706   0.83211   0.52419   0.00000  Uiso   1.00
C1307  C     0.16625   0.83211   0.97581   0.00000  Uiso   1.00
C1308  C     0.29052   0.83409   0.74803   0.00000  Uiso   1.00
C1309  C     0.04281   0.83408   0.75200   0.00000  Uiso   1.00
C1310  C     0.07525   0.70000   0.69055   0.00000  Uiso   1.00
C1311  C     0.19125   0.96218   0.85600   0.00000  Uiso   1.00
C1312  C     0.25811   0.70005   0.80934   0.00000  Uiso   1.00
C1313  C     0.16708   0.83321   0.66502   0.00000  Uiso   1.00
C1314  C     0.14220   0.96218   0.64399   0.00000  Uiso   1.00
C1315  C     0.24642   0.89389   0.51733   0.00000  Uiso   1.00
C1316  C     0.24526   0.76803   0.98578   0.00000  Uiso   1.00
C1317  C     0.08699   0.89402   0.98266   0.00000  Uiso   1.00
C1318  C     0.08794   0.76820   0.51420   0.00000  Uiso   1.00
C1319  C     0.16625   0.83320   0.83498   0.00000  Uiso   1.00
C1320  C     0.14141   0.69182   0.72093   0.00000  Uiso   1.00
C1321  C     0.18898   0.97525   0.78163   0.00000  Uiso   1.00
C1322  C     0.19193   0.69182   0.77907   0.00000  Uiso   1.00
C1323  C     0.14436   0.97525   0.71837   0.00000  Uiso   1.00
C1324  C     0.02105   0.79211   0.75292   0.00000  Uiso   1.00
Cu1325 Cu    0.16667   0.88022   0.75000   0.00000  Uiso   1.00
Cu1326 Cu    0.16667   0.78645   0.75000   0.00000  Uiso   1.00
F1327  F     0.21253   0.89854   0.61677   0.00000  Uiso   1.00
F1328  F     0.20596   0.76259   0.88618   0.00000  Uiso   1.00
F1329  F     0.12089   0.89861   0.88324   0.00000  Uiso   1.00
F1330  F     0.12724   0.76269   0.61383   0.00000  Uiso   1.00
F1331  F     0.04013   0.75095   0.76080   0.00000  Uiso   1.00
F1332  F     0.29248   0.91818   0.74997   0.00000  Uiso   1.00
F1333  F     0.29318   0.75099   0.73899   0.00000  Uiso   1.00
F1334  F     0.04088   0.91818   0.75035   0.00000  Uiso   1.00
H1335  H     0.05413   0.72961   0.68388   0.00000  Uiso   1.00
H1336  H     0.13309   0.93523   0.61930   0.00000  Uiso   1.00
H1337  H     0.17627   0.96324   0.64714   0.00000  Uiso   1.00
H1338  H     0.13102   0.99588   0.63046   0.00000  Uiso   1.00
H1339  H     0.24737   0.87045   0.98825   0.00000  Uiso   1.00
H1340  H     0.26378   0.87856   0.54630   0.00000  Uiso   1.00
H1341  H     0.26222   0.92657   0.50856   0.00000  Uiso   1.00
H1342  H     0.24866   0.79223   0.51427   0.00000  Uiso   1.00
H1343  H     0.26148   0.78177   0.95683   0.00000  Uiso   1.00
H1344  H     0.26047   0.73494   0.99578   0.00000  Uiso   1.00
H1345  H     0.08600   0.87057   0.51173   0.00000  Uiso   1.00
H1346  H     0.06653   0.68279   0.72180   0.00000  Uiso   1.00
H1347  H     0.06961   0.87874   0.95368   0.00000  Uiso   1.00
H1348  H     0.07123   0.92672   0.99145   0.00000  Uiso   1.00
H1349  H     0.08460   0.79231   0.98565   0.00000  Uiso   1.00
H1350  H     0.07175   0.78209   0.54311   0.00000  Uiso   1.00
H1351  H     0.07266   0.73512   0.50430   0.00000  Uiso   1.00
H1352  H     0.06999   0.67575   0.66246   0.00000  Uiso   1.00
H1353  H     0.20248   0.99586   0.86953   0.00000  Uiso   1.00
H1354  H     0.15718   0.96328   0.85291   0.00000  Uiso   1.00
H1355  H     0.20036   0.93520   0.88067   0.00000  Uiso   1.00
H1356  H     0.27921   0.72967   0.81598   0.00000  Uiso   1.00
H1357  H     0.26678   0.68286   0.77807   0.00000  Uiso   1.00
H1358  H     0.26343   0.67578   0.83741   0.00000  Uiso   1.00
N1359  N     0.16667   0.95069   0.75000   0.00000  Uiso   1.00
N1360  N     0.16667   0.71598   0.75000   0.00000  Uiso   1.00
O1361  O     0.10655   0.87291   0.74999   0.00000  Uiso   1.00
O1362  O     0.20915   0.95111   0.81551   0.00000  Uiso   1.00
O1363  O     0.21745   0.71720   0.80790   0.00000  Uiso   1.00
O1364  O     0.12423   0.95111   0.68445   0.00000  Uiso   1.00
O1365  O     0.20554   0.90464   0.52656   0.00000  Uiso   1.00
O1366  O     0.20349   0.75884   0.97586   0.00000  Uiso   1.00
O1367  O     0.12788   0.90470   0.97344   0.00000  Uiso   1.00
O1368  O     0.12969   0.75891   0.52415   0.00000  Uiso   1.00
O1369  O     0.22679   0.79375   0.75000   0.00000  Uiso   1.00
O1370  O     0.22679   0.87291   0.75000   0.00000  Uiso   1.00
O1371  O     0.10655   0.79375   0.74999   0.00000  Uiso   1.00
O1372  O     0.16666   0.87293   0.68573   0.00000  Uiso   1.00
O1373  O     0.16667   0.79374   0.81427   0.00000  Uiso   1.00
O1374  O     0.16667   0.87293   0.81427   0.00000  Uiso   1.00
O1375  O     0.16666   0.79374   0.68573   0.00000  Uiso   1.00
O1376  O     0.11591   0.71721   0.69207   0.00000  Uiso   1.00
C1377  C     0.42079   0.83347   0.75109   0.00000  Uiso   1.00
C1378  C     0.64544   0.87651   0.74972   0.00000  Uiso   1.00
C1379  C     0.64560   0.79212   0.74699   0.00000  Uiso   1.00
C1380  C     0.35457   0.87650   0.75045   0.00000  Uiso   1.00
C1381  C     0.52165   0.86736   0.54800   0.00000  Uiso   1.00
C1382  C     0.51958   0.79637   0.95330   0.00000  Uiso   1.00
C1383  C     0.47838   0.86740   0.95201   0.00000  Uiso   1.00
C1384  C     0.48034   0.79642   0.54670   0.00000  Uiso   1.00
C1385  C     0.52258   0.86672   0.59413   0.00000  Uiso   1.00
C1386  C     0.51919   0.79682   0.90724   0.00000  Uiso   1.00
C1387  C     0.47746   0.86676   0.90587   0.00000  Uiso   1.00
C1388  C     0.57921   0.83347   0.74892   0.00000  Uiso   1.00
C1389  C     0.48073   0.79687   0.59276   0.00000  Uiso   1.00
C1390  C     0.50108   0.83247   0.61668   0.00000  Uiso   1.00
C1391  C     0.49890   0.83247   0.88333   0.00000  Uiso   1.00
C1392  C     0.50040   0.83211   0.52419   0.00000  Uiso   1.00
C1393  C     0.49958   0.83211   0.97581   0.00000  Uiso   1.00
C1394  C     0.62385   0.83409   0.74803   0.00000  Uiso   1.00
C1395  C     0.37615   0.83408   0.75200   0.00000  Uiso   1.00
C1396  C     0.40858   0.70000   0.69055   0.00000  Uiso   1.00
C1397  C     0.52458   0.96218   0.85600   0.00000  Uiso   1.00
C1398  C     0.59145   0.70005   0.80934   0.00000  Uiso   1.00
C1399  C     0.50042   0.83321   0.66502   0.00000  Uiso   1.00
C1400  C     0.47553   0.96218   0.64399   0.00000  Uiso   1.00
C1401  C     0.57975   0.89389   0.51733   0.00000  Uiso   1.00
C1402  C     0.57860   0.76803   0.98578   0.00000  Uiso   1.00
C1403  C     0.42032   0.89402   0.98266   0.00000  Uiso   1.00
C1404  C     0.42128   0.76820   0.51420   0.00000  Uiso   1.00
C1405  C     0.49958   0.83320   0.83498   0.00000  Uiso   1.00
C1406  C     0.47474   0.69182   0.72093   0.00000  Uiso   1.00
C1407  C     0.52231   0.97525   0.78163   0.00000  Uiso   1.00
C1408  C     0.52526   0.69182   0.77907   0.00000  Uiso   1.00
C1409  C     0.47769   0.97525   0.71837   0.00000  Uiso   1.00
C1410  C     0.35438   0.79211   0.75292   0.00000  Uiso   1.00
Cu1411 Cu    0.50000   0.88022   0.75000   0.00000  Uiso   1.00
Cu1412 Cu    0.50000   0.78645   0.75000   0.00000  Uiso   1.00
F1413  F     0.54587   0.89854   0.61677   0.00000  Uiso   1.00
F1414  F     0.53929   0.76259   0.88618   0.00000  Uiso   1.00
F1415  F     0.45422   0.89861   0.88324   0.00000  Uiso   1.00
F1416  F     0.46057   0.76269   0.61383   0.00000  Uiso   1.00
F1417  F     0.37346   0.75095   0.76080   0.00000  Uiso   1.00
F1418  F     0.62581   0.91818   0.74997   0.00000  Uiso   1.00
F1419  F     0.62651   0.75099   0.73899   0.00000  Uiso   1.00
F1420  F     0.37422   0.91818   0.75035   0.00000  Uiso   1.00
H1421  H     0.38747   0.72961   0.68388   0.00000  Uiso   1.00
H1422  H     0.46642   0.93523   0.61930   0.00000  Uiso   1.00
H1423  H     0.50960   0.96324   0.64714   0.00000  Uiso   1.00
H1424  H     0.46436   0.99588   0.63046   0.00000  Uiso   1.00
H1425  H     0.58070   0.87045   0.98825   0.00000  Uiso   1.00
H1426  H     0.59711   0.87856   0.54630   0.00000  Uiso   1.00
H1427  H     0.59555   0.92657   0.50856   0.00000  Uiso   1.00
H1428  H     0.58200   0.79223   0.51427   0.00000  Uiso   1.00
H1429  H     0.59481   0.78177   0.95683   0.00000  Uiso   1.00
H1430  H     0.59380   0.73494   0.99578   0.00000  Uiso   1.00
H1431  H     0.41933   0.87057   0.51173   0.00000  Uiso   1.00
H1432  H     0.39987   0.68279   0.72180   0.00000  Uiso   1.00
H1433  H     0.40294   0.87874   0.95368   0.00000  Uiso   1.00
H1434  H     0.40457   0.92672   0.99145   0.00000  Uiso   1.00
H1435  H     0.41793   0.79231   0.98565   0.00000  Uiso   1.00
H1436  H     0.40509   0.78209   0.54311   0.00000  Uiso   1.00
H1437  H     0.40600   0.73512   0.50430   0.00000  Uiso   1.00
H1438  H     0.40333   0.67575   0.66246   0.00000  Uiso   1.00
H1439  H     0.53581   0.99586   0.86953   0.00000  Uiso   1.00
H1440  H     0.49051   0.96328   0.85291   0.00000  Uiso   1.00
H1441  H     0.53369   0.93520   0.88067   0.00000  Uiso   1.00
H1442  H     0.61254   0.72967   0.81598   0.00000  Uiso   1.00
H1443  H     0.60012   0.68286   0.77807   0.00000  Uiso   1.00
H1444  H     0.59676   0.67578   0.83741   0.00000  Uiso   1.00
N1445  N     0.50000   0.95069   0.75000   0.00000  Uiso   1.00
N1446  N     0.50000   0.71598   0.75000   0.00000  Uiso   1.00
O1447  O     0.43988   0.87291   0.74999   0.00000  Uiso   1.00
O1448  O     0.54249   0.95111   0.81551   0.00000  Uiso   1.00
O1449  O     0.55078   0.71720   0.80790   0.00000  Uiso   1.00
O1450  O     0.45756   0.95111   0.68445   0.00000  Uiso   1.00
O1451  O     0.53888   0.90464   0.52656   0.00000  Uiso   1.00
O1452  O     0.53683   0.75884   0.97586   0.00000  Uiso   1.00
O1453  O     0.46121   0.90470   0.97344   0.00000  Uiso   1.00
O1454  O     0.46303   0.75891   0.52415   0.00000  Uiso   1.00
O1455  O     0.56012   0.79375   0.75000   0.00000  Uiso   1.00
O1456  O     0.56012   0.87291   0.75000   0.00000  Uiso   1.00
O1457  O     0.43988   0.79375   0.74999   0.00000  Uiso   1.00
O1458  O     0.50000   0.87293   0.68573   0.00000  Uiso   1.00
O1459  O     0.50000   0.79374   0.81427   0.00000  Uiso   1.00
O1460  O     0.50000   0.87293   0.81427   0.00000  Uiso   1.00
O1461  O     0.50000   0.79374   0.68573   0.00000  Uiso   1.00
O1462  O     0.44924   0.71721   0.69207   0.00000  Uiso   1.00
C1463  C     0.75412   0.83347   0.75109   0.00000  Uiso   1.00
C1464  C     0.97877   0.87651   0.74972   0.00000  Uiso   1.00
C1465  C     0.97894   0.79212   0.74699   0.00000  Uiso   1.00
C1466  C     0.68791   0.87650   0.75045   0.00000  Uiso   1.00
C1467  C     0.85499   0.86736   0.54800   0.00000  Uiso   1.00
C1468  C     0.85291   0.79637   0.95330   0.00000  Uiso   1.00
C1469  C     0.81171   0.86740   0.95201   0.00000  Uiso   1.00
C1470  C     0.81368   0.79642   0.54670   0.00000  Uiso   1.00
C1471  C     0.85591   0.86672   0.59413   0.00000  Uiso   1.00
C1472  C     0.85252   0.79682   0.90724   0.00000  Uiso   1.00
C1473  C     0.81080   0.86676   0.90587   0.00000  Uiso   1.00
C1474  C     0.91254   0.83347   0.74892   0.00000  Uiso   1.00
C1475  C     0.81407   0.79687   0.59276   0.00000  Uiso   1.00
C1476  C     0.83442   0.83247   0.61668   0.00000  Uiso   1.00
C1477  C     0.83224   0.83247   0.88333   0.00000  Uiso   1.00
C1478  C     0.83373   0.83211   0.52419   0.00000  Uiso   1.00
C1479  C     0.83292   0.83211   0.97581   0.00000  Uiso   1.00
C1480  C     0.95719   0.83409   0.74803   0.00000  Uiso   1.00
C1481  C     0.70948   0.83408   0.75200   0.00000  Uiso   1.00
C1482  C     0.74191   0.70000   0.69055   0.00000  Uiso   1.00
C1483  C     0.85791   0.96218   0.85600   0.00000  Uiso   1.00
C1484  C     0.92478   0.70005   0.80934   0.00000  Uiso   1.00
C1485  C     0.83375   0.83321   0.66502   0.00000  Uiso   1.00
C1486  C     0.80887   0.96218   0.64399   0.00000  Uiso   1.00
C1487  C     0.91308   0.89389   0.51733   0.00000  Uiso   1.00
C1488  C     0.91193   0.76803   0.98578   0.00000  Uiso   1.00
C1489  C     0.75365   0.89402   0.98266   0.00000  Uiso   1.00
C1490  C     0.75461   0.76820   0.51420   0.00000  Uiso   1.00
C1491  C     0.83291   0.83320   0.83498   0.00000  Uiso   1.00
C1492  C     0.80807   0.69182   0.72093   0.00000  Uiso   1.00
C1493  C     0.85565   0.97525   0.78163   0.00000  Uiso   1.00
C1494  C     0.85860   0.69182   0.77907   0.00000  Uiso   1.00
C1495  C     0.81103   0.97525   0.71837   0.00000  Uiso   1.00
C1496  C     0.68772   0.79211   0.75292   0.00000  Uiso   1.00
Cu1497 Cu    0.83333   0.88022   0.75000   0.00000  Uiso   1.00
Cu1498 Cu    0.83333   0.78645   0.75000   0.00000  Uiso   1.00
F1499  F     0.87920   0.89854   0.61677   0.00000  Uiso   1.00
F1500  F     0.87262   0.76259   0.88618   0.00000  Uiso   1.00
F1501  F     0.78756   0.89861   0.88324   0.00000  Uiso   1.00
F1502  F     0.79390   0.76269   0.61383   0.00000  Uiso   1.00
F1503  F     0.70680   0.75095   0.76080   0.00000  Uiso   1.00
F1504  F     0.95914   0.91818   0.74997   0.00000  Uiso   1.00
F1505  F     0.95984   0.75099   0.73899   0.00000  Uiso   1.00
F1506  F     0.70755   0.91818   0.75035   0.00000  Uiso   1.00
H1507  H     0.72080   0.72961   0.68388   0.00000  Uiso   1.00
H1508  H     0.79976   0.93523   0.61930   0.00000  Uiso   1.00
H1509  H     0.84293   0.96324   0.64714   0.00000  Uiso   1.00
H1510  H     0.79769   0.99588   0.63046   0.00000  Uiso   1.00
H1511  H     0.91403   0.87045   0.98825   0.00000  Uiso   1.00
H1512  H     0.93044   0.87856   0.54630   0.00000  Uiso   1.00
H1513  H     0.92889   0.92657   0.50856   0.00000  Uiso   1.00
H1514  H     0.91533   0.79223   0.51427   0.00000  Uiso   1.00
H1515  H     0.92814   0.78177   0.95683   0.00000  Uiso   1.00
H1516  H     0.92714   0.73494   0.99578   0.00000  Uiso   1.00
H1517  H     0.75267   0.87057   0.51173   0.00000  Uiso   1.00
H1518  H     0.73320   0.68279   0.72180   0.00000  Uiso   1.00
H1519  H     0.73627   0.87874   0.95368   0.00000  Uiso   1.00
H1520  H     0.73790   0.92672   0.99145   0.00000  Uiso   1.00
H1521  H     0.75127   0.79231   0.98565   0.00000  Uiso   1.00
H1522  H     0.73842   0.78209   0.54311   0.00000  Uiso   1.00
H1523  H     0.73933   0.73512   0.50430   0.00000  Uiso   1.00
H1524  H     0.73666   0.67575   0.66246   0.00000  Uiso   1.00
H1525  H     0.86915   0.99586   0.86953   0.00000  Uiso   1.00
H1526  H     0.82385   0.96328   0.85291   0.00000  Uiso   1.00
H1527  H     0.86702   0.93520   0.88067   0.00000  Uiso   1.00
H1528  H     0.94588   0.72967   0.81598   0.00000  Uiso   1.00
H1529  H     0.93345   0.68286   0.77807   0.00000  Uiso   1.00
H1530  H     0.93009   0.67578   0.83741   0.00000  Uiso   1.00
N1531  N     0.83333   0.95069   0.75000   0.00000  Uiso   1.00
N1532  N     0.83333   0.71598   0.75000   0.00000  Uiso   1.00
O1533  O     0.77321   0.87291   0.74999   0.00000  Uiso   1.00
O1534  O     0.87582   0.95111   0.81551   0.00000  Uiso   1.00
O1535  O     0.88412   0.71720   0.80790   0.00000  Uiso   1.00
O1536  O     0.79089   0.95111   0.68445   0.00000  Uiso   1.00
O1537  O     0.87221   0.90464   0.52656   0.00000  Uiso   1.00
O1538  O     0.87016   0.75884   0.97586   0.00000  Uiso   1.00
O1539  O     0.79454   0.90470   0.97344   0.00000  Uiso   1.00
O1540  O     0.79636   0.75891   0.52415   0.00000  Uiso   1.00
O1541  O     0.89345   0.79375   0.75000   0.00000  Uiso   1.00
O1542  O     0.89345   0.87291   0.75000   0.00000  Uiso   1.00
O1543  O     0.77321   0.79375   0.74999   0.00000  Uiso   1.00
O1544  O     0.83333   0.87293   0.68573   0.00000  Uiso   1.00
O1545  O     0.83334   0.79374   0.81427   0.00000  Uiso   1.00
O1546  O     0.83334   0.87293   0.81427   0.00000  Uiso   1.00
O1547  O     0.83333   0.79374   0.68573   0.00000  Uiso   1.00
O1548  O     0.78258   0.71721   0.69207   0.00000  Uiso   1.00
loop_
_geom_bond_atom_site_label_1
_geom_bond_atom_site_label_2
_geom_bond_distance
_geom_bond_site_symmetry_2
_ccdc_geom_bond_type
C1     O71     1.295   .     A
C1     O81     1.302   .     A
C1     C19     1.459   .     S
C2     C18     1.408   .     A
C2     F42     1.359   .     S
C2     C90     1.386   .     S
C3     F43     1.354   .     S
C3     C18     1.401   .     A
C3     C120    1.379   .     S
C4     C19     1.408   .     A
C4     F44     1.359   .     S
C4     C174    1.386   1_455 S
C5     O75     1.384   .     S
C5     C9      1.395   .     A
C5     C16     1.409   .     A
C6     C17     1.408   .     A
C6     C10     1.393   .     A
C6     O76     1.384   .     S
C7     C11     1.395   .     A
C7     C17     1.409   .     A
C7     O77     1.384   .     S
C8     C13     1.393   .     A
C8     C16     1.408   .     A
C8     O78     1.384   .     S
C9     C14     1.402   .     A
C9     F37     1.357   .     S
C10    C15     1.404   .     A
C10    F38     1.356   .     S
C11    C15     1.402   .     A
C11    F39     1.357   .     S
C12    O79     1.302   .     A
C12    O80     1.295   .     A
C12    C18     1.459   .     S
C13    C14     1.404   .     A
C13    F40     1.356   .     S
C14    C23     1.464   .     S
C15    C29     1.464   .     S
C16    C791    1.463   1_554 S
C17    C790    1.463   .     S
C19    C34     1.401   .     A
C20    H56     1.115   .     S
C20    O86     1.416   .     S
C20    H45     1.108   .     S
C20    H62     1.107   .     S
C21    H64     1.113   .     S
C21    O72     1.416   .     S
C21    H65     1.108   .     S
C21    H63     1.108   .     S
C22    H66     1.108   .     S
C22    H68     1.107   .     S
C22    H67     1.114   .     S
C22    O73     1.415   .     S
C23    O82     1.303   .     A
C23    O85     1.296   .     A
C24    H48     1.108   .     S
C24    H47     1.113   .     S
C24    H46     1.108   .     S
C24    O74     1.416   .     S
C25    H50     1.115   .     S
C25    O75     1.409   .     S
C25    H51     1.109   .     S
C25    H823    1.110   1_554 S
C26    O76     1.409   .     S
C26    H54     1.109   .     S
C26    H53     1.115   .     S
C26    H826    1.110   .     S
C27    H57     1.115   .     S
C27    H58     1.109   .     S
C27    O77     1.409   .     S
C27    H829    1.110   .     S
C28    O78     1.409   .     S
C28    H61     1.109   .     S
C28    H60     1.115   .     S
C28    H833    1.110   1_554 S
C29    O83     1.296   .     A
C29    O84     1.303   .     A
C30    O86     1.388   .     S
C30    N70     1.370   .     A
C30    C549    1.440   1_545 S
C31    O72     1.382   .     S
C31    N69     1.374   .     A
C31    C290    1.440   .     S
C32    O73     1.388   .     S
C32    N70     1.370   .     A
C32    C547    1.440   1_545 S
C33    N69     1.374   .     A
C33    O74     1.382   .     S
C33    C288    1.440   .     S
C34    F41     1.354   .     S
C34    C175    1.379   1_455 S
Cu35   Cu36    2.695   .     S
Cu35   O80     1.974   .     S
Cu35   O71     1.974   .     S
Cu35   O82     1.956   .     S
Cu35   O84     1.956   .     S
Cu35   N69     2.025   .     S
Cu36   O83     1.956   .     S
Cu36   N70     2.025   .     S
Cu36   O79     1.974   .     S
Cu36   O81     1.974   .     S
Cu36   O85     1.956   .     S
H49    C799    1.110   .     S
H52    C800    1.110   1_554 S
H55    C801    1.110   1_554 S
H59    C802    1.110   .     S
C87    O157    1.295   .     A
C87    O167    1.302   .     A
C87    C105    1.459   .     S
C88    C104    1.408   .     A
C88    F128    1.359   .     S
C88    C176    1.386   .     S
C89    F129    1.354   .     S
C89    C104    1.401   .     A
C89    C206    1.379   .     S
C90    C105    1.408   .     A
C90    F130    1.359   .     S
C91    O161    1.384   .     S
C91    C95     1.395   .     A
C91    C102    1.409   .     A
C92    C103    1.408   .     A
C92    C96     1.393   .     A
C92    O162    1.384   .     S
C93    C97     1.395   .     A
C93    C103    1.409   .     A
C93    O163    1.384   .     S
C94    C99     1.393   .     A
C94    C102    1.408   .     A
C94    O164    1.384   .     S
C95    C100    1.402   .     A
C95    F123    1.357   .     S
C96    C101    1.404   .     A
C96    F124    1.356   .     S
C97    C101    1.402   .     A
C97    F125    1.357   .     S
C98    O165    1.302   .     A
C98    O166    1.295   .     A
C98    C104    1.459   .     S
C99    C100    1.404   .     A
C99    F126    1.356   .     S
C100   C109    1.464   .     S
C101   C115    1.464   .     S
C102   C877    1.463   1_554 S
C103   C876    1.463   .     S
C105   C120    1.401   .     A
C106   H142    1.115   .     S
C106   O172    1.416   .     S
C106   H131    1.108   .     S
C106   H148    1.107   .     S
C107   H150    1.113   .     S
C107   O158    1.416   .     S
C107   H151    1.108   .     S
C107   H149    1.108   .     S
C108   H152    1.108   .     S
C108   H154    1.107   .     S
C108   H153    1.114   .     S
C108   O159    1.415   .     S
C109   O168    1.303   .     A
C109   O171    1.296   .     A
C110   H134    1.108   .     S
C110   H133    1.113   .     S
C110   H132    1.108   .     S
C110   O160    1.416   .     S
C111   H136    1.115   .     S
C111   O161    1.409   .     S
C111   H137    1.109   .     S
C111   H909    1.110   1_554 S
C112   O162    1.409   .     S
C112   H140    1.109   .     S
C112   H139    1.115   .     S
C112   H912    1.110   .     S
C113   H143    1.115   .     S
C113   H144    1.109   .     S
C113   O163    1.409   .     S
C113   H915    1.110   .     S
C114   O164    1.409   .     S
C114   H147    1.109   .     S
C114   H146    1.115   .     S
C114   H919    1.110   1_554 S
C115   O169    1.296   .     A
C115   O170    1.303   .     A
C116   O172    1.388   .     S
C116   N156    1.370   .     A
C116   C635    1.440   1_545 S
C117   O158    1.382   .     S
C117   N155    1.374   .     A
C117   C376    1.440   .     S
C118   O159    1.388   .     S
C118   N156    1.370   .     A
C118   C633    1.440   1_545 S
C119   N155    1.374   .     A
C119   O160    1.382   .     S
C119   C374    1.440   .     S
C120   F127    1.354   .     S
Cu121  Cu122   2.695   .     S
Cu121  O166    1.974   .     S
Cu121  O157    1.974   .     S
Cu121  O168    1.956   .     S
Cu121  O170    1.956   .     S
Cu121  N155    2.025   .     S
Cu122  O169    1.956   .     S
Cu122  N156    2.025   .     S
Cu122  O165    1.974   .     S
Cu122  O167    1.974   .     S
Cu122  O171    1.956   .     S
H135   C885    1.110   .     S
H138   C886    1.110   1_554 S
H141   C887    1.110   1_554 S
H145   C888    1.110   .     S
C173   O243    1.295   .     A
C173   O253    1.302   .     A
C173   C191    1.459   .     S
C174   C190    1.408   .     A
C174   F214    1.359   .     S
C174   C4      1.386   1_655 S
C175   F215    1.354   .     S
C175   C190    1.401   .     A
C175   C34     1.379   1_655 S
C176   C191    1.408   .     A
C176   F216    1.359   .     S
C177   O247    1.384   .     S
C177   C181    1.395   .     A
C177   C188    1.409   .     A
C178   C189    1.408   .     A
C178   C182    1.393   .     A
C178   O248    1.384   .     S
C179   C183    1.395   .     A
C179   C189    1.409   .     A
C179   O249    1.384   .     S
C180   C185    1.393   .     A
C180   C188    1.408   .     A
C180   O250    1.384   .     S
C181   C186    1.402   .     A
C181   F209    1.357   .     S
C182   C187    1.404   .     A
C182   F210    1.356   .     S
C183   C187    1.402   .     A
C183   F211    1.357   .     S
C184   O251    1.302   .     A
C184   O252    1.295   .     A
C184   C190    1.459   .     S
C185   C186    1.404   .     A
C185   F212    1.356   .     S
C186   C195    1.464   .     S
C187   C201    1.464   .     S
C188   C963    1.463   1_554 S
C189   C962    1.463   .     S
C191   C206    1.401   .     A
C192   H228    1.115   .     S
C192   O258    1.416   .     S
C192   H217    1.108   .     S
C192   H234    1.107   .     S
C193   H236    1.113   .     S
C193   O244    1.416   .     S
C193   H237    1.108   .     S
C193   H235    1.108   .     S
C194   H238    1.108   .     S
C194   H240    1.107   .     S
C194   H239    1.114   .     S
C194   O245    1.415   .     S
C195   O254    1.303   .     A
C195   O257    1.296   .     A
C196   H220    1.108   .     S
C196   H219    1.113   .     S
C196   H218    1.108   .     S
C196   O246    1.416   .     S
C197   H222    1.115   .     S
C197   O247    1.409   .     S
C197   H223    1.109   .     S
C197   H995    1.110   1_554 S
C198   O248    1.409   .     S
C198   H226    1.109   .     S
C198   H225    1.115   .     S
C198   H998    1.110   .     S
C199   H229    1.115   .     S
C199   H230    1.109   .     S
C199   O249    1.409   .     S
C199   H1001   1.110   .     S
C200   O250    1.409   .     S
C200   H233    1.109   .     S
C200   H232    1.115   .     S
C200   H1005   1.110   1_554 S
C201   O255    1.296   .     A
C201   O256    1.303   .     A
C202   O258    1.388   .     S
C202   N242    1.370   .     A
C202   C721    1.440   1_545 S
C203   O244    1.382   .     S
C203   N241    1.374   .     A
C203   C462    1.440   .     S
C204   O245    1.388   .     S
C204   N242    1.370   .     A
C204   C719    1.440   1_545 S
C205   N241    1.374   .     A
C205   O246    1.382   .     S
C205   C460    1.440   .     S
C206   F213    1.354   .     S
Cu207  Cu208   2.695   .     S
Cu207  O252    1.974   .     S
Cu207  O243    1.974   .     S
Cu207  O254    1.956   .     S
Cu207  O256    1.956   .     S
Cu207  N241    2.025   .     S
Cu208  O255    1.956   .     S
Cu208  N242    2.025   .     S
Cu208  O251    1.974   .     S
Cu208  O253    1.974   .     S
Cu208  O257    1.956   .     S
H221   C971    1.110   .     S
H224   C972    1.110   1_554 S
H227   C973    1.110   1_554 S
H231   C974    1.110   .     S
C259   O329    1.295   .     A
C259   O339    1.302   .     A
C259   C277    1.459   .     S
C260   C276    1.408   .     A
C260   F300    1.359   .     S
C260   C348    1.386   .     S
C261   F301    1.354   .     S
C261   C276    1.401   .     A
C261   C378    1.379   .     S
C262   C277    1.408   .     A
C262   F302    1.359   .     S
C262   C432    1.386   1_455 S
C263   O333    1.384   .     S
C263   C267    1.395   .     A
C263   C274    1.409   .     A
C264   C275    1.408   .     A
C264   C268    1.393   .     A
C264   O334    1.384   .     S
C265   C269    1.395   .     A
C265   C275    1.409   .     A
C265   O335    1.384   .     S
C266   C271    1.393   .     A
C266   C274    1.408   .     A
C266   O336    1.384   .     S
C267   C272    1.402   .     A
C267   F295    1.357   .     S
C268   C273    1.404   .     A
C268   F296    1.356   .     S
C269   C273    1.402   .     A
C269   F297    1.357   .     S
C270   O337    1.302   .     A
C270   O338    1.295   .     A
C270   C276    1.459   .     S
C271   C272    1.404   .     A
C271   F298    1.356   .     S
C272   C281    1.464   .     S
C273   C287    1.464   .     S
C274   C1049   1.463   1_554 S
C275   C1048   1.463   .     S
C277   C292    1.401   .     A
C278   H314    1.115   .     S
C278   O344    1.416   .     S
C278   H303    1.108   .     S
C278   H320    1.107   .     S
C279   H322    1.113   .     S
C279   O330    1.416   .     S
C279   H323    1.108   .     S
C279   H321    1.108   .     S
C280   H324    1.108   .     S
C280   H326    1.107   .     S
C280   H325    1.114   .     S
C280   O331    1.415   .     S
C281   O340    1.303   .     A
C281   O343    1.296   .     A
C282   H306    1.108   .     S
C282   H305    1.113   .     S
C282   H304    1.108   .     S
C282   O332    1.416   .     S
C283   H308    1.115   .     S
C283   O333    1.409   .     S
C283   H309    1.109   .     S
C283   H1081   1.110   1_554 S
C284   O334    1.409   .     S
C284   H312    1.109   .     S
C284   H311    1.115   .     S
C284   H1084   1.110   .     S
C285   H315    1.115   .     S
C285   H316    1.109   .     S
C285   O335    1.409   .     S
C285   H1087   1.110   .     S
C286   O336    1.409   .     S
C286   H319    1.109   .     S
C286   H318    1.115   .     S
C286   H1091   1.110   1_554 S
C287   O341    1.296   .     A
C287   O342    1.303   .     A
C288   O344    1.388   .     S
C288   N328    1.370   .     A
C289   O330    1.382   .     S
C289   N327    1.374   .     A
C289   C548    1.440   .     S
C290   O331    1.388   .     S
C290   N328    1.370   .     A
C291   N327    1.374   .     A
C291   O332    1.382   .     S
C291   C546    1.440   .     S
C292   F299    1.354   .     S
C292   C433    1.379   1_455 S
Cu293  Cu294   2.695   .     S
Cu293  O338    1.974   .     S
Cu293  O329    1.974   .     S
Cu293  O340    1.956   .     S
Cu293  O342    1.956   .     S
Cu293  N327    2.025   .     S
Cu294  O341    1.956   .     S
Cu294  N328    2.025   .     S
Cu294  O337    1.974   .     S
Cu294  O339    1.974   .     S
Cu294  O343    1.956   .     S
H307   C1057   1.110   .     S
H310   C1058   1.110   1_554 S
H313   C1059   1.110   1_554 S
H317   C1060   1.110   .     S
C345   O415    1.295   .     A
C345   O425    1.302   .     A
C345   C363    1.459   .     S
C346   C362    1.408   .     A
C346   F386    1.359   .     S
C346   C434    1.386   .     S
C347   F387    1.354   .     S
C347   C362    1.401   .     A
C347   C464    1.379   .     S
C348   C363    1.408   .     A
C348   F388    1.359   .     S
C349   O419    1.384   .     S
C349   C353    1.395   .     A
C349   C360    1.409   .     A
C350   C361    1.408   .     A
C350   C354    1.393   .     A
C350   O420    1.384   .     S
C351   C355    1.395   .     A
C351   C361    1.409   .     A
C351   O421    1.384   .     S
C352   C357    1.393   .     A
C352   C360    1.408   .     A
C352   O422    1.384   .     S
C353   C358    1.402   .     A
C353   F381    1.357   .     S
C354   C359    1.404   .     A
C354   F382    1.356   .     S
C355   C359    1.402   .     A
C355   F383    1.357   .     S
C356   O423    1.302   .     A
C356   O424    1.295   .     A
C356   C362    1.459   .     S
C357   C358    1.404   .     A
C357   F384    1.356   .     S
C358   C367    1.464   .     S
C359   C373    1.464   .     S
C360   C1135   1.463   1_554 S
C361   C1134   1.463   .     S
C363   C378    1.401   .     A
C364   H400    1.115   .     S
C364   O430    1.416   .     S
C364   H389    1.108   .     S
C364   H406    1.107   .     S
C365   H408    1.113   .     S
C365   O416    1.416   .     S
C365   H409    1.108   .     S
C365   H407    1.108   .     S
C366   H410    1.108   .     S
C366   H412    1.107   .     S
C366   H411    1.114   .     S
C366   O417    1.415   .     S
C367   O426    1.303   .     A
C367   O429    1.296   .     A
C368   H392    1.108   .     S
C368   H391    1.113   .     S
C368   H390    1.108   .     S
C368   O418    1.416   .     S
C369   H394    1.115   .     S
C369   O419    1.409   .     S
C369   H395    1.109   .     S
C369   H1167   1.110   1_554 S
C370   O420    1.409   .     S
C370   H398    1.109   .     S
C370   H397    1.115   .     S
C370   H1170   1.110   .     S
C371   H401    1.115   .     S
C371   H402    1.109   .     S
C371   O421    1.409   .     S
C371   H1173   1.110   .     S
C372   O422    1.409   .     S
C372   H405    1.109   .     S
C372   H404    1.115   .     S
C372   H1177   1.110   1_554 S
C373   O427    1.296   .     A
C373   O428    1.303   .     A
C374   O430    1.388   .     S
C374   N414    1.370   .     A
C375   O416    1.382   .     S
C375   N413    1.374   .     A
C375   C634    1.440   .     S
C376   O417    1.388   .     S
C376   N414    1.370   .     A
C377   N413    1.374   .     A
C377   O418    1.382   .     S
C377   C632    1.440   .     S
C378   F385    1.354   .     S
Cu379  Cu380   2.695   .     S
Cu379  O424    1.974   .     S
Cu379  O415    1.974   .     S
Cu379  O426    1.956   .     S
Cu379  O428    1.956   .     S
Cu379  N413    2.025   .     S
Cu380  O427    1.956   .     S
Cu380  N414    2.025   .     S
Cu380  O423    1.974   .     S
Cu380  O425    1.974   .     S
Cu380  O429    1.956   .     S
H393   C1143   1.110   .     S
H396   C1144   1.110   1_554 S
H399   C1145   1.110   1_554 S
H403   C1146   1.110   .     S
C431   O501    1.295   .     A
C431   O511    1.302   .     A
C431   C449    1.459   .     S
C432   C448    1.408   .     A
C432   F472    1.359   .     S
C432   C262    1.386   1_655 S
C433   F473    1.354   .     S
C433   C448    1.401   .     A
C433   C292    1.379   1_655 S
C434   C449    1.408   .     A
C434   F474    1.359   .     S
C435   O505    1.384   .     S
C435   C439    1.395   .     A
C435   C446    1.409   .     A
C436   C447    1.408   .     A
C436   C440    1.393   .     A
C436   O506    1.384   .     S
C437   C441    1.395   .     A
C437   C447    1.409   .     A
C437   O507    1.384   .     S
C438   C443    1.393   .     A
C438   C446    1.408   .     A
C438   O508    1.384   .     S
C439   C444    1.402   .     A
C439   F467    1.357   .     S
C440   C445    1.404   .     A
C440   F468    1.356   .     S
C441   C445    1.402   .     A
C441   F469    1.357   .     S
C442   O509    1.302   .     A
C442   O510    1.295   .     A
C442   C448    1.459   .     S
C443   C444    1.404   .     A
C443   F470    1.356   .     S
C444   C453    1.464   .     S
C445   C459    1.464   .     S
C446   C1221   1.463   1_554 S
C447   C1220   1.463   .     S
C449   C464    1.401   .     A
C450   H486    1.115   .     S
C450   O516    1.416   .     S
C450   H475    1.108   .     S
C450   H492    1.107   .     S
C451   H494    1.113   .     S
C451   O502    1.416   .     S
C451   H495    1.108   .     S
C451   H493    1.108   .     S
C452   H496    1.108   .     S
C452   H498    1.107   .     S
C452   H497    1.114   .     S
C452   O503    1.415   .     S
C453   O512    1.303   .     A
C453   O515    1.296   .     A
C454   H478    1.108   .     S
C454   H477    1.113   .     S
C454   H476    1.108   .     S
C454   O504    1.416   .     S
C455   H480    1.115   .     S
C455   O505    1.409   .     S
C455   H481    1.109   .     S
C455   H1253   1.110   1_554 S
C456   O506    1.409   .     S
C456   H484    1.109   .     S
C456   H483    1.115   .     S
C456   H1256   1.110   .     S
C457   H487    1.115   .     S
C457   H488    1.109   .     S
C457   O507    1.409   .     S
C457   H1259   1.110   .     S
C458   O508    1.409   .     S
C458   H491    1.109   .     S
C458   H490    1.115   .     S
C458   H1263   1.110   1_554 S
C459   O513    1.296   .     A
C459   O514    1.303   .     A
C460   O516    1.388   .     S
C460   N500    1.370   .     A
C461   O502    1.382   .     S
C461   N499    1.374   .     A
C461   C720    1.440   .     S
C462   O503    1.388   .     S
C462   N500    1.370   .     A
C463   N499    1.374   .     A
C463   O504    1.382   .     S
C463   C718    1.440   .     S
C464   F471    1.354   .     S
Cu465  Cu466   2.695   .     S
Cu465  O510    1.974   .     S
Cu465  O501    1.974   .     S
Cu465  O512    1.956   .     S
Cu465  O514    1.956   .     S
Cu465  N499    2.025   .     S
Cu466  O513    1.956   .     S
Cu466  N500    2.025   .     S
Cu466  O509    1.974   .     S
Cu466  O511    1.974   .     S
Cu466  O515    1.956   .     S
H479   C1229   1.110   .     S
H482   C1230   1.110   1_554 S
H485   C1231   1.110   1_554 S
H489   C1232   1.110   .     S
C517   O587    1.295   .     A
C517   O597    1.302   .     A
C517   C535    1.459   .     S
C518   C534    1.408   .     A
C518   F558    1.359   .     S
C518   C606    1.386   .     S
C519   F559    1.354   .     S
C519   C534    1.401   .     A
C519   C636    1.379   .     S
C520   C535    1.408   .     A
C520   F560    1.359   .     S
C520   C690    1.386   1_455 S
C521   O591    1.384   .     S
C521   C525    1.395   .     A
C521   C532    1.409   .     A
C522   C533    1.408   .     A
C522   C526    1.393   .     A
C522   O592    1.384   .     S
C523   C527    1.395   .     A
C523   C533    1.409   .     A
C523   O593    1.384   .     S
C524   C529    1.393   .     A
C524   C532    1.408   .     A
C524   O594    1.384   .     S
C525   C530    1.402   .     A
C525   F553    1.357   .     S
C526   C531    1.404   .     A
C526   F554    1.356   .     S
C527   C531    1.402   .     A
C527   F555    1.357   .     S
C528   O595    1.302   .     A
C528   O596    1.295   .     A
C528   C534    1.459   .     S
C529   C530    1.404   .     A
C529   F556    1.356   .     S
C530   C539    1.464   .     S
C531   C545    1.464   .     S
C532   C1307   1.463   1_554 S
C533   C1306   1.463   .     S
C535   C550    1.401   .     A
C536   H572    1.115   .     S
C536   O602    1.416   .     S
C536   H561    1.108   .     S
C536   H578    1.107   .     S
C537   H580    1.113   .     S
C537   O588    1.416   .     S
C537   H581    1.108   .     S
C537   H579    1.108   .     S
C538   H582    1.108   .     S
C538   H584    1.107   .     S
C538   H583    1.114   .     S
C538   O589    1.415   .     S
C539   O598    1.303   .     A
C539   O601    1.296   .     A
C540   H564    1.108   .     S
C540   H563    1.113   .     S
C540   H562    1.108   .     S
C540   O590    1.416   .     S
C541   H566    1.115   .     S
C541   O591    1.409   .     S
C541   H567    1.109   .     S
C541   H1339   1.110   1_554 S
C542   O592    1.409   .     S
C542   H570    1.109   .     S
C542   H569    1.115   .     S
C542   H1342   1.110   .     S
C543   H573    1.115   .     S
C543   H574    1.109   .     S
C543   O593    1.409   .     S
C543   H1345   1.110   .     S
C544   O594    1.409   .     S
C544   H577    1.109   .     S
C544   H576    1.115   .     S
C544   H1349   1.110   1_554 S
C545   O599    1.296   .     A
C545   O600    1.303   .     A
C546   O602    1.388   .     S
C546   N586    1.370   .     A
C547   O588    1.382   .     S
C547   N585    1.374   .     A
C547   C32     1.440   1_565 S
C548   O589    1.388   .     S
C548   N586    1.370   .     A
C549   N585    1.374   .     A
C549   O590    1.382   .     S
C549   C30     1.440   1_565 S
C550   F557    1.354   .     S
C550   C691    1.379   1_455 S
Cu551  Cu552   2.695   .     S
Cu551  O596    1.974   .     S
Cu551  O587    1.974   .     S
Cu551  O598    1.956   .     S
Cu551  O600    1.956   .     S
Cu551  N585    2.025   .     S
Cu552  O599    1.956   .     S
Cu552  N586    2.025   .     S
Cu552  O595    1.974   .     S
Cu552  O597    1.974   .     S
Cu552  O601    1.956   .     S
H565   C1315   1.110   .     S
H568   C1316   1.110   1_554 S
H571   C1317   1.110   1_554 S
H575   C1318   1.110   .     S
C603   O673    1.295   .     A
C603   O683    1.302   .     A
C603   C621    1.459   .     S
C604   C620    1.408   .     A
C604   F644    1.359   .     S
C604   C692    1.386   .     S
C605   F645    1.354   .     S
C605   C620    1.401   .     A
C605   C722    1.379   .     S
C606   C621    1.408   .     A
C606   F646    1.359   .     S
C607   O677    1.384   .     S
C607   C611    1.395   .     A
C607   C618    1.409   .     A
C608   C619    1.408   .     A
C608   C612    1.393   .     A
C608   O678    1.384   .     S
C609   C613    1.395   .     A
C609   C619    1.409   .     A
C609   O679    1.384   .     S
C610   C615    1.393   .     A
C610   C618    1.408   .     A
C610   O680    1.384   .     S
C611   C616    1.402   .     A
C611   F639    1.357   .     S
C612   C617    1.404   .     A
C612   F640    1.356   .     S
C613   C617    1.402   .     A
C613   F641    1.357   .     S
C614   O681    1.302   .     A
C614   O682    1.295   .     A
C614   C620    1.459   .     S
C615   C616    1.404   .     A
C615   F642    1.356   .     S
C616   C625    1.464   .     S
C617   C631    1.464   .     S
C618   C1393   1.463   1_554 S
C619   C1392   1.463   .     S
C621   C636    1.401   .     A
C622   H658    1.115   .     S
C622   O688    1.416   .     S
C622   H647    1.108   .     S
C622   H664    1.107   .     S
C623   H666    1.113   .     S
C623   O674    1.416   .     S
C623   H667    1.108   .     S
C623   H665    1.108   .     S
C624   H668    1.108   .     S
C624   H670    1.107   .     S
C624   H669    1.114   .     S
C624   O675    1.415   .     S
C625   O684    1.303   .     A
C625   O687    1.296   .     A
C626   H650    1.108   .     S
C626   H649    1.113   .     S
C626   H648    1.108   .     S
C626   O676    1.416   .     S
C627   H652    1.115   .     S
C627   O677    1.409   .     S
C627   H653    1.109   .     S
C627   H1425   1.110   1_554 S
C628   O678    1.409   .     S
C628   H656    1.109   .     S
C628   H655    1.115   .     S
C628   H1428   1.110   .     S
C629   H659    1.115   .     S
C629   H660    1.109   .     S
C629   O679    1.409   .     S
C629   H1431   1.110   .     S
C630   O680    1.409   .     S
C630   H663    1.109   .     S
C630   H662    1.115   .     S
C630   H1435   1.110   1_554 S
C631   O685    1.296   .     A
C631   O686    1.303   .     A
C632   O688    1.388   .     S
C632   N672    1.370   .     A
C633   O674    1.382   .     S
C633   N671    1.374   .     A
C633   C118    1.440   1_565 S
C634   O675    1.388   .     S
C634   N672    1.370   .     A
C635   N671    1.374   .     A
C635   O676    1.382   .     S
C635   C116    1.440   1_565 S
C636   F643    1.354   .     S
Cu637  Cu638   2.695   .     S
Cu637  O682    1.974   .     S
Cu637  O673    1.974   .     S
Cu637  O684    1.956   .     S
Cu637  O686    1.956   .     S
Cu637  N671    2.025   .     S
Cu638  O685    1.956   .     S
Cu638  N672    2.025   .     S
Cu638  O681    1.974   .     S
Cu638  O683    1.974   .     S
Cu638  O687    1.956   .     S
H651   C1401   1.110   .     S
H654   C1402   1.110   1_554 S
H657   C1403   1.110   1_554 S
H661   C1404   1.110   .     S
C689   O759    1.295   .     A
C689   O769    1.302   .     A
C689   C707    1.459   .     S
C690   C706    1.408   .     A
C690   F730    1.359   .     S
C690   C520    1.386   1_655 S
C691   F731    1.354   .     S
C691   C706    1.401   .     A
C691   C550    1.379   1_655 S
C692   C707    1.408   .     A
C692   F732    1.359   .     S
C693   O763    1.384   .     S
C693   C697    1.395   .     A
C693   C704    1.409   .     A
C694   C705    1.408   .     A
C694   C698    1.393   .     A
C694   O764    1.384   .     S
C695   C699    1.395   .     A
C695   C705    1.409   .     A
C695   O765    1.384   .     S
C696   C701    1.393   .     A
C696   C704    1.408   .     A
C696   O766    1.384   .     S
C697   C702    1.402   .     A
C697   F725    1.357   .     S
C698   C703    1.404   .     A
C698   F726    1.356   .     S
C699   C703    1.402   .     A
C699   F727    1.357   .     S
C700   O767    1.302   .     A
C700   O768    1.295   .     A
C700   C706    1.459   .     S
C701   C702    1.404   .     A
C701   F728    1.356   .     S
C702   C711    1.464   .     S
C703   C717    1.464   .     S
C704   C1479   1.463   1_554 S
C705   C1478   1.463   .     S
C707   C722    1.401   .     A
C708   H744    1.115   .     S
C708   O774    1.416   .     S
C708   H733    1.108   .     S
C708   H750    1.107   .     S
C709   H752    1.113   .     S
C709   O760    1.416   .     S
C709   H753    1.108   .     S
C709   H751    1.108   .     S
C710   H754    1.108   .     S
C710   H756    1.107   .     S
C710   H755    1.114   .     S
C710   O761    1.415   .     S
C711   O770    1.303   .     A
C711   O773    1.296   .     A
C712   H736    1.108   .     S
C712   H735    1.113   .     S
C712   H734    1.108   .     S
C712   O762    1.416   .     S
C713   H738    1.115   .     S
C713   O763    1.409   .     S
C713   H739    1.109   .     S
C713   H1511   1.110   1_554 S
C714   O764    1.409   .     S
C714   H742    1.109   .     S
C714   H741    1.115   .     S
C714   H1514   1.110   .     S
C715   H745    1.115   .     S
C715   H746    1.109   .     S
C715   O765    1.409   .     S
C715   H1517   1.110   .     S
C716   O766    1.409   .     S
C716   H749    1.109   .     S
C716   H748    1.115   .     S
C716   H1521   1.110   1_554 S
C717   O771    1.296   .     A
C717   O772    1.303   .     A
C718   O774    1.388   .     S
C718   N758    1.370   .     A
C719   O760    1.382   .     S
C719   N757    1.374   .     A
C719   C204    1.440   1_565 S
C720   O761    1.388   .     S
C720   N758    1.370   .     A
C721   N757    1.374   .     A
C721   O762    1.382   .     S
C721   C202    1.440   1_565 S
C722   F729    1.354   .     S
Cu723  Cu724   2.695   .     S
Cu723  O768    1.974   .     S
Cu723  O759    1.974   .     S
Cu723  O770    1.956   .     S
Cu723  O772    1.956   .     S
Cu723  N757    2.025   .     S
Cu724  O771    1.956   .     S
Cu724  N758    2.025   .     S
Cu724  O767    1.974   .     S
Cu724  O769    1.974   .     S
Cu724  O773    1.956   .     S
H737   C1487   1.110   .     S
H740   C1488   1.110   1_554 S
H743   C1489   1.110   1_554 S
H747   C1490   1.110   .     S
C775   O845    1.295   .     A
C775   O855    1.302   .     A
C775   C793    1.459   .     S
C776   C792    1.408   .     A
C776   F816    1.359   .     S
C776   C864    1.386   .     S
C777   F817    1.354   .     S
C777   C792    1.401   .     A
C777   C894    1.379   .     S
C778   C793    1.408   .     A
C778   F818    1.359   .     S
C778   C948    1.386   1_455 S
C779   O849    1.384   .     S
C779   C783    1.395   .     A
C779   C790    1.409   .     A
C780   C791    1.408   .     A
C780   C784    1.393   .     A
C780   O850    1.384   .     S
C781   C785    1.395   .     A
C781   C791    1.409   .     A
C781   O851    1.384   .     S
C782   C787    1.393   .     A
C782   C790    1.408   .     A
C782   O852    1.384   .     S
C783   C788    1.402   .     A
C783   F811    1.357   .     S
C784   C789    1.404   .     A
C784   F812    1.356   .     S
C785   C789    1.402   .     A
C785   F813    1.357   .     S
C786   O853    1.302   .     A
C786   O854    1.295   .     A
C786   C792    1.459   .     S
C787   C788    1.404   .     A
C787   F814    1.356   .     S
C788   C797    1.464   .     S
C789   C803    1.464   .     S
C791   C16     1.463   1_556 S
C793   C808    1.401   .     A
C794   H830    1.115   .     S
C794   O860    1.416   .     S
C794   H819    1.108   .     S
C794   H836    1.107   .     S
C795   H838    1.113   .     S
C795   O846    1.416   .     S
C795   H839    1.108   .     S
C795   H837    1.108   .     S
C796   H840    1.108   .     S
C796   H842    1.107   .     S
C796   H841    1.114   .     S
C796   O847    1.415   .     S
C797   O856    1.303   .     A
C797   O859    1.296   .     A
C798   H822    1.108   .     S
C798   H821    1.113   .     S
C798   H820    1.108   .     S
C798   O848    1.416   .     S
C799   H824    1.115   .     S
C799   O849    1.409   .     S
C799   H825    1.109   .     S
C800   O850    1.409   .     S
C800   H828    1.109   .     S
C800   H827    1.115   .     S
C800   H52     1.110   1_556 S
C801   H831    1.115   .     S
C801   H832    1.109   .     S
C801   O851    1.409   .     S
C801   H55     1.110   1_556 S
C802   O852    1.409   .     S
C802   H835    1.109   .     S
C802   H834    1.115   .     S
C803   O857    1.296   .     A
C803   O858    1.303   .     A
C804   O860    1.388   .     S
C804   N844    1.370   .     A
C804   C1323   1.440   1_545 S
C805   O846    1.382   .     S
C805   N843    1.374   .     A
C805   C1064   1.440   .     S
C806   O847    1.388   .     S
C806   N844    1.370   .     A
C806   C1321   1.440   1_545 S
C807   N843    1.374   .     A
C807   O848    1.382   .     S
C807   C1062   1.440   .     S
C808   F815    1.354   .     S
C808   C949    1.379   1_455 S
Cu809  Cu810   2.695   .     S
Cu809  O854    1.974   .     S
Cu809  O845    1.974   .     S
Cu809  O856    1.956   .     S
Cu809  O858    1.956   .     S
Cu809  N843    2.025   .     S
Cu810  O857    1.956   .     S
Cu810  N844    2.025   .     S
Cu810  O853    1.974   .     S
Cu810  O855    1.974   .     S
Cu810  O859    1.956   .     S
H823   C25     1.110   1_556 S
H833   C28     1.110   1_556 S
C861   O931    1.295   .     A
C861   O941    1.302   .     A
C861   C879    1.459   .     S
C862   C878    1.408   .     A
C862   F902    1.359   .     S
C862   C950    1.386   .     S
C863   F903    1.354   .     S
C863   C878    1.401   .     A
C863   C980    1.379   .     S
C864   C879    1.408   .     A
C864   F904    1.359   .     S
C865   O935    1.384   .     S
C865   C869    1.395   .     A
C865   C876    1.409   .     A
C866   C877    1.408   .     A
C866   C870    1.393   .     A
C866   O936    1.384   .     S
C867   C871    1.395   .     A
C867   C877    1.409   .     A
C867   O937    1.384   .     S
C868   C873    1.393   .     A
C868   C876    1.408   .     A
C868   O938    1.384   .     S
C869   C874    1.402   .     A
C869   F897    1.357   .     S
C870   C875    1.404   .     A
C870   F898    1.356   .     S
C871   C875    1.402   .     A
C871   F899    1.357   .     S
C872   O939    1.302   .     A
C872   O940    1.295   .     A
C872   C878    1.459   .     S
C873   C874    1.404   .     A
C873   F900    1.356   .     S
C874   C883    1.464   .     S
C875   C889    1.464   .     S
C877   C102    1.463   1_556 S
C879   C894    1.401   .     A
C880   H916    1.115   .     S
C880   O946    1.416   .     S
C880   H905    1.108   .     S
C880   H922    1.107   .     S
C881   H924    1.113   .     S
C881   O932    1.416   .     S
C881   H925    1.108   .     S
C881   H923    1.108   .     S
C882   H926    1.108   .     S
C882   H928    1.107   .     S
C882   H927    1.114   .     S
C882   O933    1.415   .     S
C883   O942    1.303   .     A
C883   O945    1.296   .     A
C884   H908    1.108   .     S
C884   H907    1.113   .     S
C884   H906    1.108   .     S
C884   O934    1.416   .     S
C885   H910    1.115   .     S
C885   O935    1.409   .     S
C885   H911    1.109   .     S
C886   O936    1.409   .     S
C886   H914    1.109   .     S
C886   H913    1.115   .     S
C886   H138    1.110   1_556 S
C887   H917    1.115   .     S
C887   H918    1.109   .     S
C887   O937    1.409   .     S
C887   H141    1.110   1_556 S
C888   O938    1.409   .     S
C888   H921    1.109   .     S
C888   H920    1.115   .     S
C889   O943    1.296   .     A
C889   O944    1.303   .     A
C890   O946    1.388   .     S
C890   N930    1.370   .     A
C890   C1409   1.440   1_545 S
C891   O932    1.382   .     S
C891   N929    1.374   .     A
C891   C1150   1.440   .     S
C892   O933    1.388   .     S
C892   N930    1.370   .     A
C892   C1407   1.440   1_545 S
C893   N929    1.374   .     A
C893   O934    1.382   .     S
C893   C1148   1.440   .     S
C894   F901    1.354   .     S
Cu895  Cu896   2.695   .     S
Cu895  O940    1.974   .     S
Cu895  O931    1.974   .     S
Cu895  O942    1.956   .     S
Cu895  O944    1.956   .     S
Cu895  N929    2.025   .     S
Cu896  O943    1.956   .     S
Cu896  N930    2.025   .     S
Cu896  O939    1.974   .     S
Cu896  O941    1.974   .     S
Cu896  O945    1.956   .     S
H909   C111    1.110   1_556 S
H919   C114    1.110   1_556 S
C947   O1017   1.295   .     A
C947   O1027   1.302   .     A
C947   C965    1.459   .     S
C948   C964    1.408   .     A
C948   F988    1.359   .     S
C948   C778    1.386   1_655 S
C949   F989    1.354   .     S
C949   C964    1.401   .     A
C949   C808    1.379   1_655 S
C950   C965    1.408   .     A
C950   F990    1.359   .     S
C951   O1021   1.384   .     S
C951   C955    1.395   .     A
C951   C962    1.409   .     A
C952   C963    1.408   .     A
C952   C956    1.393   .     A
C952   O1022   1.384   .     S
C953   C957    1.395   .     A
C953   C963    1.409   .     A
C953   O1023   1.384   .     S
C954   C959    1.393   .     A
C954   C962    1.408   .     A
C954   O1024   1.384   .     S
C955   C960    1.402   .     A
C955   F983    1.357   .     S
C956   C961    1.404   .     A
C956   F984    1.356   .     S
C957   C961    1.402   .     A
C957   F985    1.357   .     S
C958   O1025   1.302   .     A
C958   O1026   1.295   .     A
C958   C964    1.459   .     S
C959   C960    1.404   .     A
C959   F986    1.356   .     S
C960   C969    1.464   .     S
C961   C975    1.464   .     S
C963   C188    1.463   1_556 S
C965   C980    1.401   .     A
C966   H1002   1.115   .     S
C966   O1032   1.416   .     S
C966   H991    1.108   .     S
C966   H1008   1.107   .     S
C967   H1010   1.113   .     S
C967   O1018   1.416   .     S
C967   H1011   1.108   .     S
C967   H1009   1.108   .     S
C968   H1012   1.108   .     S
C968   H1014   1.107   .     S
C968   H1013   1.114   .     S
C968   O1019   1.415   .     S
C969   O1028   1.303   .     A
C969   O1031   1.296   .     A
C970   H994    1.108   .     S
C970   H993    1.113   .     S
C970   H992    1.108   .     S
C970   O1020   1.416   .     S
C971   H996    1.115   .     S
C971   O1021   1.409   .     S
C971   H997    1.109   .     S
C972   O1022   1.409   .     S
C972   H1000   1.109   .     S
C972   H999    1.115   .     S
C972   H224    1.110   1_556 S
C973   H1003   1.115   .     S
C973   H1004   1.109   .     S
C973   O1023   1.409   .     S
C973   H227    1.110   1_556 S
C974   O1024   1.409   .     S
C974   H1007   1.109   .     S
C974   H1006   1.115   .     S
C975   O1029   1.296   .     A
C975   O1030   1.303   .     A
C976   O1032   1.388   .     S
C976   N1016   1.370   .     A
C976   C1495   1.440   1_545 S
C977   O1018   1.382   .     S
C977   N1015   1.374   .     A
C977   C1236   1.440   .     S
C978   O1019   1.388   .     S
C978   N1016   1.370   .     A
C978   C1493   1.440   1_545 S
C979   N1015   1.374   .     A
C979   O1020   1.382   .     S
C979   C1234   1.440   .     S
C980   F987    1.354   .     S
Cu981  Cu982   2.695   .     S
Cu981  O1026   1.974   .     S
Cu981  O1017   1.974   .     S
Cu981  O1028   1.956   .     S
Cu981  O1030   1.956   .     S
Cu981  N1015   2.025   .     S
Cu982  O1029   1.956   .     S
Cu982  N1016   2.025   .     S
Cu982  O1025   1.974   .     S
Cu982  O1027   1.974   .     S
Cu982  O1031   1.956   .     S
H995   C197    1.110   1_556 S
H1005  C200    1.110   1_556 S
C1033  O1103   1.295   .     A
C1033  O1113   1.302   .     A
C1033  C1051   1.459   .     S
C1034  C1050   1.408   .     A
C1034  F1074   1.359   .     S
C1034  C1122   1.386   .     S
C1035  F1075   1.354   .     S
C1035  C1050   1.401   .     A
C1035  C1152   1.379   .     S
C1036  C1051   1.408   .     A
C1036  F1076   1.359   .     S
C1036  C1206   1.386   1_455 S
C1037  O1107   1.384   .     S
C1037  C1041   1.395   .     A
C1037  C1048   1.409   .     A
C1038  C1049   1.408   .     A
C1038  C1042   1.393   .     A
C1038  O1108   1.384   .     S
C1039  C1043   1.395   .     A
C1039  C1049   1.409   .     A
C1039  O1109   1.384   .     S
C1040  C1045   1.393   .     A
C1040  C1048   1.408   .     A
C1040  O1110   1.384   .     S
C1041  C1046   1.402   .     A
C1041  F1069   1.357   .     S
C1042  C1047   1.404   .     A
C1042  F1070   1.356   .     S
C1043  C1047   1.402   .     A
C1043  F1071   1.357   .     S
C1044  O1111   1.302   .     A
C1044  O1112   1.295   .     A
C1044  C1050   1.459   .     S
C1045  C1046   1.404   .     A
C1045  F1072   1.356   .     S
C1046  C1055   1.464   .     S
C1047  C1061   1.464   .     S
C1049  C274    1.463   1_556 S
C1051  C1066   1.401   .     A
C1052  H1088   1.115   .     S
C1052  O1118   1.416   .     S
C1052  H1077   1.108   .     S
C1052  H1094   1.107   .     S
C1053  H1096   1.113   .     S
C1053  O1104   1.416   .     S
C1053  H1097   1.108   .     S
C1053  H1095   1.108   .     S
C1054  H1098   1.108   .     S
C1054  H1100   1.107   .     S
C1054  H1099   1.114   .     S
C1054  O1105   1.415   .     S
C1055  O1114   1.303   .     A
C1055  O1117   1.296   .     A
C1056  H1080   1.108   .     S
C1056  H1079   1.113   .     S
C1056  H1078   1.108   .     S
C1056  O1106   1.416   .     S
C1057  H1082   1.115   .     S
C1057  O1107   1.409   .     S
C1057  H1083   1.109   .     S
C1058  O1108   1.409   .     S
C1058  H1086   1.109   .     S
C1058  H1085   1.115   .     S
C1058  H310    1.110   1_556 S
C1059  H1089   1.115   .     S
C1059  H1090   1.109   .     S
C1059  O1109   1.409   .     S
C1059  H313    1.110   1_556 S
C1060  O1110   1.409   .     S
C1060  H1093   1.109   .     S
C1060  H1092   1.115   .     S
C1061  O1115   1.296   .     A
C1061  O1116   1.303   .     A
C1062  O1118   1.388   .     S
C1062  N1102   1.370   .     A
C1063  O1104   1.382   .     S
C1063  N1101   1.374   .     A
C1063  C1322   1.440   .     S
C1064  O1105   1.388   .     S
C1064  N1102   1.370   .     A
C1065  N1101   1.374   .     A
C1065  O1106   1.382   .     S
C1065  C1320   1.440   .     S
C1066  F1073   1.354   .     S
C1066  C1207   1.379   1_455 S
Cu1067 Cu1068  2.695   .     S
Cu1067 O1112   1.974   .     S
Cu1067 O1103   1.974   .     S
Cu1067 O1114   1.956   .     S
Cu1067 O1116   1.956   .     S
Cu1067 N1101   2.025   .     S
Cu1068 O1115   1.956   .     S
Cu1068 N1102   2.025   .     S
Cu1068 O1111   1.974   .     S
Cu1068 O1113   1.974   .     S
Cu1068 O1117   1.956   .     S
H1081  C283    1.110   1_556 S
H1091  C286    1.110   1_556 S
C1119  O1189   1.295   .     A
C1119  O1199   1.302   .     A
C1119  C1137   1.459   .     S
C1120  C1136   1.408   .     A
C1120  F1160   1.359   .     S
C1120  C1208   1.386   .     S
C1121  F1161   1.354   .     S
C1121  C1136   1.401   .     A
C1121  C1238   1.379   .     S
C1122  C1137   1.408   .     A
C1122  F1162   1.359   .     S
C1123  O1193   1.384   .     S
C1123  C1127   1.395   .     A
C1123  C1134   1.409   .     A
C1124  C1135   1.408   .     A
C1124  C1128   1.393   .     A
C1124  O1194   1.384   .     S
C1125  C1129   1.395   .     A
C1125  C1135   1.409   .     A
C1125  O1195   1.384   .     S
C1126  C1131   1.393   .     A
C1126  C1134   1.408   .     A
C1126  O1196   1.384   .     S
C1127  C1132   1.402   .     A
C1127  F1155   1.357   .     S
C1128  C1133   1.404   .     A
C1128  F1156   1.356   .     S
C1129  C1133   1.402   .     A
C1129  F1157   1.357   .     S
C1130  O1197   1.302   .     A
C1130  O1198   1.295   .     A
C1130  C1136   1.459   .     S
C1131  C1132   1.404   .     A
C1131  F1158   1.356   .     S
C1132  C1141   1.464   .     S
C1133  C1147   1.464   .     S
C1135  C360    1.463   1_556 S
C1137  C1152   1.401   .     A
C1138  H1174   1.115   .     S
C1138  O1204   1.416   .     S
C1138  H1163   1.108   .     S
C1138  H1180   1.107   .     S
C1139  H1182   1.113   .     S
C1139  O1190   1.416   .     S
C1139  H1183   1.108   .     S
C1139  H1181   1.108   .     S
C1140  H1184   1.108   .     S
C1140  H1186   1.107   .     S
C1140  H1185   1.114   .     S
C1140  O1191   1.415   .     S
C1141  O1200   1.303   .     A
C1141  O1203   1.296   .     A
C1142  H1166   1.108   .     S
C1142  H1165   1.113   .     S
C1142  H1164   1.108   .     S
C1142  O1192   1.416   .     S
C1143  H1168   1.115   .     S
C1143  O1193   1.409   .     S
C1143  H1169   1.109   .     S
C1144  O1194   1.409   .     S
C1144  H1172   1.109   .     S
C1144  H1171   1.115   .     S
C1144  H396    1.110   1_556 S
C1145  H1175   1.115   .     S
C1145  H1176   1.109   .     S
C1145  O1195   1.409   .     S
C1145  H399    1.110   1_556 S
C1146  O1196   1.409   .     S
C1146  H1179   1.109   .     S
C1146  H1178   1.115   .     S
C1147  O1201   1.296   .     A
C1147  O1202   1.303   .     A
C1148  O1204   1.388   .     S
C1148  N1188   1.370   .     A
C1149  O1190   1.382   .     S
C1149  N1187   1.374   .     A
C1149  C1408   1.440   .     S
C1150  O1191   1.388   .     S
C1150  N1188   1.370   .     A
C1151  N1187   1.374   .     A
C1151  O1192   1.382   .     S
C1151  C1406   1.440   .     S
C1152  F1159   1.354   .     S
Cu1153 Cu1154  2.695   .     S
Cu1153 O1198   1.974   .     S
Cu1153 O1189   1.974   .     S
Cu1153 O1200   1.956   .     S
Cu1153 O1202   1.956   .     S
Cu1153 N1187   2.025   .     S
Cu1154 O1201   1.956   .     S
Cu1154 N1188   2.025   .     S
Cu1154 O1197   1.974   .     S
Cu1154 O1199   1.974   .     S
Cu1154 O1203   1.956   .     S
H1167  C369    1.110   1_556 S
H1177  C372    1.110   1_556 S
C1205  O1275   1.295   .     A
C1205  O1285   1.302   .     A
C1205  C1223   1.459   .     S
C1206  C1222   1.408   .     A
C1206  F1246   1.359   .     S
C1206  C1036   1.386   1_655 S
C1207  F1247   1.354   .     S
C1207  C1222   1.401   .     A
C1207  C1066   1.379   1_655 S
C1208  C1223   1.408   .     A
C1208  F1248   1.359   .     S
C1209  O1279   1.384   .     S
C1209  C1213   1.395   .     A
C1209  C1220   1.409   .     A
C1210  C1221   1.408   .     A
C1210  C1214   1.393   .     A
C1210  O1280   1.384   .     S
C1211  C1215   1.395   .     A
C1211  C1221   1.409   .     A
C1211  O1281   1.384   .     S
C1212  C1217   1.393   .     A
C1212  C1220   1.408   .     A
C1212  O1282   1.384   .     S
C1213  C1218   1.402   .     A
C1213  F1241   1.357   .     S
C1214  C1219   1.404   .     A
C1214  F1242   1.356   .     S
C1215  C1219   1.402   .     A
C1215  F1243   1.357   .     S
C1216  O1283   1.302   .     A
C1216  O1284   1.295   .     A
C1216  C1222   1.459   .     S
C1217  C1218   1.404   .     A
C1217  F1244   1.356   .     S
C1218  C1227   1.464   .     S
C1219  C1233   1.464   .     S
C1221  C446    1.463   1_556 S
C1223  C1238   1.401   .     A
C1224  H1260   1.115   .     S
C1224  O1290   1.416   .     S
C1224  H1249   1.108   .     S
C1224  H1266   1.107   .     S
C1225  H1268   1.113   .     S
C1225  O1276   1.416   .     S
C1225  H1269   1.108   .     S
C1225  H1267   1.108   .     S
C1226  H1270   1.108   .     S
C1226  H1272   1.107   .     S
C1226  H1271   1.114   .     S
C1226  O1277   1.415   .     S
C1227  O1286   1.303   .     A
C1227  O1289   1.296   .     A
C1228  H1252   1.108   .     S
C1228  H1251   1.113   .     S
C1228  H1250   1.108   .     S
C1228  O1278   1.416   .     S
C1229  H1254   1.115   .     S
C1229  O1279   1.409   .     S
C1229  H1255   1.109   .     S
C1230  O1280   1.409   .     S
C1230  H1258   1.109   .     S
C1230  H1257   1.115   .     S
C1230  H482    1.110   1_556 S
C1231  H1261   1.115   .     S
C1231  H1262   1.109   .     S
C1231  O1281   1.409   .     S
C1231  H485    1.110   1_556 S
C1232  O1282   1.409   .     S
C1232  H1265   1.109   .     S
C1232  H1264   1.115   .     S
C1233  O1287   1.296   .     A
C1233  O1288   1.303   .     A
C1234  O1290   1.388   .     S
C1234  N1274   1.370   .     A
C1235  O1276   1.382   .     S
C1235  N1273   1.374   .     A
C1235  C1494   1.440   .     S
C1236  O1277   1.388   .     S
C1236  N1274   1.370   .     A
C1237  N1273   1.374   .     A
C1237  O1278   1.382   .     S
C1237  C1492   1.440   .     S
C1238  F1245   1.354   .     S
Cu1239 Cu1240  2.695   .     S
Cu1239 O1284   1.974   .     S
Cu1239 O1275   1.974   .     S
Cu1239 O1286   1.956   .     S
Cu1239 O1288   1.956   .     S
Cu1239 N1273   2.025   .     S
Cu1240 O1287   1.956   .     S
Cu1240 N1274   2.025   .     S
Cu1240 O1283   1.974   .     S
Cu1240 O1285   1.974   .     S
Cu1240 O1289   1.956   .     S
H1253  C455    1.110   1_556 S
H1263  C458    1.110   1_556 S
C1291  O1361   1.295   .     A
C1291  O1371   1.302   .     A
C1291  C1309   1.459   .     S
C1292  C1308   1.408   .     A
C1292  F1332   1.359   .     S
C1292  C1380   1.386   .     S
C1293  F1333   1.354   .     S
C1293  C1308   1.401   .     A
C1293  C1410   1.379   .     S
C1294  C1309   1.408   .     A
C1294  F1334   1.359   .     S
C1294  C1464   1.386   1_455 S
C1295  O1365   1.384   .     S
C1295  C1299   1.395   .     A
C1295  C1306   1.409   .     A
C1296  C1307   1.408   .     A
C1296  C1300   1.393   .     A
C1296  O1366   1.384   .     S
C1297  C1301   1.395   .     A
C1297  C1307   1.409   .     A
C1297  O1367   1.384   .     S
C1298  C1303   1.393   .     A
C1298  C1306   1.408   .     A
C1298  O1368   1.384   .     S
C1299  C1304   1.402   .     A
C1299  F1327   1.357   .     S
C1300  C1305   1.404   .     A
C1300  F1328   1.356   .     S
C1301  C1305   1.402   .     A
C1301  F1329   1.357   .     S
C1302  O1369   1.302   .     A
C1302  O1370   1.295   .     A
C1302  C1308   1.459   .     S
C1303  C1304   1.404   .     A
C1303  F1330   1.356   .     S
C1304  C1313   1.464   .     S
C1305  C1319   1.464   .     S
C1307  C532    1.463   1_556 S
C1309  C1324   1.401   .     A
C1310  H1346   1.115   .     S
C1310  O1376   1.416   .     S
C1310  H1335   1.108   .     S
C1310  H1352   1.107   .     S
C1311  H1354   1.113   .     S
C1311  O1362   1.416   .     S
C1311  H1355   1.108   .     S
C1311  H1353   1.108   .     S
C1312  H1356   1.108   .     S
C1312  H1358   1.107   .     S
C1312  H1357   1.114   .     S
C1312  O1363   1.415   .     S
C1313  O1372   1.303   .     A
C1313  O1375   1.296   .     A
C1314  H1338   1.108   .     S
C1314  H1337   1.113   .     S
C1314  H1336   1.108   .     S
C1314  O1364   1.416   .     S
C1315  H1340   1.115   .     S
C1315  O1365   1.409   .     S
C1315  H1341   1.109   .     S
C1316  O1366   1.409   .     S
C1316  H1344   1.109   .     S
C1316  H1343   1.115   .     S
C1316  H568    1.110   1_556 S
C1317  H1347   1.115   .     S
C1317  H1348   1.109   .     S
C1317  O1367   1.409   .     S
C1317  H571    1.110   1_556 S
C1318  O1368   1.409   .     S
C1318  H1351   1.109   .     S
C1318  H1350   1.115   .     S
C1319  O1373   1.296   .     A
C1319  O1374   1.303   .     A
C1320  O1376   1.388   .     S
C1320  N1360   1.370   .     A
C1321  O1362   1.382   .     S
C1321  N1359   1.374   .     A
C1321  C806    1.440   1_565 S
C1322  O1363   1.388   .     S
C1322  N1360   1.370   .     A
C1323  N1359   1.374   .     A
C1323  O1364   1.382   .     S
C1323  C804    1.440   1_565 S
C1324  F1331   1.354   .     S
C1324  C1465   1.379   1_455 S
Cu1325 Cu1326  2.695   .     S
Cu1325 O1370   1.974   .     S
Cu1325 O1361   1.974   .     S
Cu1325 O1372   1.956   .     S
Cu1325 O1374   1.956   .     S
Cu1325 N1359   2.025   .     S
Cu1326 O1373   1.956   .     S
Cu1326 N1360   2.025   .     S
Cu1326 O1369   1.974   .     S
Cu1326 O1371   1.974   .     S
Cu1326 O1375   1.956   .     S
H1339  C541    1.110   1_556 S
H1349  C544    1.110   1_556 S
C1377  O1447   1.295   .     A
C1377  O1457   1.302   .     A
C1377  C1395   1.459   .     S
C1378  C1394   1.408   .     A
C1378  F1418   1.359   .     S
C1378  C1466   1.386   .     S
C1379  F1419   1.354   .     S
C1379  C1394   1.401   .     A
C1379  C1496   1.379   .     S
C1380  C1395   1.408   .     A
C1380  F1420   1.359   .     S
C1381  O1451   1.384   .     S
C1381  C1385   1.395   .     A
C1381  C1392   1.409   .     A
C1382  C1393   1.408   .     A
C1382  C1386   1.393   .     A
C1382  O1452   1.384   .     S
C1383  C1387   1.395   .     A
C1383  C1393   1.409   .     A
C1383  O1453   1.384   .     S
C1384  C1389   1.393   .     A
C1384  C1392   1.408   .     A
C1384  O1454   1.384   .     S
C1385  C1390   1.402   .     A
C1385  F1413   1.357   .     S
C1386  C1391   1.404   .     A
C1386  F1414   1.356   .     S
C1387  C1391   1.402   .     A
C1387  F1415   1.357   .     S
C1388  O1455   1.302   .     A
C1388  O1456   1.295   .     A
C1388  C1394   1.459   .     S
C1389  C1390   1.404   .     A
C1389  F1416   1.356   .     S
C1390  C1399   1.464   .     S
C1391  C1405   1.464   .     S
C1393  C618    1.463   1_556 S
C1395  C1410   1.401   .     A
C1396  H1432   1.115   .     S
C1396  O1462   1.416   .     S
C1396  H1421   1.108   .     S
C1396  H1438   1.107   .     S
C1397  H1440   1.113   .     S
C1397  O1448   1.416   .     S
C1397  H1441   1.108   .     S
C1397  H1439   1.108   .     S
C1398  H1442   1.108   .     S
C1398  H1444   1.107   .     S
C1398  H1443   1.114   .     S
C1398  O1449   1.415   .     S
C1399  O1458   1.303   .     A
C1399  O1461   1.296   .     A
C1400  H1424   1.108   .     S
C1400  H1423   1.113   .     S
C1400  H1422   1.108   .     S
C1400  O1450   1.416   .     S
C1401  H1426   1.115   .     S
C1401  O1451   1.409   .     S
C1401  H1427   1.109   .     S
C1402  O1452   1.409   .     S
C1402  H1430   1.109   .     S
C1402  H1429   1.115   .     S
C1402  H654    1.110   1_556 S
C1403  H1433   1.115   .     S
C1403  H1434   1.109   .     S
C1403  O1453   1.409   .     S
C1403  H657    1.110   1_556 S
C1404  O1454   1.409   .     S
C1404  H1437   1.109   .     S
C1404  H1436   1.115   .     S
C1405  O1459   1.296   .     A
C1405  O1460   1.303   .     A
C1406  O1462   1.388   .     S
C1406  N1446   1.370   .     A
C1407  O1448   1.382   .     S
C1407  N1445   1.374   .     A
C1407  C892    1.440   1_565 S
C1408  O1449   1.388   .     S
C1408  N1446   1.370   .     A
C1409  N1445   1.374   .     A
C1409  O1450   1.382   .     S
C1409  C890    1.440   1_565 S
C1410  F1417   1.354   .     S
Cu1411 Cu1412  2.695   .     S
Cu1411 O1456   1.974   .     S
Cu1411 O1447   1.974   .     S
Cu1411 O1458   1.956   .     S
Cu1411 O1460   1.956   .     S
Cu1411 N1445   2.025   .     S
Cu1412 O1459   1.956   .     S
Cu1412 N1446   2.025   .     S
Cu1412 O1455   1.974   .     S
Cu1412 O1457   1.974   .     S
Cu1412 O1461   1.956   .     S
H1425  C627    1.110   1_556 S
H1435  C630    1.110   1_556 S
C1463  O1533   1.295   .     A
C1463  O1543   1.302   .     A
C1463  C1481   1.459   .     S
C1464  C1480   1.408   .     A
C1464  F1504   1.359   .     S
C1464  C1294   1.386   1_655 S
C1465  F1505   1.354   .     S
C1465  C1480   1.401   .     A
C1465  C1324   1.379   1_655 S
C1466  C1481   1.408   .     A
C1466  F1506   1.359   .     S
C1467  O1537   1.384   .     S
C1467  C1471   1.395   .     A
C1467  C1478   1.409   .     A
C1468  C1479   1.408   .     A
C1468  C1472   1.393   .     A
C1468  O1538   1.384   .     S
C1469  C1473   1.395   .     A
C1469  C1479   1.409   .     A
C1469  O1539   1.384   .     S
C1470  C1475   1.393   .     A
C1470  C1478   1.408   .     A
C1470  O1540   1.384   .     S
C1471  C1476   1.402   .     A
C1471  F1499   1.357   .     S
C1472  C1477   1.404   .     A
C1472  F1500   1.356   .     S
C1473  C1477   1.402   .     A
C1473  F1501   1.357   .     S
C1474  O1541   1.302   .     A
C1474  O1542   1.295   .     A
C1474  C1480   1.459   .     S
C1475  C1476   1.404   .     A
C1475  F1502   1.356   .     S
C1476  C1485   1.464   .     S
C1477  C1491   1.464   .     S
C1479  C704    1.463   1_556 S
C1481  C1496   1.401   .     A
C1482  H1518   1.115   .     S
C1482  O1548   1.416   .     S
C1482  H1507   1.108   .     S
C1482  H1524   1.107   .     S
C1483  H1526   1.113   .     S
C1483  O1534   1.416   .     S
C1483  H1527   1.108   .     S
C1483  H1525   1.108   .     S
C1484  H1528   1.108   .     S
C1484  H1530   1.107   .     S
C1484  H1529   1.114   .     S
C1484  O1535   1.415   .     S
C1485  O1544   1.303   .     A
C1485  O1547   1.296   .     A
C1486  H1510   1.108   .     S
C1486  H1509   1.113   .     S
C1486  H1508   1.108   .     S
C1486  O1536   1.416   .     S
C1487  H1512   1.115   .     S
C1487  O1537   1.409   .     S
C1487  H1513   1.109   .     S
C1488  O1538   1.409   .     S
C1488  H1516   1.109   .     S
C1488  H1515   1.115   .     S
C1488  H740    1.110   1_556 S
C1489  H1519   1.115   .     S
C1489  H1520   1.109   .     S
C1489  O1539   1.409   .     S
C1489  H743    1.110   1_556 S
C1490  O1540   1.409   .     S
C1490  H1523   1.109   .     S
C1490  H1522   1.115   .     S
C1491  O1545   1.296   .     A
C1491  O1546   1.303   .     A
C1492  O1548   1.388   .     S
C1492  N1532   1.370   .     A
C1493  O1534   1.382   .     S
C1493  N1531   1.374   .     A
C1493  C978    1.440   1_565 S
C1494  O1535   1.388   .     S
C1494  N1532   1.370   .     A
C1495  N1531   1.374   .     A
C1495  O1536   1.382   .     S
C1495  C976    1.440   1_565 S
C1496  F1503   1.354   .     S
Cu1497 Cu1498  2.695   .     S
Cu1497 O1542   1.974   .     S
Cu1497 O1533   1.974   .     S
Cu1497 O1544   1.956   .     S
Cu1497 O1546   1.956   .     S
Cu1497 N1531   2.025   .     S
Cu1498 O1545   1.956   .     S
Cu1498 N1532   2.025   .     S
Cu1498 O1541   1.974   .     S
Cu1498 O1543   1.974   .     S
Cu1498 O1547   1.956   .     S
H1511  C713    1.110   1_556 S
H1521  C716    1.110   1_556 S
