data_str_m1_o1_o17_pcu_sym.147
_audit_creation_date              2020-01-03
_audit_creation_method            'Materials Studio'
_symmetry_space_group_name_H-M    'P1'
_symmetry_Int_Tables_number       1
_symmetry_cell_setting            triclinic
loop_
_symmetry_equiv_pos_as_xyz
  x,y,z
_cell_length_a                    36.6679
_cell_length_b                    36.6680
_cell_length_c                    34.4328
_cell_angle_alpha                 89.9997
_cell_angle_beta                  90.0002
_cell_angle_gamma                 90.0465
loop_
_atom_site_label
_atom_site_type_symbol
_atom_site_fract_x
_atom_site_fract_y
_atom_site_fract_z
_atom_site_U_iso_or_equiv
_atom_site_adp_type
_atom_site_occupancy
Zn1    Zn    0.20659   0.00000   0.21735   0.00000  Uiso   1.00
Zn2    Zn    0.29340   0.00000   0.78265   0.00000  Uiso   1.00
Zn3    Zn    0.00000   0.20659   0.21735   0.00000  Uiso   1.00
Zn4    Zn   -0.00000   0.29341   0.78265   0.00000  Uiso   1.00
Zn5    Zn    0.29340   0.00000   0.21735   0.00000  Uiso   1.00
Zn6    Zn    0.20659   0.00000   0.78265   0.00000  Uiso   1.00
Zn7    Zn    0.00000   0.29340   0.21735   0.00000  Uiso   1.00
Zn8    Zn   -0.00000   0.20660   0.78265   0.00000  Uiso   1.00
Zn9    Zn    0.45659   0.25000   0.71735   0.00000  Uiso   1.00
Zn10   Zn    0.04340   0.25000   0.28265   0.00000  Uiso   1.00
Zn11   Zn    0.25000   0.45659   0.71735   0.00000  Uiso   1.00
Zn12   Zn    0.25000   0.04341   0.28265   0.00000  Uiso   1.00
Zn13   Zn    0.04340   0.25000   0.71735   0.00000  Uiso   1.00
Zn14   Zn    0.45659   0.25000   0.28265   0.00000  Uiso   1.00
Zn15   Zn    0.25000   0.04341   0.71735   0.00000  Uiso   1.00
Zn16   Zn    0.25000   0.45659   0.28265   0.00000  Uiso   1.00
C17    C     0.01042   0.28158   0.41774   0.00000  Uiso   1.00
C18    C     0.48128   0.22246   0.58192   0.00000  Uiso   1.00
C19    C     0.22245   0.48130   0.41808   0.00000  Uiso   1.00
C20    C     0.28159   0.01039   0.58226   0.00000  Uiso   1.00
C21    C     0.48958   0.21841   0.41774   0.00000  Uiso   1.00
C22    C     0.01872   0.27754   0.58192   0.00000  Uiso   1.00
C23    C     0.27756   0.01869   0.41808   0.00000  Uiso   1.00
C24    C     0.21841   0.48960   0.58226   0.00000  Uiso   1.00
C25    C     0.26027   0.03164   0.91773   0.00000  Uiso   1.00
C26    C     0.23142   0.47236   0.08192   0.00000  Uiso   1.00
C27    C     0.47236   0.23143   0.91808   0.00000  Uiso   1.00
C28    C     0.03164   0.26025   0.08227   0.00000  Uiso   1.00
C29    C     0.23972   0.46837   0.91774   0.00000  Uiso   1.00
C30    C     0.26855   0.02765   0.08192   0.00000  Uiso   1.00
C31    C     0.02765   0.26855   0.91808   0.00000  Uiso   1.00
C32    C     0.46837   0.23974   0.08226   0.00000  Uiso   1.00
C33    C     0.00000   0.25000   0.39785   0.00000  Uiso   1.00
C34    C     0.00000   0.25000   0.60186   0.00000  Uiso   1.00
C35    C     0.25000  -0.00000   0.39814   0.00000  Uiso   1.00
C36    C     0.25000  -0.00000   0.60215   0.00000  Uiso   1.00
C37    C     0.25000   0.00000   0.89785   0.00000  Uiso   1.00
C38    C     0.24999   0.00000   0.10187   0.00000  Uiso   1.00
C39    C     0.00000   0.24999   0.89814   0.00000  Uiso   1.00
C40    C     0.00000   0.25000   0.10215   0.00000  Uiso   1.00
O41    O     0.25000   0.00000   0.25000   0.00000  Uiso   1.00
O42    O     0.25000   0.00000   0.75000   0.00000  Uiso   1.00
O43    O    -0.00000   0.25000   0.25000   0.00000  Uiso   1.00
O44    O    -0.00000   0.25000   0.75000   0.00000  Uiso   1.00
O45    O     0.25000   0.46963   0.33755   0.00000  Uiso   1.00
O46    O     0.25000   0.03037   0.66245   0.00000  Uiso   1.00
O47    O     0.03036   0.25000   0.33755   0.00000  Uiso   1.00
O48    O     0.46963   0.25000   0.66245   0.00000  Uiso   1.00
O49    O     0.25000   0.03037   0.33755   0.00000  Uiso   1.00
O50    O     0.25000   0.46963   0.66245   0.00000  Uiso   1.00
O51    O     0.46963   0.25000   0.33755   0.00000  Uiso   1.00
O52    O     0.03036   0.25000   0.66245   0.00000  Uiso   1.00
O53    O    -0.00000   0.21964   0.83755   0.00000  Uiso   1.00
O54    O    -0.00000   0.28037   0.16245   0.00000  Uiso   1.00
O55    O     0.28036   0.00000   0.83755   0.00000  Uiso   1.00
O56    O     0.21963  -0.00000   0.16245   0.00000  Uiso   1.00
O57    O     0.00000   0.28036   0.83755   0.00000  Uiso   1.00
O58    O    -0.00000   0.21964   0.16245   0.00000  Uiso   1.00
O59    O     0.21963   0.00000   0.83755   0.00000  Uiso   1.00
O60    O     0.28036  -0.00000   0.16245   0.00000  Uiso   1.00
O61    O     0.20724   0.07308   0.27302   0.00000  Uiso   1.00
O62    O     0.29275   0.42692   0.72698   0.00000  Uiso   1.00
O63    O     0.42692   0.20725   0.27302   0.00000  Uiso   1.00
O64    O     0.07307   0.29275   0.72698   0.00000  Uiso   1.00
O65    O     0.29275   0.42692   0.27302   0.00000  Uiso   1.00
O66    O     0.20724   0.07308   0.72698   0.00000  Uiso   1.00
O67    O     0.07307   0.29275   0.27302   0.00000  Uiso   1.00
O68    O     0.42692   0.20725   0.72698   0.00000  Uiso   1.00
O69    O     0.20724   0.42692   0.72698   0.00000  Uiso   1.00
O70    O     0.29275   0.07308   0.27302   0.00000  Uiso   1.00
O71    O     0.42692   0.29276   0.72698   0.00000  Uiso   1.00
O72    O     0.07307   0.20724   0.27302   0.00000  Uiso   1.00
O73    O     0.29275   0.07308   0.72698   0.00000  Uiso   1.00
O74    O     0.20724   0.42692   0.27302   0.00000  Uiso   1.00
O75    O     0.07307   0.20724   0.72698   0.00000  Uiso   1.00
O76    O     0.42692   0.29276   0.27302   0.00000  Uiso   1.00
O77    O     0.45724   0.32308   0.77302   0.00000  Uiso   1.00
O78    O     0.04275   0.17692   0.22698   0.00000  Uiso   1.00
O79    O     0.17692   0.45724   0.77302   0.00000  Uiso   1.00
O80    O     0.32307   0.04276   0.22698   0.00000  Uiso   1.00
O81    O     0.04275   0.17692   0.77302   0.00000  Uiso   1.00
O82    O     0.45724   0.32308   0.22698   0.00000  Uiso   1.00
O83    O     0.32307   0.04276   0.77302   0.00000  Uiso   1.00
O84    O     0.17692   0.45724   0.22698   0.00000  Uiso   1.00
O85    O     0.45724   0.17693   0.22698   0.00000  Uiso   1.00
O86    O     0.04275   0.32307   0.77302   0.00000  Uiso   1.00
O87    O     0.17692   0.04276   0.22698   0.00000  Uiso   1.00
O88    O     0.32307   0.45724   0.77302   0.00000  Uiso   1.00
O89    O     0.04275   0.32307   0.22698   0.00000  Uiso   1.00
O90    O     0.45724   0.17693   0.77302   0.00000  Uiso   1.00
O91    O     0.32307   0.45724   0.22698   0.00000  Uiso   1.00
O92    O     0.17692   0.04276   0.77302   0.00000  Uiso   1.00
C93    C     0.47004   0.19014   0.47936   0.00000  Uiso   1.00
C94    C     0.03048   0.30969   0.51998   0.00000  Uiso   1.00
C95    C     0.30976   0.03034   0.48001   0.00000  Uiso   1.00
C96    C     0.19011   0.47011   0.52064   0.00000  Uiso   1.00
C97    C     0.02996   0.30986   0.47936   0.00000  Uiso   1.00
C98    C     0.46953   0.19031   0.51998   0.00000  Uiso   1.00
C99    C     0.19027   0.46960   0.48002   0.00000  Uiso   1.00
C100   C     0.30993   0.02983   0.52063   0.00000  Uiso   1.00
C101   C     0.22054   0.43989   0.97939   0.00000  Uiso   1.00
C102   C     0.27983   0.06000   0.02002   0.00000  Uiso   1.00
C103   C     0.06000   0.27983   0.97998   0.00000  Uiso   1.00
C104   C     0.43988   0.22056   0.02061   0.00000  Uiso   1.00
C105   C     0.27933   0.06018   0.97940   0.00000  Uiso   1.00
C106   C     0.22004   0.44006   0.02001   0.00000  Uiso   1.00
C107   C     0.44005   0.22006   0.97999   0.00000  Uiso   1.00
C108   C     0.06018   0.27933   0.02061   0.00000  Uiso   1.00
C109   C     0.25000  -0.00000   0.35578   0.00000  Uiso   1.00
C110   C     0.25000   0.00000   0.64432   0.00000  Uiso   1.00
C111   C     0.00000   0.25000   0.35569   0.00000  Uiso   1.00
C112   C    -0.00000   0.25000   0.64422   0.00000  Uiso   1.00
C113   C     0.00000   0.25000   0.85578   0.00000  Uiso   1.00
C114   C    -0.00000   0.25000   0.14432   0.00000  Uiso   1.00
C115   C     0.25000  -0.00000   0.85569   0.00000  Uiso   1.00
C116   C     0.25000   0.00000   0.14422   0.00000  Uiso   1.00
C117   C     0.17993   0.07007   0.25000   0.00000  Uiso   1.00
C118   C     0.32007   0.42993   0.75000   0.00000  Uiso   1.00
C119   C     0.42994   0.17994   0.25000   0.00000  Uiso   1.00
C120   C     0.07006   0.32006   0.75000   0.00000  Uiso   1.00
C121   C     0.32007   0.42993   0.25000   0.00000  Uiso   1.00
C122   C     0.17993   0.07007   0.75000   0.00000  Uiso   1.00
C123   C     0.07006   0.32006   0.25000   0.00000  Uiso   1.00
C124   C     0.42994   0.17994   0.75000   0.00000  Uiso   1.00
C125   C     0.17994   0.42994   0.75000   0.00000  Uiso   1.00
C126   C     0.32006   0.07006   0.25000   0.00000  Uiso   1.00
C127   C     0.42993   0.32007   0.75000   0.00000  Uiso   1.00
C128   C     0.07007   0.17993   0.25000   0.00000  Uiso   1.00
C129   C     0.32006   0.07006   0.75000   0.00000  Uiso   1.00
C130   C     0.17994   0.42994   0.25000   0.00000  Uiso   1.00
C131   C     0.07007   0.17993   0.75000   0.00000  Uiso   1.00
C132   C     0.42993   0.32007   0.25000   0.00000  Uiso   1.00
C133   C     0.12279   0.40395   0.22368   0.00000  Uiso   1.00
C134   C     0.37722   0.09605   0.77632   0.00000  Uiso   1.00
C135   C     0.09521   0.12193   0.22487   0.00000  Uiso   1.00
C136   C     0.40479   0.37807   0.77513   0.00000  Uiso   1.00
C137   C     0.37721   0.09605   0.22368   0.00000  Uiso   1.00
C138   C     0.12278   0.40395   0.77632   0.00000  Uiso   1.00
C139   C     0.40479   0.37807   0.22487   0.00000  Uiso   1.00
C140   C     0.09521   0.12193   0.77513   0.00000  Uiso   1.00
C141   C     0.12193   0.09521   0.77514   0.00000  Uiso   1.00
C142   C     0.37807   0.40479   0.22487   0.00000  Uiso   1.00
C143   C     0.09605   0.37721   0.77632   0.00000  Uiso   1.00
C144   C     0.40395   0.12278   0.22368   0.00000  Uiso   1.00
C145   C     0.37807   0.40479   0.77513   0.00000  Uiso   1.00
C146   C     0.12193   0.09521   0.22487   0.00000  Uiso   1.00
C147   C     0.40395   0.12279   0.77632   0.00000  Uiso   1.00
C148   C     0.09605   0.37722   0.22368   0.00000  Uiso   1.00
C149   C     0.37279   0.15395   0.72368   0.00000  Uiso   1.00
C150   C     0.12722   0.34605   0.27632   0.00000  Uiso   1.00
C151   C     0.34521   0.37193   0.72487   0.00000  Uiso   1.00
C152   C     0.15479   0.12807   0.27513   0.00000  Uiso   1.00
C153   C     0.12721   0.34605   0.72368   0.00000  Uiso   1.00
C154   C     0.37278   0.15395   0.27632   0.00000  Uiso   1.00
C155   C     0.15479   0.12807   0.72487   0.00000  Uiso   1.00
C156   C     0.34521   0.37193   0.27513   0.00000  Uiso   1.00
C157   C     0.37193   0.34521   0.27513   0.00000  Uiso   1.00
C158   C     0.12807   0.15479   0.72487   0.00000  Uiso   1.00
C159   C     0.34605   0.12721   0.27632   0.00000  Uiso   1.00
C160   C     0.15395   0.37278   0.72368   0.00000  Uiso   1.00
C161   C     0.12807   0.15479   0.27513   0.00000  Uiso   1.00
C162   C     0.37193   0.34521   0.72487   0.00000  Uiso   1.00
C163   C     0.15395   0.37279   0.27632   0.00000  Uiso   1.00
C164   C     0.34605   0.12722   0.72368   0.00000  Uiso   1.00
C165   C     0.48624   0.21929   0.45863   0.00000  Uiso   1.00
C166   C     0.01643   0.27947   0.54095   0.00000  Uiso   1.00
C167   C     0.27950   0.01637   0.45905   0.00000  Uiso   1.00
C168   C     0.21928   0.48626   0.54137   0.00000  Uiso   1.00
C169   C     0.01376   0.28071   0.45863   0.00000  Uiso   1.00
C170   C     0.48357   0.22053   0.54095   0.00000  Uiso   1.00
C171   C     0.22051   0.48360   0.45905   0.00000  Uiso   1.00
C172   C     0.28074   0.01371   0.54137   0.00000  Uiso   1.00
C173   C     0.23644   0.46919   0.95864   0.00000  Uiso   1.00
C174   C     0.26615   0.02961   0.04096   0.00000  Uiso   1.00
C175   C     0.02961   0.26615   0.95904   0.00000  Uiso   1.00
C176   C     0.46918   0.23645   0.04136   0.00000  Uiso   1.00
C177   C     0.26350   0.03085   0.95864   0.00000  Uiso   1.00
C178   C     0.23378   0.47042   0.04096   0.00000  Uiso   1.00
C179   C     0.47042   0.23379   0.95905   0.00000  Uiso   1.00
C180   C     0.03085   0.26349   0.04136   0.00000  Uiso   1.00
C181   C     0.09813   0.34813   0.25000   0.00000  Uiso   1.00
C182   C     0.40187   0.15187   0.75000   0.00000  Uiso   1.00
C183   C     0.15187   0.09813   0.25000   0.00000  Uiso   1.00
C184   C     0.34813   0.40187   0.75000   0.00000  Uiso   1.00
C185   C     0.40187   0.15187   0.25000   0.00000  Uiso   1.00
C186   C     0.09813   0.34813   0.75000   0.00000  Uiso   1.00
C187   C     0.34813   0.40187   0.25000   0.00000  Uiso   1.00
C188   C     0.15187   0.09813   0.75000   0.00000  Uiso   1.00
C189   C     0.09813   0.15187   0.75000   0.00000  Uiso   1.00
C190   C     0.40187   0.34813   0.25000   0.00000  Uiso   1.00
C191   C     0.15187   0.40187   0.75000   0.00000  Uiso   1.00
C192   C     0.34813   0.09813   0.25000   0.00000  Uiso   1.00
C193   C     0.40187   0.34813   0.75000   0.00000  Uiso   1.00
C194   C     0.09813   0.15187   0.25000   0.00000  Uiso   1.00
C195   C     0.34813   0.09813   0.75000   0.00000  Uiso   1.00
C196   C     0.15187   0.40187   0.25000   0.00000  Uiso   1.00
C197   C     0.00000   0.25000   0.47924   0.00000  Uiso   1.00
C198   C     0.00000   0.25000   0.52038   0.00000  Uiso   1.00
C199   C     0.25001   0.49998   0.47962   0.00000  Uiso   1.00
C200   C     0.25001   0.49998   0.52076   0.00000  Uiso   1.00
C201   C     0.24996   0.00002   0.97924   0.00000  Uiso   1.00
C202   C     0.24996   0.00002   0.02039   0.00000  Uiso   1.00
C203   C     0.00002   0.24997   0.97961   0.00000  Uiso   1.00
C204   C     0.00002   0.24997   0.02076   0.00000  Uiso   1.00
N205   N     0.45157   0.16105   0.45956   0.00000  Uiso   1.00
O206   O     0.42051   0.16735   0.44258   0.00000  Uiso   1.00
O207   O     0.46292   0.12761   0.46322   0.00000  Uiso   1.00
N208   N     0.04384   0.34162   0.53941   0.00000  Uiso   1.00
O209   O     0.02080   0.36454   0.55454   0.00000  Uiso   1.00
O210   O     0.07799   0.35084   0.53626   0.00000  Uiso   1.00
N211   N     0.34174   0.04358   0.46057   0.00000  Uiso   1.00
O212   O     0.36452   0.02046   0.44536   0.00000  Uiso   1.00
O213   O     0.35112   0.07768   0.46376   0.00000  Uiso   1.00
N214   N     0.16097   0.45170   0.54043   0.00000  Uiso   1.00
O215   O     0.16719   0.42060   0.55735   0.00000  Uiso   1.00
O216   O     0.12756   0.46314   0.53680   0.00000  Uiso   1.00
N217   N     0.04843   0.33895   0.45956   0.00000  Uiso   1.00
O218   O     0.07949   0.33265   0.44258   0.00000  Uiso   1.00
O219   O     0.03708   0.37239   0.46321   0.00000  Uiso   1.00
N220   N     0.45617   0.15837   0.53941   0.00000  Uiso   1.00
O221   O     0.47921   0.13546   0.55454   0.00000  Uiso   1.00
O222   O     0.42202   0.14915   0.53626   0.00000  Uiso   1.00
N223   N     0.15831   0.45632   0.46058   0.00000  Uiso   1.00
O224   O     0.13547   0.47941   0.44541   0.00000  Uiso   1.00
O225   O     0.14899   0.42219   0.46375   0.00000  Uiso   1.00
N226   N     0.33909   0.04820   0.54042   0.00000  Uiso   1.00
O227   O     0.33293   0.07934   0.55728   0.00000  Uiso   1.00
O228   O     0.37248   0.03669   0.53682   0.00000  Uiso   1.00
N229   N     0.20243   0.41055   0.95963   0.00000  Uiso   1.00
O230   O     0.17115   0.41638   0.94292   0.00000  Uiso   1.00
O231   O     0.21432   0.37729   0.96316   0.00000  Uiso   1.00
N232   N     0.29266   0.09214   0.03949   0.00000  Uiso   1.00
O233   O     0.26926   0.11450   0.05493   0.00000  Uiso   1.00
O234   O     0.32661   0.10204   0.03620   0.00000  Uiso   1.00
N235   N     0.09214   0.29266   0.96051   0.00000  Uiso   1.00
O236   O     0.11450   0.26926   0.94507   0.00000  Uiso   1.00
O237   O     0.10206   0.32661   0.96380   0.00000  Uiso   1.00
N238   N     0.41053   0.20247   0.04037   0.00000  Uiso   1.00
O239   O     0.41635   0.17119   0.05709   0.00000  Uiso   1.00
O240   O     0.37727   0.21437   0.03684   0.00000  Uiso   1.00
N241   N     0.29734   0.08958   0.95965   0.00000  Uiso   1.00
O242   O     0.32872   0.08391   0.94310   0.00000  Uiso   1.00
O243   O     0.28527   0.12279   0.96311   0.00000  Uiso   1.00
N244   N     0.20711   0.40796   0.03947   0.00000  Uiso   1.00
O245   O     0.23045   0.38547   0.05482   0.00000  Uiso   1.00
O246   O     0.17312   0.39818   0.03622   0.00000  Uiso   1.00
N247   N     0.40794   0.20715   0.96053   0.00000  Uiso   1.00
O248   O     0.38547   0.23049   0.94517   0.00000  Uiso   1.00
O249   O     0.39815   0.17316   0.96378   0.00000  Uiso   1.00
N250   N     0.08957   0.29736   0.04035   0.00000  Uiso   1.00
O251   O     0.08387   0.32871   0.05696   0.00000  Uiso   1.00
O252   O     0.12279   0.28533   0.03687   0.00000  Uiso   1.00
H253   H     0.12069   0.42615   0.20305   0.00000  Uiso   1.00
H254   H     0.37932   0.07385   0.79694   0.00000  Uiso   1.00
H255   H     0.07232   0.11912   0.20520   0.00000  Uiso   1.00
H256   H     0.42768   0.38088   0.79479   0.00000  Uiso   1.00
H257   H     0.37931   0.07385   0.20305   0.00000  Uiso   1.00
H258   H     0.12068   0.42615   0.79694   0.00000  Uiso   1.00
H259   H     0.42768   0.38088   0.20521   0.00000  Uiso   1.00
H260   H     0.07232   0.11912   0.79480   0.00000  Uiso   1.00
H261   H     0.11912   0.07232   0.79480   0.00000  Uiso   1.00
H262   H     0.38088   0.42768   0.20521   0.00000  Uiso   1.00
H263   H     0.07385   0.37931   0.79695   0.00000  Uiso   1.00
H264   H     0.42616   0.12068   0.20306   0.00000  Uiso   1.00
H265   H     0.38088   0.42768   0.79480   0.00000  Uiso   1.00
H266   H     0.11912   0.07232   0.20520   0.00000  Uiso   1.00
H267   H     0.42615   0.12069   0.79695   0.00000  Uiso   1.00
H268   H     0.07384   0.37932   0.20306   0.00000  Uiso   1.00
H269   H     0.37069   0.17615   0.70305   0.00000  Uiso   1.00
H270   H     0.12932   0.32385   0.29694   0.00000  Uiso   1.00
H271   H     0.32232   0.36912   0.70521   0.00000  Uiso   1.00
H272   H     0.17768   0.13088   0.29480   0.00000  Uiso   1.00
H273   H     0.12931   0.32385   0.70305   0.00000  Uiso   1.00
H274   H     0.37068   0.17616   0.29694   0.00000  Uiso   1.00
H275   H     0.17768   0.13088   0.70520   0.00000  Uiso   1.00
H276   H     0.32232   0.36912   0.29479   0.00000  Uiso   1.00
H277   H     0.36912   0.32232   0.29479   0.00000  Uiso   1.00
H278   H     0.13088   0.17768   0.70521   0.00000  Uiso   1.00
H279   H     0.32385   0.12931   0.29695   0.00000  Uiso   1.00
H280   H     0.17615   0.37068   0.70306   0.00000  Uiso   1.00
H281   H     0.13088   0.17768   0.29480   0.00000  Uiso   1.00
H282   H     0.36912   0.32232   0.70521   0.00000  Uiso   1.00
H283   H     0.17615   0.37069   0.29695   0.00000  Uiso   1.00
H284   H     0.32385   0.12932   0.70305   0.00000  Uiso   1.00
N285   N     0.01415   0.31508   0.39642   0.00000  Uiso   1.00
O286   O     0.03971   0.31890   0.37052   0.00000  Uiso   1.00
O287   O     0.49007   0.34077   0.40084   0.00000  Uiso   1.00
N288   N     0.45941   0.19722   0.60374   0.00000  Uiso   1.00
O289   O     0.47464   0.17523   0.62859   0.00000  Uiso   1.00
O290   O     0.42405   0.20000   0.60289   0.00000  Uiso   1.00
N291   N     0.19720   0.45943   0.39627   0.00000  Uiso   1.00
O292   O     0.17525   0.47465   0.37138   0.00000  Uiso   1.00
O293   O     0.19993   0.42407   0.39718   0.00000  Uiso   1.00
N294   N     0.31507   0.01416   0.60361   0.00000  Uiso   1.00
O295   O     0.31890   0.03980   0.62942   0.00000  Uiso   1.00
O296   O     0.34071   0.48999   0.59935   0.00000  Uiso   1.00
N297   N     0.48585   0.18492   0.39642   0.00000  Uiso   1.00
O298   O     0.46030   0.18110   0.37051   0.00000  Uiso   1.00
O299   O     0.00993   0.15922   0.40086   0.00000  Uiso   1.00
N300   N     0.04058   0.30279   0.60374   0.00000  Uiso   1.00
O301   O     0.02536   0.32477   0.62859   0.00000  Uiso   1.00
O302   O     0.07594   0.30000   0.60290   0.00000  Uiso   1.00
N303   N     0.30280   0.04057   0.39628   0.00000  Uiso   1.00
O304   O     0.32473   0.02538   0.37135   0.00000  Uiso   1.00
O305   O     0.30009   0.07594   0.39725   0.00000  Uiso   1.00
N306   N     0.18492   0.48586   0.60359   0.00000  Uiso   1.00
O307   O     0.18109   0.46027   0.62945   0.00000  Uiso   1.00
O308   O     0.15926   0.01000   0.59924   0.00000  Uiso   1.00
N309   N     0.26405   0.06507   0.89632   0.00000  Uiso   1.00
O310   O     0.28991   0.06894   0.87076   0.00000  Uiso   1.00
O311   O     0.23959   0.09051   0.90008   0.00000  Uiso   1.00
N312   N     0.20959   0.44706   0.10371   0.00000  Uiso   1.00
O313   O     0.22480   0.42527   0.12876   0.00000  Uiso   1.00
O314   O     0.17421   0.44952   0.10251   0.00000  Uiso   1.00
N315   N     0.44706   0.20959   0.89629   0.00000  Uiso   1.00
O316   O     0.42528   0.22479   0.87123   0.00000  Uiso   1.00
O317   O     0.44951   0.17422   0.89751   0.00000  Uiso   1.00
N318   N     0.06509   0.26399   0.10367   0.00000  Uiso   1.00
O319   O     0.06897   0.28980   0.12928   0.00000  Uiso   1.00
O320   O     0.09053   0.23954   0.09984   0.00000  Uiso   1.00
N321   N     0.23602   0.43491   0.89636   0.00000  Uiso   1.00
O322   O     0.21029   0.43101   0.87067   0.00000  Uiso   1.00
O323   O     0.26040   0.40943   0.90036   0.00000  Uiso   1.00
N324   N     0.29042   0.05293   0.10369   0.00000  Uiso   1.00
O325   O     0.27526   0.07469   0.12882   0.00000  Uiso   1.00
O326   O     0.32579   0.05053   0.10235   0.00000  Uiso   1.00
N327   N     0.05293   0.29042   0.89631   0.00000  Uiso   1.00
O328   O     0.07468   0.27527   0.87118   0.00000  Uiso   1.00
O329   O     0.05053   0.32580   0.89766   0.00000  Uiso   1.00
N330   N     0.43490   0.23605   0.10364   0.00000  Uiso   1.00
O331   O     0.43100   0.21032   0.12934   0.00000  Uiso   1.00
O332   O     0.40943   0.26044   0.09964   0.00000  Uiso   1.00
Zn333  Zn    0.70659   0.00000   0.21735   0.00000  Uiso   1.00
Zn334  Zn    0.79340   0.00000   0.78265   0.00000  Uiso   1.00
Zn335  Zn    0.50000   0.20659   0.21735   0.00000  Uiso   1.00
Zn336  Zn    0.50000   0.29341   0.78265   0.00000  Uiso   1.00
Zn337  Zn    0.79340   0.00000   0.21735   0.00000  Uiso   1.00
Zn338  Zn    0.70659   0.00000   0.78265   0.00000  Uiso   1.00
Zn339  Zn    0.50000   0.29340   0.21735   0.00000  Uiso   1.00
Zn340  Zn    0.50000   0.20660   0.78265   0.00000  Uiso   1.00
Zn341  Zn    0.95659   0.25000   0.71735   0.00000  Uiso   1.00
Zn342  Zn    0.54340   0.25000   0.28265   0.00000  Uiso   1.00
Zn343  Zn    0.75000   0.45659   0.71735   0.00000  Uiso   1.00
Zn344  Zn    0.75000   0.04341   0.28265   0.00000  Uiso   1.00
Zn345  Zn    0.54340   0.25000   0.71735   0.00000  Uiso   1.00
Zn346  Zn    0.95659   0.25000   0.28265   0.00000  Uiso   1.00
Zn347  Zn    0.75000   0.04341   0.71735   0.00000  Uiso   1.00
Zn348  Zn    0.75000   0.45659   0.28265   0.00000  Uiso   1.00
C349   C     0.51042   0.28158   0.41774   0.00000  Uiso   1.00
C350   C     0.98128   0.22246   0.58192   0.00000  Uiso   1.00
C351   C     0.72245   0.48130   0.41808   0.00000  Uiso   1.00
C352   C     0.78159   0.01039   0.58226   0.00000  Uiso   1.00
C353   C     0.98958   0.21841   0.41774   0.00000  Uiso   1.00
C354   C     0.51872   0.27754   0.58192   0.00000  Uiso   1.00
C355   C     0.77756   0.01869   0.41808   0.00000  Uiso   1.00
C356   C     0.71841   0.48960   0.58226   0.00000  Uiso   1.00
C357   C     0.76027   0.03164   0.91773   0.00000  Uiso   1.00
C358   C     0.73142   0.47236   0.08192   0.00000  Uiso   1.00
C359   C     0.97236   0.23143   0.91808   0.00000  Uiso   1.00
C360   C     0.53164   0.26025   0.08227   0.00000  Uiso   1.00
C361   C     0.73972   0.46837   0.91774   0.00000  Uiso   1.00
C362   C     0.76855   0.02765   0.08192   0.00000  Uiso   1.00
C363   C     0.52765   0.26855   0.91808   0.00000  Uiso   1.00
C364   C     0.96837   0.23974   0.08226   0.00000  Uiso   1.00
C365   C     0.50000   0.25000   0.39785   0.00000  Uiso   1.00
C366   C     0.50000   0.25000   0.60186   0.00000  Uiso   1.00
C367   C     0.75000  -0.00000   0.39814   0.00000  Uiso   1.00
C368   C     0.75000  -0.00000   0.60215   0.00000  Uiso   1.00
C369   C     0.75000   0.00000   0.89785   0.00000  Uiso   1.00
C370   C     0.74999   0.00000   0.10187   0.00000  Uiso   1.00
C371   C     0.50000   0.24999   0.89814   0.00000  Uiso   1.00
C372   C     0.50000   0.25000   0.10215   0.00000  Uiso   1.00
O373   O     0.75000   0.00000   0.25000   0.00000  Uiso   1.00
O374   O     0.75000   0.00000   0.75000   0.00000  Uiso   1.00
O375   O     0.50000   0.25000   0.25000   0.00000  Uiso   1.00
O376   O     0.50000   0.25000   0.75000   0.00000  Uiso   1.00
O377   O     0.75000   0.46963   0.33755   0.00000  Uiso   1.00
O378   O     0.75000   0.03037   0.66245   0.00000  Uiso   1.00
O379   O     0.53036   0.25000   0.33755   0.00000  Uiso   1.00
O380   O     0.96963   0.25000   0.66245   0.00000  Uiso   1.00
O381   O     0.75000   0.03037   0.33755   0.00000  Uiso   1.00
O382   O     0.75000   0.46963   0.66245   0.00000  Uiso   1.00
O383   O     0.96963   0.25000   0.33755   0.00000  Uiso   1.00
O384   O     0.53036   0.25000   0.66245   0.00000  Uiso   1.00
O385   O     0.50000   0.21964   0.83755   0.00000  Uiso   1.00
O386   O     0.50000   0.28037   0.16245   0.00000  Uiso   1.00
O387   O     0.78036   0.00000   0.83755   0.00000  Uiso   1.00
O388   O     0.71963  -0.00000   0.16245   0.00000  Uiso   1.00
O389   O     0.50000   0.28036   0.83755   0.00000  Uiso   1.00
O390   O     0.50000   0.21964   0.16245   0.00000  Uiso   1.00
O391   O     0.71963   0.00000   0.83755   0.00000  Uiso   1.00
O392   O     0.78036  -0.00000   0.16245   0.00000  Uiso   1.00
O393   O     0.70724   0.07308   0.27302   0.00000  Uiso   1.00
O394   O     0.79275   0.42692   0.72698   0.00000  Uiso   1.00
O395   O     0.92692   0.20725   0.27302   0.00000  Uiso   1.00
O396   O     0.57307   0.29275   0.72698   0.00000  Uiso   1.00
O397   O     0.79275   0.42692   0.27302   0.00000  Uiso   1.00
O398   O     0.70724   0.07308   0.72698   0.00000  Uiso   1.00
O399   O     0.57307   0.29275   0.27302   0.00000  Uiso   1.00
O400   O     0.92692   0.20725   0.72698   0.00000  Uiso   1.00
O401   O     0.70724   0.42692   0.72698   0.00000  Uiso   1.00
O402   O     0.79275   0.07308   0.27302   0.00000  Uiso   1.00
O403   O     0.92692   0.29276   0.72698   0.00000  Uiso   1.00
O404   O     0.57307   0.20724   0.27302   0.00000  Uiso   1.00
O405   O     0.79275   0.07308   0.72698   0.00000  Uiso   1.00
O406   O     0.70724   0.42692   0.27302   0.00000  Uiso   1.00
O407   O     0.57307   0.20724   0.72698   0.00000  Uiso   1.00
O408   O     0.92692   0.29276   0.27302   0.00000  Uiso   1.00
O409   O     0.95724   0.32308   0.77302   0.00000  Uiso   1.00
O410   O     0.54275   0.17692   0.22698   0.00000  Uiso   1.00
O411   O     0.67692   0.45724   0.77302   0.00000  Uiso   1.00
O412   O     0.82307   0.04276   0.22698   0.00000  Uiso   1.00
O413   O     0.54275   0.17692   0.77302   0.00000  Uiso   1.00
O414   O     0.95724   0.32308   0.22698   0.00000  Uiso   1.00
O415   O     0.82307   0.04276   0.77302   0.00000  Uiso   1.00
O416   O     0.67692   0.45724   0.22698   0.00000  Uiso   1.00
O417   O     0.95724   0.17693   0.22698   0.00000  Uiso   1.00
O418   O     0.54275   0.32307   0.77302   0.00000  Uiso   1.00
O419   O     0.67692   0.04276   0.22698   0.00000  Uiso   1.00
O420   O     0.82307   0.45724   0.77302   0.00000  Uiso   1.00
O421   O     0.54275   0.32307   0.22698   0.00000  Uiso   1.00
O422   O     0.95724   0.17693   0.77302   0.00000  Uiso   1.00
O423   O     0.82307   0.45724   0.22698   0.00000  Uiso   1.00
O424   O     0.67692   0.04276   0.77302   0.00000  Uiso   1.00
C425   C     0.97004   0.19014   0.47936   0.00000  Uiso   1.00
C426   C     0.53048   0.30969   0.51998   0.00000  Uiso   1.00
C427   C     0.80976   0.03034   0.48001   0.00000  Uiso   1.00
C428   C     0.69011   0.47011   0.52064   0.00000  Uiso   1.00
C429   C     0.52996   0.30986   0.47936   0.00000  Uiso   1.00
C430   C     0.96953   0.19031   0.51998   0.00000  Uiso   1.00
C431   C     0.69027   0.46960   0.48002   0.00000  Uiso   1.00
C432   C     0.80993   0.02983   0.52063   0.00000  Uiso   1.00
C433   C     0.72054   0.43989   0.97939   0.00000  Uiso   1.00
C434   C     0.77983   0.06000   0.02002   0.00000  Uiso   1.00
C435   C     0.56000   0.27983   0.97998   0.00000  Uiso   1.00
C436   C     0.93988   0.22056   0.02061   0.00000  Uiso   1.00
C437   C     0.77933   0.06018   0.97940   0.00000  Uiso   1.00
C438   C     0.72004   0.44006   0.02001   0.00000  Uiso   1.00
C439   C     0.94005   0.22006   0.97999   0.00000  Uiso   1.00
C440   C     0.56018   0.27933   0.02061   0.00000  Uiso   1.00
C441   C     0.75000  -0.00000   0.35578   0.00000  Uiso   1.00
C442   C     0.75000   0.00000   0.64432   0.00000  Uiso   1.00
C443   C     0.50000   0.25000   0.35569   0.00000  Uiso   1.00
C444   C     0.50000   0.25000   0.64422   0.00000  Uiso   1.00
C445   C     0.50000   0.25000   0.85578   0.00000  Uiso   1.00
C446   C     0.50000   0.25000   0.14432   0.00000  Uiso   1.00
C447   C     0.75000  -0.00000   0.85569   0.00000  Uiso   1.00
C448   C     0.75000   0.00000   0.14422   0.00000  Uiso   1.00
C449   C     0.67993   0.07007   0.25000   0.00000  Uiso   1.00
C450   C     0.82007   0.42993   0.75000   0.00000  Uiso   1.00
C451   C     0.92994   0.17994   0.25000   0.00000  Uiso   1.00
C452   C     0.57006   0.32006   0.75000   0.00000  Uiso   1.00
C453   C     0.82007   0.42993   0.25000   0.00000  Uiso   1.00
C454   C     0.67993   0.07007   0.75000   0.00000  Uiso   1.00
C455   C     0.57006   0.32006   0.25000   0.00000  Uiso   1.00
C456   C     0.92994   0.17994   0.75000   0.00000  Uiso   1.00
C457   C     0.67994   0.42994   0.75000   0.00000  Uiso   1.00
C458   C     0.82006   0.07006   0.25000   0.00000  Uiso   1.00
C459   C     0.92993   0.32007   0.75000   0.00000  Uiso   1.00
C460   C     0.57007   0.17993   0.25000   0.00000  Uiso   1.00
C461   C     0.82006   0.07006   0.75000   0.00000  Uiso   1.00
C462   C     0.67994   0.42994   0.25000   0.00000  Uiso   1.00
C463   C     0.57007   0.17993   0.75000   0.00000  Uiso   1.00
C464   C     0.92993   0.32007   0.25000   0.00000  Uiso   1.00
C465   C     0.62279   0.40395   0.22368   0.00000  Uiso   1.00
C466   C     0.87722   0.09605   0.77632   0.00000  Uiso   1.00
C467   C     0.59521   0.12193   0.22487   0.00000  Uiso   1.00
C468   C     0.90479   0.37807   0.77513   0.00000  Uiso   1.00
C469   C     0.87721   0.09605   0.22368   0.00000  Uiso   1.00
C470   C     0.62278   0.40395   0.77632   0.00000  Uiso   1.00
C471   C     0.90479   0.37807   0.22487   0.00000  Uiso   1.00
C472   C     0.59521   0.12193   0.77513   0.00000  Uiso   1.00
C473   C     0.62193   0.09521   0.77514   0.00000  Uiso   1.00
C474   C     0.87807   0.40479   0.22487   0.00000  Uiso   1.00
C475   C     0.59605   0.37721   0.77632   0.00000  Uiso   1.00
C476   C     0.90395   0.12278   0.22368   0.00000  Uiso   1.00
C477   C     0.87807   0.40479   0.77513   0.00000  Uiso   1.00
C478   C     0.62193   0.09521   0.22487   0.00000  Uiso   1.00
C479   C     0.90395   0.12279   0.77632   0.00000  Uiso   1.00
C480   C     0.59605   0.37722   0.22368   0.00000  Uiso   1.00
C481   C     0.87279   0.15395   0.72368   0.00000  Uiso   1.00
C482   C     0.62722   0.34605   0.27632   0.00000  Uiso   1.00
C483   C     0.84521   0.37193   0.72487   0.00000  Uiso   1.00
C484   C     0.65479   0.12807   0.27513   0.00000  Uiso   1.00
C485   C     0.62721   0.34605   0.72368   0.00000  Uiso   1.00
C486   C     0.87278   0.15395   0.27632   0.00000  Uiso   1.00
C487   C     0.65479   0.12807   0.72487   0.00000  Uiso   1.00
C488   C     0.84521   0.37193   0.27513   0.00000  Uiso   1.00
C489   C     0.87193   0.34521   0.27513   0.00000  Uiso   1.00
C490   C     0.62807   0.15479   0.72487   0.00000  Uiso   1.00
C491   C     0.84605   0.12721   0.27632   0.00000  Uiso   1.00
C492   C     0.65395   0.37278   0.72368   0.00000  Uiso   1.00
C493   C     0.62807   0.15479   0.27513   0.00000  Uiso   1.00
C494   C     0.87193   0.34521   0.72487   0.00000  Uiso   1.00
C495   C     0.65395   0.37279   0.27632   0.00000  Uiso   1.00
C496   C     0.84605   0.12722   0.72368   0.00000  Uiso   1.00
C497   C     0.98624   0.21929   0.45863   0.00000  Uiso   1.00
C498   C     0.51643   0.27947   0.54095   0.00000  Uiso   1.00
C499   C     0.77950   0.01637   0.45905   0.00000  Uiso   1.00
C500   C     0.71928   0.48626   0.54137   0.00000  Uiso   1.00
C501   C     0.51376   0.28071   0.45863   0.00000  Uiso   1.00
C502   C     0.98357   0.22053   0.54095   0.00000  Uiso   1.00
C503   C     0.72051   0.48360   0.45905   0.00000  Uiso   1.00
C504   C     0.78074   0.01371   0.54137   0.00000  Uiso   1.00
C505   C     0.73644   0.46919   0.95864   0.00000  Uiso   1.00
C506   C     0.76615   0.02961   0.04096   0.00000  Uiso   1.00
C507   C     0.52961   0.26615   0.95904   0.00000  Uiso   1.00
C508   C     0.96918   0.23645   0.04136   0.00000  Uiso   1.00
C509   C     0.76350   0.03085   0.95864   0.00000  Uiso   1.00
C510   C     0.73378   0.47042   0.04096   0.00000  Uiso   1.00
C511   C     0.97042   0.23379   0.95905   0.00000  Uiso   1.00
C512   C     0.53085   0.26349   0.04136   0.00000  Uiso   1.00
C513   C     0.59813   0.34813   0.25000   0.00000  Uiso   1.00
C514   C     0.90187   0.15187   0.75000   0.00000  Uiso   1.00
C515   C     0.65187   0.09813   0.25000   0.00000  Uiso   1.00
C516   C     0.84813   0.40187   0.75000   0.00000  Uiso   1.00
C517   C     0.90187   0.15187   0.25000   0.00000  Uiso   1.00
C518   C     0.59813   0.34813   0.75000   0.00000  Uiso   1.00
C519   C     0.84813   0.40187   0.25000   0.00000  Uiso   1.00
C520   C     0.65187   0.09813   0.75000   0.00000  Uiso   1.00
C521   C     0.59813   0.15187   0.75000   0.00000  Uiso   1.00
C522   C     0.90187   0.34813   0.25000   0.00000  Uiso   1.00
C523   C     0.65187   0.40187   0.75000   0.00000  Uiso   1.00
C524   C     0.84813   0.09813   0.25000   0.00000  Uiso   1.00
C525   C     0.90187   0.34813   0.75000   0.00000  Uiso   1.00
C526   C     0.59813   0.15187   0.25000   0.00000  Uiso   1.00
C527   C     0.84813   0.09813   0.75000   0.00000  Uiso   1.00
C528   C     0.65187   0.40187   0.25000   0.00000  Uiso   1.00
C529   C     0.50000   0.25000   0.47924   0.00000  Uiso   1.00
C530   C     0.50000   0.25000   0.52038   0.00000  Uiso   1.00
C531   C     0.75001   0.49998   0.47962   0.00000  Uiso   1.00
C532   C     0.75001   0.49998   0.52076   0.00000  Uiso   1.00
C533   C     0.74996   0.00002   0.97924   0.00000  Uiso   1.00
C534   C     0.74996   0.00002   0.02039   0.00000  Uiso   1.00
C535   C     0.50002   0.24997   0.97961   0.00000  Uiso   1.00
C536   C     0.50002   0.24997   0.02076   0.00000  Uiso   1.00
N537   N     0.95157   0.16105   0.45956   0.00000  Uiso   1.00
O538   O     0.92051   0.16735   0.44258   0.00000  Uiso   1.00
O539   O     0.96292   0.12761   0.46322   0.00000  Uiso   1.00
N540   N     0.54384   0.34162   0.53941   0.00000  Uiso   1.00
O541   O     0.52080   0.36454   0.55454   0.00000  Uiso   1.00
O542   O     0.57799   0.35084   0.53626   0.00000  Uiso   1.00
N543   N     0.84174   0.04358   0.46057   0.00000  Uiso   1.00
O544   O     0.86452   0.02046   0.44536   0.00000  Uiso   1.00
O545   O     0.85112   0.07768   0.46376   0.00000  Uiso   1.00
N546   N     0.66097   0.45170   0.54043   0.00000  Uiso   1.00
O547   O     0.66719   0.42060   0.55735   0.00000  Uiso   1.00
O548   O     0.62756   0.46314   0.53680   0.00000  Uiso   1.00
N549   N     0.54843   0.33895   0.45956   0.00000  Uiso   1.00
O550   O     0.57949   0.33265   0.44258   0.00000  Uiso   1.00
O551   O     0.53708   0.37239   0.46321   0.00000  Uiso   1.00
N552   N     0.95617   0.15837   0.53941   0.00000  Uiso   1.00
O553   O     0.97921   0.13546   0.55454   0.00000  Uiso   1.00
O554   O     0.92202   0.14915   0.53626   0.00000  Uiso   1.00
N555   N     0.65831   0.45632   0.46058   0.00000  Uiso   1.00
O556   O     0.63547   0.47941   0.44541   0.00000  Uiso   1.00
O557   O     0.64899   0.42219   0.46375   0.00000  Uiso   1.00
N558   N     0.83909   0.04820   0.54042   0.00000  Uiso   1.00
O559   O     0.83293   0.07934   0.55728   0.00000  Uiso   1.00
O560   O     0.87248   0.03669   0.53682   0.00000  Uiso   1.00
N561   N     0.70243   0.41055   0.95963   0.00000  Uiso   1.00
O562   O     0.67115   0.41638   0.94292   0.00000  Uiso   1.00
O563   O     0.71432   0.37729   0.96316   0.00000  Uiso   1.00
N564   N     0.79266   0.09214   0.03949   0.00000  Uiso   1.00
O565   O     0.76926   0.11450   0.05493   0.00000  Uiso   1.00
O566   O     0.82661   0.10204   0.03620   0.00000  Uiso   1.00
N567   N     0.59214   0.29266   0.96051   0.00000  Uiso   1.00
O568   O     0.61450   0.26926   0.94507   0.00000  Uiso   1.00
O569   O     0.60206   0.32661   0.96380   0.00000  Uiso   1.00
N570   N     0.91053   0.20247   0.04037   0.00000  Uiso   1.00
O571   O     0.91635   0.17119   0.05709   0.00000  Uiso   1.00
O572   O     0.87727   0.21437   0.03684   0.00000  Uiso   1.00
N573   N     0.79734   0.08958   0.95965   0.00000  Uiso   1.00
O574   O     0.82872   0.08391   0.94310   0.00000  Uiso   1.00
O575   O     0.78527   0.12279   0.96311   0.00000  Uiso   1.00
N576   N     0.70711   0.40796   0.03947   0.00000  Uiso   1.00
O577   O     0.73045   0.38547   0.05482   0.00000  Uiso   1.00
O578   O     0.67312   0.39818   0.03622   0.00000  Uiso   1.00
N579   N     0.90794   0.20715   0.96053   0.00000  Uiso   1.00
O580   O     0.88547   0.23049   0.94517   0.00000  Uiso   1.00
O581   O     0.89815   0.17316   0.96378   0.00000  Uiso   1.00
N582   N     0.58957   0.29736   0.04035   0.00000  Uiso   1.00
O583   O     0.58387   0.32871   0.05696   0.00000  Uiso   1.00
O584   O     0.62279   0.28533   0.03687   0.00000  Uiso   1.00
H585   H     0.62069   0.42615   0.20305   0.00000  Uiso   1.00
H586   H     0.87932   0.07385   0.79694   0.00000  Uiso   1.00
H587   H     0.57232   0.11912   0.20520   0.00000  Uiso   1.00
H588   H     0.92768   0.38088   0.79479   0.00000  Uiso   1.00
H589   H     0.87931   0.07385   0.20305   0.00000  Uiso   1.00
H590   H     0.62068   0.42615   0.79694   0.00000  Uiso   1.00
H591   H     0.92768   0.38088   0.20521   0.00000  Uiso   1.00
H592   H     0.57232   0.11912   0.79480   0.00000  Uiso   1.00
H593   H     0.61912   0.07232   0.79480   0.00000  Uiso   1.00
H594   H     0.88088   0.42768   0.20521   0.00000  Uiso   1.00
H595   H     0.57385   0.37931   0.79695   0.00000  Uiso   1.00
H596   H     0.92616   0.12068   0.20306   0.00000  Uiso   1.00
H597   H     0.88088   0.42768   0.79480   0.00000  Uiso   1.00
H598   H     0.61912   0.07232   0.20520   0.00000  Uiso   1.00
H599   H     0.92615   0.12069   0.79695   0.00000  Uiso   1.00
H600   H     0.57384   0.37932   0.20306   0.00000  Uiso   1.00
H601   H     0.87069   0.17615   0.70305   0.00000  Uiso   1.00
H602   H     0.62932   0.32385   0.29694   0.00000  Uiso   1.00
H603   H     0.82232   0.36912   0.70521   0.00000  Uiso   1.00
H604   H     0.67768   0.13088   0.29480   0.00000  Uiso   1.00
H605   H     0.62931   0.32385   0.70305   0.00000  Uiso   1.00
H606   H     0.87068   0.17616   0.29694   0.00000  Uiso   1.00
H607   H     0.67768   0.13088   0.70520   0.00000  Uiso   1.00
H608   H     0.82232   0.36912   0.29479   0.00000  Uiso   1.00
H609   H     0.86912   0.32232   0.29479   0.00000  Uiso   1.00
H610   H     0.63088   0.17768   0.70521   0.00000  Uiso   1.00
H611   H     0.82385   0.12931   0.29695   0.00000  Uiso   1.00
H612   H     0.67615   0.37068   0.70306   0.00000  Uiso   1.00
H613   H     0.63088   0.17768   0.29480   0.00000  Uiso   1.00
H614   H     0.86912   0.32232   0.70521   0.00000  Uiso   1.00
H615   H     0.67615   0.37069   0.29695   0.00000  Uiso   1.00
H616   H     0.82385   0.12932   0.70305   0.00000  Uiso   1.00
N617   N     0.51415   0.31508   0.39642   0.00000  Uiso   1.00
O618   O     0.53971   0.31890   0.37052   0.00000  Uiso   1.00
O619   O     0.99007   0.34077   0.40084   0.00000  Uiso   1.00
N620   N     0.95941   0.19722   0.60374   0.00000  Uiso   1.00
O621   O     0.97464   0.17523   0.62859   0.00000  Uiso   1.00
O622   O     0.92405   0.20000   0.60289   0.00000  Uiso   1.00
N623   N     0.69720   0.45943   0.39627   0.00000  Uiso   1.00
O624   O     0.67525   0.47465   0.37138   0.00000  Uiso   1.00
O625   O     0.69993   0.42407   0.39718   0.00000  Uiso   1.00
N626   N     0.81507   0.01416   0.60361   0.00000  Uiso   1.00
O627   O     0.81890   0.03980   0.62942   0.00000  Uiso   1.00
O628   O     0.84071   0.48999   0.59935   0.00000  Uiso   1.00
N629   N     0.98585   0.18492   0.39642   0.00000  Uiso   1.00
O630   O     0.96030   0.18110   0.37051   0.00000  Uiso   1.00
O631   O     0.50993   0.15922   0.40086   0.00000  Uiso   1.00
N632   N     0.54058   0.30279   0.60374   0.00000  Uiso   1.00
O633   O     0.52536   0.32477   0.62859   0.00000  Uiso   1.00
O634   O     0.57594   0.30000   0.60290   0.00000  Uiso   1.00
N635   N     0.80280   0.04057   0.39628   0.00000  Uiso   1.00
O636   O     0.82473   0.02538   0.37135   0.00000  Uiso   1.00
O637   O     0.80009   0.07594   0.39725   0.00000  Uiso   1.00
N638   N     0.68492   0.48586   0.60359   0.00000  Uiso   1.00
O639   O     0.68109   0.46027   0.62945   0.00000  Uiso   1.00
O640   O     0.65926   0.01000   0.59924   0.00000  Uiso   1.00
N641   N     0.76405   0.06507   0.89632   0.00000  Uiso   1.00
O642   O     0.78991   0.06894   0.87076   0.00000  Uiso   1.00
O643   O     0.73959   0.09051   0.90008   0.00000  Uiso   1.00
N644   N     0.70959   0.44706   0.10371   0.00000  Uiso   1.00
O645   O     0.72480   0.42527   0.12876   0.00000  Uiso   1.00
O646   O     0.67421   0.44952   0.10251   0.00000  Uiso   1.00
N647   N     0.94706   0.20959   0.89629   0.00000  Uiso   1.00
O648   O     0.92528   0.22479   0.87123   0.00000  Uiso   1.00
O649   O     0.94951   0.17422   0.89751   0.00000  Uiso   1.00
N650   N     0.56509   0.26399   0.10367   0.00000  Uiso   1.00
O651   O     0.56897   0.28980   0.12928   0.00000  Uiso   1.00
O652   O     0.59053   0.23954   0.09984   0.00000  Uiso   1.00
N653   N     0.73602   0.43491   0.89636   0.00000  Uiso   1.00
O654   O     0.71029   0.43101   0.87067   0.00000  Uiso   1.00
O655   O     0.76040   0.40943   0.90036   0.00000  Uiso   1.00
N656   N     0.79042   0.05293   0.10369   0.00000  Uiso   1.00
O657   O     0.77526   0.07469   0.12882   0.00000  Uiso   1.00
O658   O     0.82579   0.05053   0.10235   0.00000  Uiso   1.00
N659   N     0.55293   0.29042   0.89631   0.00000  Uiso   1.00
O660   O     0.57468   0.27527   0.87118   0.00000  Uiso   1.00
O661   O     0.55053   0.32580   0.89766   0.00000  Uiso   1.00
N662   N     0.93490   0.23605   0.10364   0.00000  Uiso   1.00
O663   O     0.93100   0.21032   0.12934   0.00000  Uiso   1.00
O664   O     0.90943   0.26044   0.09964   0.00000  Uiso   1.00
Zn665  Zn    0.20659   0.50000   0.21735   0.00000  Uiso   1.00
Zn666  Zn    0.29340   0.50000   0.78265   0.00000  Uiso   1.00
Zn667  Zn    0.00000   0.70659   0.21735   0.00000  Uiso   1.00
Zn668  Zn   -0.00000   0.79341   0.78265   0.00000  Uiso   1.00
Zn669  Zn    0.29340   0.50000   0.21735   0.00000  Uiso   1.00
Zn670  Zn    0.20659   0.50000   0.78265   0.00000  Uiso   1.00
Zn671  Zn    0.00000   0.79340   0.21735   0.00000  Uiso   1.00
Zn672  Zn   -0.00000   0.70660   0.78265   0.00000  Uiso   1.00
Zn673  Zn    0.45659   0.75000   0.71735   0.00000  Uiso   1.00
Zn674  Zn    0.04340   0.75000   0.28265   0.00000  Uiso   1.00
Zn675  Zn    0.25000   0.95659   0.71735   0.00000  Uiso   1.00
Zn676  Zn    0.25000   0.54341   0.28265   0.00000  Uiso   1.00
Zn677  Zn    0.04340   0.75000   0.71735   0.00000  Uiso   1.00
Zn678  Zn    0.45659   0.75000   0.28265   0.00000  Uiso   1.00
Zn679  Zn    0.25000   0.54341   0.71735   0.00000  Uiso   1.00
Zn680  Zn    0.25000   0.95659   0.28265   0.00000  Uiso   1.00
C681   C     0.01042   0.78158   0.41774   0.00000  Uiso   1.00
C682   C     0.48128   0.72246   0.58192   0.00000  Uiso   1.00
C683   C     0.22245   0.98130   0.41808   0.00000  Uiso   1.00
C684   C     0.28159   0.51039   0.58226   0.00000  Uiso   1.00
C685   C     0.48958   0.71841   0.41774   0.00000  Uiso   1.00
C686   C     0.01872   0.77754   0.58192   0.00000  Uiso   1.00
C687   C     0.27756   0.51869   0.41808   0.00000  Uiso   1.00
C688   C     0.21841   0.98960   0.58226   0.00000  Uiso   1.00
C689   C     0.26027   0.53164   0.91773   0.00000  Uiso   1.00
C690   C     0.23142   0.97236   0.08192   0.00000  Uiso   1.00
C691   C     0.47236   0.73143   0.91808   0.00000  Uiso   1.00
C692   C     0.03164   0.76025   0.08227   0.00000  Uiso   1.00
C693   C     0.23972   0.96837   0.91774   0.00000  Uiso   1.00
C694   C     0.26855   0.52765   0.08192   0.00000  Uiso   1.00
C695   C     0.02765   0.76855   0.91808   0.00000  Uiso   1.00
C696   C     0.46837   0.73974   0.08226   0.00000  Uiso   1.00
C697   C     0.00000   0.75000   0.39785   0.00000  Uiso   1.00
C698   C     0.00000   0.75000   0.60186   0.00000  Uiso   1.00
C699   C     0.25000   0.50000   0.39814   0.00000  Uiso   1.00
C700   C     0.25000   0.50000   0.60215   0.00000  Uiso   1.00
C701   C     0.25000   0.50000   0.89785   0.00000  Uiso   1.00
C702   C     0.24999   0.50000   0.10187   0.00000  Uiso   1.00
C703   C     0.00000   0.74999   0.89814   0.00000  Uiso   1.00
C704   C     0.00000   0.75000   0.10215   0.00000  Uiso   1.00
O705   O     0.25000   0.50000   0.25000   0.00000  Uiso   1.00
O706   O     0.25000   0.50000   0.75000   0.00000  Uiso   1.00
O707   O    -0.00000   0.75000   0.25000   0.00000  Uiso   1.00
O708   O    -0.00000   0.75000   0.75000   0.00000  Uiso   1.00
O709   O     0.25000   0.96963   0.33755   0.00000  Uiso   1.00
O710   O     0.25000   0.53037   0.66245   0.00000  Uiso   1.00
O711   O     0.03036   0.75000   0.33755   0.00000  Uiso   1.00
O712   O     0.46963   0.75000   0.66245   0.00000  Uiso   1.00
O713   O     0.25000   0.53037   0.33755   0.00000  Uiso   1.00
O714   O     0.25000   0.96963   0.66245   0.00000  Uiso   1.00
O715   O     0.46963   0.75000   0.33755   0.00000  Uiso   1.00
O716   O     0.03036   0.75000   0.66245   0.00000  Uiso   1.00
O717   O    -0.00000   0.71964   0.83755   0.00000  Uiso   1.00
O718   O    -0.00000   0.78037   0.16245   0.00000  Uiso   1.00
O719   O     0.28036   0.50000   0.83755   0.00000  Uiso   1.00
O720   O     0.21963   0.50000   0.16245   0.00000  Uiso   1.00
O721   O     0.00000   0.78036   0.83755   0.00000  Uiso   1.00
O722   O    -0.00000   0.71964   0.16245   0.00000  Uiso   1.00
O723   O     0.21963   0.50000   0.83755   0.00000  Uiso   1.00
O724   O     0.28036   0.50000   0.16245   0.00000  Uiso   1.00
O725   O     0.20724   0.57308   0.27302   0.00000  Uiso   1.00
O726   O     0.29275   0.92692   0.72698   0.00000  Uiso   1.00
O727   O     0.42692   0.70725   0.27302   0.00000  Uiso   1.00
O728   O     0.07307   0.79275   0.72698   0.00000  Uiso   1.00
O729   O     0.29275   0.92692   0.27302   0.00000  Uiso   1.00
O730   O     0.20724   0.57308   0.72698   0.00000  Uiso   1.00
O731   O     0.07307   0.79275   0.27302   0.00000  Uiso   1.00
O732   O     0.42692   0.70725   0.72698   0.00000  Uiso   1.00
O733   O     0.20724   0.92692   0.72698   0.00000  Uiso   1.00
O734   O     0.29275   0.57308   0.27302   0.00000  Uiso   1.00
O735   O     0.42692   0.79276   0.72698   0.00000  Uiso   1.00
O736   O     0.07307   0.70724   0.27302   0.00000  Uiso   1.00
O737   O     0.29275   0.57308   0.72698   0.00000  Uiso   1.00
O738   O     0.20724   0.92692   0.27302   0.00000  Uiso   1.00
O739   O     0.07307   0.70724   0.72698   0.00000  Uiso   1.00
O740   O     0.42692   0.79276   0.27302   0.00000  Uiso   1.00
O741   O     0.45724   0.82308   0.77302   0.00000  Uiso   1.00
O742   O     0.04275   0.67692   0.22698   0.00000  Uiso   1.00
O743   O     0.17692   0.95724   0.77302   0.00000  Uiso   1.00
O744   O     0.32307   0.54276   0.22698   0.00000  Uiso   1.00
O745   O     0.04275   0.67692   0.77302   0.00000  Uiso   1.00
O746   O     0.45724   0.82308   0.22698   0.00000  Uiso   1.00
O747   O     0.32307   0.54276   0.77302   0.00000  Uiso   1.00
O748   O     0.17692   0.95724   0.22698   0.00000  Uiso   1.00
O749   O     0.45724   0.67693   0.22698   0.00000  Uiso   1.00
O750   O     0.04275   0.82307   0.77302   0.00000  Uiso   1.00
O751   O     0.17692   0.54276   0.22698   0.00000  Uiso   1.00
O752   O     0.32307   0.95724   0.77302   0.00000  Uiso   1.00
O753   O     0.04275   0.82307   0.22698   0.00000  Uiso   1.00
O754   O     0.45724   0.67693   0.77302   0.00000  Uiso   1.00
O755   O     0.32307   0.95724   0.22698   0.00000  Uiso   1.00
O756   O     0.17692   0.54276   0.77302   0.00000  Uiso   1.00
C757   C     0.47004   0.69014   0.47936   0.00000  Uiso   1.00
C758   C     0.03048   0.80969   0.51998   0.00000  Uiso   1.00
C759   C     0.30976   0.53034   0.48001   0.00000  Uiso   1.00
C760   C     0.19011   0.97011   0.52064   0.00000  Uiso   1.00
C761   C     0.02996   0.80986   0.47936   0.00000  Uiso   1.00
C762   C     0.46953   0.69031   0.51998   0.00000  Uiso   1.00
C763   C     0.19027   0.96960   0.48002   0.00000  Uiso   1.00
C764   C     0.30993   0.52983   0.52063   0.00000  Uiso   1.00
C765   C     0.22054   0.93989   0.97939   0.00000  Uiso   1.00
C766   C     0.27983   0.56000   0.02002   0.00000  Uiso   1.00
C767   C     0.06000   0.77983   0.97998   0.00000  Uiso   1.00
C768   C     0.43988   0.72056   0.02061   0.00000  Uiso   1.00
C769   C     0.27933   0.56018   0.97940   0.00000  Uiso   1.00
C770   C     0.22004   0.94006   0.02001   0.00000  Uiso   1.00
C771   C     0.44005   0.72006   0.97999   0.00000  Uiso   1.00
C772   C     0.06018   0.77933   0.02061   0.00000  Uiso   1.00
C773   C     0.25000   0.50000   0.35578   0.00000  Uiso   1.00
C774   C     0.25000   0.50000   0.64432   0.00000  Uiso   1.00
C775   C     0.00000   0.75000   0.35569   0.00000  Uiso   1.00
C776   C    -0.00000   0.75000   0.64422   0.00000  Uiso   1.00
C777   C     0.00000   0.75000   0.85578   0.00000  Uiso   1.00
C778   C    -0.00000   0.75000   0.14432   0.00000  Uiso   1.00
C779   C     0.25000   0.50000   0.85569   0.00000  Uiso   1.00
C780   C     0.25000   0.50000   0.14422   0.00000  Uiso   1.00
C781   C     0.17993   0.57007   0.25000   0.00000  Uiso   1.00
C782   C     0.32007   0.92993   0.75000   0.00000  Uiso   1.00
C783   C     0.42994   0.67994   0.25000   0.00000  Uiso   1.00
C784   C     0.07006   0.82006   0.75000   0.00000  Uiso   1.00
C785   C     0.32007   0.92993   0.25000   0.00000  Uiso   1.00
C786   C     0.17993   0.57007   0.75000   0.00000  Uiso   1.00
C787   C     0.07006   0.82006   0.25000   0.00000  Uiso   1.00
C788   C     0.42994   0.67994   0.75000   0.00000  Uiso   1.00
C789   C     0.17994   0.92994   0.75000   0.00000  Uiso   1.00
C790   C     0.32006   0.57006   0.25000   0.00000  Uiso   1.00
C791   C     0.42993   0.82007   0.75000   0.00000  Uiso   1.00
C792   C     0.07007   0.67993   0.25000   0.00000  Uiso   1.00
C793   C     0.32006   0.57006   0.75000   0.00000  Uiso   1.00
C794   C     0.17994   0.92994   0.25000   0.00000  Uiso   1.00
C795   C     0.07007   0.67993   0.75000   0.00000  Uiso   1.00
C796   C     0.42993   0.82007   0.25000   0.00000  Uiso   1.00
C797   C     0.12279   0.90395   0.22368   0.00000  Uiso   1.00
C798   C     0.37722   0.59605   0.77632   0.00000  Uiso   1.00
C799   C     0.09521   0.62193   0.22487   0.00000  Uiso   1.00
C800   C     0.40479   0.87807   0.77513   0.00000  Uiso   1.00
C801   C     0.37721   0.59605   0.22368   0.00000  Uiso   1.00
C802   C     0.12278   0.90395   0.77632   0.00000  Uiso   1.00
C803   C     0.40479   0.87807   0.22487   0.00000  Uiso   1.00
C804   C     0.09521   0.62193   0.77513   0.00000  Uiso   1.00
C805   C     0.12193   0.59521   0.77514   0.00000  Uiso   1.00
C806   C     0.37807   0.90479   0.22487   0.00000  Uiso   1.00
C807   C     0.09605   0.87721   0.77632   0.00000  Uiso   1.00
C808   C     0.40395   0.62278   0.22368   0.00000  Uiso   1.00
C809   C     0.37807   0.90479   0.77513   0.00000  Uiso   1.00
C810   C     0.12193   0.59521   0.22487   0.00000  Uiso   1.00
C811   C     0.40395   0.62279   0.77632   0.00000  Uiso   1.00
C812   C     0.09605   0.87722   0.22368   0.00000  Uiso   1.00
C813   C     0.37279   0.65395   0.72368   0.00000  Uiso   1.00
C814   C     0.12722   0.84605   0.27632   0.00000  Uiso   1.00
C815   C     0.34521   0.87193   0.72487   0.00000  Uiso   1.00
C816   C     0.15479   0.62807   0.27513   0.00000  Uiso   1.00
C817   C     0.12721   0.84605   0.72368   0.00000  Uiso   1.00
C818   C     0.37278   0.65395   0.27632   0.00000  Uiso   1.00
C819   C     0.15479   0.62807   0.72487   0.00000  Uiso   1.00
C820   C     0.34521   0.87193   0.27513   0.00000  Uiso   1.00
C821   C     0.37193   0.84521   0.27513   0.00000  Uiso   1.00
C822   C     0.12807   0.65479   0.72487   0.00000  Uiso   1.00
C823   C     0.34605   0.62721   0.27632   0.00000  Uiso   1.00
C824   C     0.15395   0.87278   0.72368   0.00000  Uiso   1.00
C825   C     0.12807   0.65479   0.27513   0.00000  Uiso   1.00
C826   C     0.37193   0.84521   0.72487   0.00000  Uiso   1.00
C827   C     0.15395   0.87279   0.27632   0.00000  Uiso   1.00
C828   C     0.34605   0.62722   0.72368   0.00000  Uiso   1.00
C829   C     0.48624   0.71929   0.45863   0.00000  Uiso   1.00
C830   C     0.01643   0.77947   0.54095   0.00000  Uiso   1.00
C831   C     0.27950   0.51637   0.45905   0.00000  Uiso   1.00
C832   C     0.21928   0.98626   0.54137   0.00000  Uiso   1.00
C833   C     0.01376   0.78071   0.45863   0.00000  Uiso   1.00
C834   C     0.48357   0.72053   0.54095   0.00000  Uiso   1.00
C835   C     0.22051   0.98360   0.45905   0.00000  Uiso   1.00
C836   C     0.28074   0.51371   0.54137   0.00000  Uiso   1.00
C837   C     0.23644   0.96919   0.95864   0.00000  Uiso   1.00
C838   C     0.26615   0.52961   0.04096   0.00000  Uiso   1.00
C839   C     0.02961   0.76615   0.95904   0.00000  Uiso   1.00
C840   C     0.46918   0.73645   0.04136   0.00000  Uiso   1.00
C841   C     0.26350   0.53085   0.95864   0.00000  Uiso   1.00
C842   C     0.23378   0.97042   0.04096   0.00000  Uiso   1.00
C843   C     0.47042   0.73379   0.95905   0.00000  Uiso   1.00
C844   C     0.03085   0.76349   0.04136   0.00000  Uiso   1.00
C845   C     0.09813   0.84813   0.25000   0.00000  Uiso   1.00
C846   C     0.40187   0.65187   0.75000   0.00000  Uiso   1.00
C847   C     0.15187   0.59813   0.25000   0.00000  Uiso   1.00
C848   C     0.34813   0.90187   0.75000   0.00000  Uiso   1.00
C849   C     0.40187   0.65187   0.25000   0.00000  Uiso   1.00
C850   C     0.09813   0.84813   0.75000   0.00000  Uiso   1.00
C851   C     0.34813   0.90187   0.25000   0.00000  Uiso   1.00
C852   C     0.15187   0.59813   0.75000   0.00000  Uiso   1.00
C853   C     0.09813   0.65187   0.75000   0.00000  Uiso   1.00
C854   C     0.40187   0.84813   0.25000   0.00000  Uiso   1.00
C855   C     0.15187   0.90187   0.75000   0.00000  Uiso   1.00
C856   C     0.34813   0.59813   0.25000   0.00000  Uiso   1.00
C857   C     0.40187   0.84813   0.75000   0.00000  Uiso   1.00
C858   C     0.09813   0.65187   0.25000   0.00000  Uiso   1.00
C859   C     0.34813   0.59813   0.75000   0.00000  Uiso   1.00
C860   C     0.15187   0.90187   0.25000   0.00000  Uiso   1.00
C861   C     0.00000   0.75000   0.47924   0.00000  Uiso   1.00
C862   C     0.00000   0.75000   0.52038   0.00000  Uiso   1.00
C863   C     0.25001   0.99998   0.47962   0.00000  Uiso   1.00
C864   C     0.25001   0.99998   0.52076   0.00000  Uiso   1.00
C865   C     0.24996   0.50002   0.97924   0.00000  Uiso   1.00
C866   C     0.24996   0.50002   0.02039   0.00000  Uiso   1.00
C867   C     0.00002   0.74997   0.97961   0.00000  Uiso   1.00
C868   C     0.00002   0.74997   0.02076   0.00000  Uiso   1.00
N869   N     0.45157   0.66105   0.45956   0.00000  Uiso   1.00
O870   O     0.42051   0.66735   0.44258   0.00000  Uiso   1.00
O871   O     0.46292   0.62761   0.46322   0.00000  Uiso   1.00
N872   N     0.04384   0.84162   0.53941   0.00000  Uiso   1.00
O873   O     0.02080   0.86454   0.55454   0.00000  Uiso   1.00
O874   O     0.07799   0.85084   0.53626   0.00000  Uiso   1.00
N875   N     0.34174   0.54358   0.46057   0.00000  Uiso   1.00
O876   O     0.36452   0.52046   0.44536   0.00000  Uiso   1.00
O877   O     0.35112   0.57768   0.46376   0.00000  Uiso   1.00
N878   N     0.16097   0.95170   0.54043   0.00000  Uiso   1.00
O879   O     0.16719   0.92060   0.55735   0.00000  Uiso   1.00
O880   O     0.12756   0.96314   0.53680   0.00000  Uiso   1.00
N881   N     0.04843   0.83895   0.45956   0.00000  Uiso   1.00
O882   O     0.07949   0.83265   0.44258   0.00000  Uiso   1.00
O883   O     0.03708   0.87239   0.46321   0.00000  Uiso   1.00
N884   N     0.45617   0.65837   0.53941   0.00000  Uiso   1.00
O885   O     0.47921   0.63546   0.55454   0.00000  Uiso   1.00
O886   O     0.42202   0.64915   0.53626   0.00000  Uiso   1.00
N887   N     0.15831   0.95632   0.46058   0.00000  Uiso   1.00
O888   O     0.13547   0.97941   0.44541   0.00000  Uiso   1.00
O889   O     0.14899   0.92219   0.46375   0.00000  Uiso   1.00
N890   N     0.33909   0.54820   0.54042   0.00000  Uiso   1.00
O891   O     0.33293   0.57934   0.55728   0.00000  Uiso   1.00
O892   O     0.37248   0.53669   0.53682   0.00000  Uiso   1.00
N893   N     0.20243   0.91055   0.95963   0.00000  Uiso   1.00
O894   O     0.17115   0.91638   0.94292   0.00000  Uiso   1.00
O895   O     0.21432   0.87729   0.96316   0.00000  Uiso   1.00
N896   N     0.29266   0.59214   0.03949   0.00000  Uiso   1.00
O897   O     0.26926   0.61450   0.05493   0.00000  Uiso   1.00
O898   O     0.32661   0.60204   0.03620   0.00000  Uiso   1.00
N899   N     0.09214   0.79266   0.96051   0.00000  Uiso   1.00
O900   O     0.11450   0.76926   0.94507   0.00000  Uiso   1.00
O901   O     0.10206   0.82661   0.96380   0.00000  Uiso   1.00
N902   N     0.41053   0.70247   0.04037   0.00000  Uiso   1.00
O903   O     0.41635   0.67119   0.05709   0.00000  Uiso   1.00
O904   O     0.37727   0.71437   0.03684   0.00000  Uiso   1.00
N905   N     0.29734   0.58958   0.95965   0.00000  Uiso   1.00
O906   O     0.32872   0.58391   0.94310   0.00000  Uiso   1.00
O907   O     0.28527   0.62279   0.96311   0.00000  Uiso   1.00
N908   N     0.20711   0.90796   0.03947   0.00000  Uiso   1.00
O909   O     0.23045   0.88547   0.05482   0.00000  Uiso   1.00
O910   O     0.17312   0.89818   0.03622   0.00000  Uiso   1.00
N911   N     0.40794   0.70715   0.96053   0.00000  Uiso   1.00
O912   O     0.38547   0.73049   0.94517   0.00000  Uiso   1.00
O913   O     0.39815   0.67316   0.96378   0.00000  Uiso   1.00
N914   N     0.08957   0.79736   0.04035   0.00000  Uiso   1.00
O915   O     0.08387   0.82871   0.05696   0.00000  Uiso   1.00
O916   O     0.12279   0.78533   0.03687   0.00000  Uiso   1.00
H917   H     0.12069   0.92615   0.20305   0.00000  Uiso   1.00
H918   H     0.37932   0.57385   0.79694   0.00000  Uiso   1.00
H919   H     0.07232   0.61912   0.20520   0.00000  Uiso   1.00
H920   H     0.42768   0.88088   0.79479   0.00000  Uiso   1.00
H921   H     0.37931   0.57385   0.20305   0.00000  Uiso   1.00
H922   H     0.12068   0.92615   0.79694   0.00000  Uiso   1.00
H923   H     0.42768   0.88088   0.20521   0.00000  Uiso   1.00
H924   H     0.07232   0.61912   0.79480   0.00000  Uiso   1.00
H925   H     0.11912   0.57232   0.79480   0.00000  Uiso   1.00
H926   H     0.38088   0.92768   0.20521   0.00000  Uiso   1.00
H927   H     0.07385   0.87931   0.79695   0.00000  Uiso   1.00
H928   H     0.42616   0.62068   0.20306   0.00000  Uiso   1.00
H929   H     0.38088   0.92768   0.79480   0.00000  Uiso   1.00
H930   H     0.11912   0.57232   0.20520   0.00000  Uiso   1.00
H931   H     0.42615   0.62069   0.79695   0.00000  Uiso   1.00
H932   H     0.07384   0.87932   0.20306   0.00000  Uiso   1.00
H933   H     0.37069   0.67615   0.70305   0.00000  Uiso   1.00
H934   H     0.12932   0.82385   0.29694   0.00000  Uiso   1.00
H935   H     0.32232   0.86912   0.70521   0.00000  Uiso   1.00
H936   H     0.17768   0.63088   0.29480   0.00000  Uiso   1.00
H937   H     0.12931   0.82385   0.70305   0.00000  Uiso   1.00
H938   H     0.37068   0.67616   0.29694   0.00000  Uiso   1.00
H939   H     0.17768   0.63088   0.70520   0.00000  Uiso   1.00
H940   H     0.32232   0.86912   0.29479   0.00000  Uiso   1.00
H941   H     0.36912   0.82232   0.29479   0.00000  Uiso   1.00
H942   H     0.13088   0.67768   0.70521   0.00000  Uiso   1.00
H943   H     0.32385   0.62931   0.29695   0.00000  Uiso   1.00
H944   H     0.17615   0.87068   0.70306   0.00000  Uiso   1.00
H945   H     0.13088   0.67768   0.29480   0.00000  Uiso   1.00
H946   H     0.36912   0.82232   0.70521   0.00000  Uiso   1.00
H947   H     0.17615   0.87069   0.29695   0.00000  Uiso   1.00
H948   H     0.32385   0.62932   0.70305   0.00000  Uiso   1.00
N949   N     0.01415   0.81508   0.39642   0.00000  Uiso   1.00
O950   O     0.03971   0.81890   0.37052   0.00000  Uiso   1.00
O951   O     0.49007   0.84077   0.40084   0.00000  Uiso   1.00
N952   N     0.45941   0.69722   0.60374   0.00000  Uiso   1.00
O953   O     0.47464   0.67523   0.62859   0.00000  Uiso   1.00
O954   O     0.42405   0.70000   0.60289   0.00000  Uiso   1.00
N955   N     0.19720   0.95943   0.39627   0.00000  Uiso   1.00
O956   O     0.17525   0.97465   0.37138   0.00000  Uiso   1.00
O957   O     0.19993   0.92407   0.39718   0.00000  Uiso   1.00
N958   N     0.31507   0.51416   0.60361   0.00000  Uiso   1.00
O959   O     0.31890   0.53980   0.62942   0.00000  Uiso   1.00
O960   O     0.34071   0.98999   0.59935   0.00000  Uiso   1.00
N961   N     0.48585   0.68492   0.39642   0.00000  Uiso   1.00
O962   O     0.46030   0.68110   0.37051   0.00000  Uiso   1.00
O963   O     0.00993   0.65922   0.40086   0.00000  Uiso   1.00
N964   N     0.04058   0.80279   0.60374   0.00000  Uiso   1.00
O965   O     0.02536   0.82477   0.62859   0.00000  Uiso   1.00
O966   O     0.07594   0.80000   0.60290   0.00000  Uiso   1.00
N967   N     0.30280   0.54057   0.39628   0.00000  Uiso   1.00
O968   O     0.32473   0.52538   0.37135   0.00000  Uiso   1.00
O969   O     0.30009   0.57594   0.39725   0.00000  Uiso   1.00
N970   N     0.18492   0.98586   0.60359   0.00000  Uiso   1.00
O971   O     0.18109   0.96027   0.62945   0.00000  Uiso   1.00
O972   O     0.15926   0.51000   0.59924   0.00000  Uiso   1.00
N973   N     0.26405   0.56507   0.89632   0.00000  Uiso   1.00
O974   O     0.28991   0.56894   0.87076   0.00000  Uiso   1.00
O975   O     0.23959   0.59051   0.90008   0.00000  Uiso   1.00
N976   N     0.20959   0.94706   0.10371   0.00000  Uiso   1.00
O977   O     0.22480   0.92527   0.12876   0.00000  Uiso   1.00
O978   O     0.17421   0.94952   0.10251   0.00000  Uiso   1.00
N979   N     0.44706   0.70959   0.89629   0.00000  Uiso   1.00
O980   O     0.42528   0.72479   0.87123   0.00000  Uiso   1.00
O981   O     0.44951   0.67422   0.89751   0.00000  Uiso   1.00
N982   N     0.06509   0.76399   0.10367   0.00000  Uiso   1.00
O983   O     0.06897   0.78980   0.12928   0.00000  Uiso   1.00
O984   O     0.09053   0.73954   0.09984   0.00000  Uiso   1.00
N985   N     0.23602   0.93491   0.89636   0.00000  Uiso   1.00
O986   O     0.21029   0.93101   0.87067   0.00000  Uiso   1.00
O987   O     0.26040   0.90943   0.90036   0.00000  Uiso   1.00
N988   N     0.29042   0.55293   0.10369   0.00000  Uiso   1.00
O989   O     0.27526   0.57469   0.12882   0.00000  Uiso   1.00
O990   O     0.32579   0.55053   0.10235   0.00000  Uiso   1.00
N991   N     0.05293   0.79042   0.89631   0.00000  Uiso   1.00
O992   O     0.07468   0.77527   0.87118   0.00000  Uiso   1.00
O993   O     0.05053   0.82580   0.89766   0.00000  Uiso   1.00
N994   N     0.43490   0.73605   0.10364   0.00000  Uiso   1.00
O995   O     0.43100   0.71032   0.12934   0.00000  Uiso   1.00
O996   O     0.40943   0.76044   0.09964   0.00000  Uiso   1.00
Zn997  Zn    0.70659   0.50000   0.21735   0.00000  Uiso   1.00
Zn998  Zn    0.79340   0.50000   0.78265   0.00000  Uiso   1.00
Zn999  Zn    0.50000   0.70659   0.21735   0.00000  Uiso   1.00
Zn1000 Zn    0.50000   0.79341   0.78265   0.00000  Uiso   1.00
Zn1001 Zn    0.79340   0.50000   0.21735   0.00000  Uiso   1.00
Zn1002 Zn    0.70659   0.50000   0.78265   0.00000  Uiso   1.00
Zn1003 Zn    0.50000   0.79340   0.21735   0.00000  Uiso   1.00
Zn1004 Zn    0.50000   0.70660   0.78265   0.00000  Uiso   1.00
Zn1005 Zn    0.95659   0.75000   0.71735   0.00000  Uiso   1.00
Zn1006 Zn    0.54340   0.75000   0.28265   0.00000  Uiso   1.00
Zn1007 Zn    0.75000   0.95659   0.71735   0.00000  Uiso   1.00
Zn1008 Zn    0.75000   0.54341   0.28265   0.00000  Uiso   1.00
Zn1009 Zn    0.54340   0.75000   0.71735   0.00000  Uiso   1.00
Zn1010 Zn    0.95659   0.75000   0.28265   0.00000  Uiso   1.00
Zn1011 Zn    0.75000   0.54341   0.71735   0.00000  Uiso   1.00
Zn1012 Zn    0.75000   0.95659   0.28265   0.00000  Uiso   1.00
C1013  C     0.51042   0.78158   0.41774   0.00000  Uiso   1.00
C1014  C     0.98128   0.72246   0.58192   0.00000  Uiso   1.00
C1015  C     0.72245   0.98130   0.41808   0.00000  Uiso   1.00
C1016  C     0.78159   0.51039   0.58226   0.00000  Uiso   1.00
C1017  C     0.98958   0.71841   0.41774   0.00000  Uiso   1.00
C1018  C     0.51872   0.77754   0.58192   0.00000  Uiso   1.00
C1019  C     0.77756   0.51869   0.41808   0.00000  Uiso   1.00
C1020  C     0.71841   0.98960   0.58226   0.00000  Uiso   1.00
C1021  C     0.76027   0.53164   0.91773   0.00000  Uiso   1.00
C1022  C     0.73142   0.97236   0.08192   0.00000  Uiso   1.00
C1023  C     0.97236   0.73143   0.91808   0.00000  Uiso   1.00
C1024  C     0.53164   0.76025   0.08227   0.00000  Uiso   1.00
C1025  C     0.73972   0.96837   0.91774   0.00000  Uiso   1.00
C1026  C     0.76855   0.52765   0.08192   0.00000  Uiso   1.00
C1027  C     0.52765   0.76855   0.91808   0.00000  Uiso   1.00
C1028  C     0.96837   0.73974   0.08226   0.00000  Uiso   1.00
C1029  C     0.50000   0.75000   0.39785   0.00000  Uiso   1.00
C1030  C     0.50000   0.75000   0.60186   0.00000  Uiso   1.00
C1031  C     0.75000   0.50000   0.39814   0.00000  Uiso   1.00
C1032  C     0.75000   0.50000   0.60215   0.00000  Uiso   1.00
C1033  C     0.75000   0.50000   0.89785   0.00000  Uiso   1.00
C1034  C     0.74999   0.50000   0.10187   0.00000  Uiso   1.00
C1035  C     0.50000   0.74999   0.89814   0.00000  Uiso   1.00
C1036  C     0.50000   0.75000   0.10215   0.00000  Uiso   1.00
O1037  O     0.75000   0.50000   0.25000   0.00000  Uiso   1.00
O1038  O     0.75000   0.50000   0.75000   0.00000  Uiso   1.00
O1039  O     0.50000   0.75000   0.25000   0.00000  Uiso   1.00
O1040  O     0.50000   0.75000   0.75000   0.00000  Uiso   1.00
O1041  O     0.75000   0.96963   0.33755   0.00000  Uiso   1.00
O1042  O     0.75000   0.53037   0.66245   0.00000  Uiso   1.00
O1043  O     0.53036   0.75000   0.33755   0.00000  Uiso   1.00
O1044  O     0.96963   0.75000   0.66245   0.00000  Uiso   1.00
O1045  O     0.75000   0.53037   0.33755   0.00000  Uiso   1.00
O1046  O     0.75000   0.96963   0.66245   0.00000  Uiso   1.00
O1047  O     0.96963   0.75000   0.33755   0.00000  Uiso   1.00
O1048  O     0.53036   0.75000   0.66245   0.00000  Uiso   1.00
O1049  O     0.50000   0.71964   0.83755   0.00000  Uiso   1.00
O1050  O     0.50000   0.78037   0.16245   0.00000  Uiso   1.00
O1051  O     0.78036   0.50000   0.83755   0.00000  Uiso   1.00
O1052  O     0.71963   0.50000   0.16245   0.00000  Uiso   1.00
O1053  O     0.50000   0.78036   0.83755   0.00000  Uiso   1.00
O1054  O     0.50000   0.71964   0.16245   0.00000  Uiso   1.00
O1055  O     0.71963   0.50000   0.83755   0.00000  Uiso   1.00
O1056  O     0.78036   0.50000   0.16245   0.00000  Uiso   1.00
O1057  O     0.70724   0.57308   0.27302   0.00000  Uiso   1.00
O1058  O     0.79275   0.92692   0.72698   0.00000  Uiso   1.00
O1059  O     0.92692   0.70725   0.27302   0.00000  Uiso   1.00
O1060  O     0.57307   0.79275   0.72698   0.00000  Uiso   1.00
O1061  O     0.79275   0.92692   0.27302   0.00000  Uiso   1.00
O1062  O     0.70724   0.57308   0.72698   0.00000  Uiso   1.00
O1063  O     0.57307   0.79275   0.27302   0.00000  Uiso   1.00
O1064  O     0.92692   0.70725   0.72698   0.00000  Uiso   1.00
O1065  O     0.70724   0.92692   0.72698   0.00000  Uiso   1.00
O1066  O     0.79275   0.57308   0.27302   0.00000  Uiso   1.00
O1067  O     0.92692   0.79276   0.72698   0.00000  Uiso   1.00
O1068  O     0.57307   0.70724   0.27302   0.00000  Uiso   1.00
O1069  O     0.79275   0.57308   0.72698   0.00000  Uiso   1.00
O1070  O     0.70724   0.92692   0.27302   0.00000  Uiso   1.00
O1071  O     0.57307   0.70724   0.72698   0.00000  Uiso   1.00
O1072  O     0.92692   0.79276   0.27302   0.00000  Uiso   1.00
O1073  O     0.95724   0.82308   0.77302   0.00000  Uiso   1.00
O1074  O     0.54275   0.67692   0.22698   0.00000  Uiso   1.00
O1075  O     0.67692   0.95724   0.77302   0.00000  Uiso   1.00
O1076  O     0.82307   0.54276   0.22698   0.00000  Uiso   1.00
O1077  O     0.54275   0.67692   0.77302   0.00000  Uiso   1.00
O1078  O     0.95724   0.82308   0.22698   0.00000  Uiso   1.00
O1079  O     0.82307   0.54276   0.77302   0.00000  Uiso   1.00
O1080  O     0.67692   0.95724   0.22698   0.00000  Uiso   1.00
O1081  O     0.95724   0.67693   0.22698   0.00000  Uiso   1.00
O1082  O     0.54275   0.82307   0.77302   0.00000  Uiso   1.00
O1083  O     0.67692   0.54276   0.22698   0.00000  Uiso   1.00
O1084  O     0.82307   0.95724   0.77302   0.00000  Uiso   1.00
O1085  O     0.54275   0.82307   0.22698   0.00000  Uiso   1.00
O1086  O     0.95724   0.67693   0.77302   0.00000  Uiso   1.00
O1087  O     0.82307   0.95724   0.22698   0.00000  Uiso   1.00
O1088  O     0.67692   0.54276   0.77302   0.00000  Uiso   1.00
C1089  C     0.97004   0.69014   0.47936   0.00000  Uiso   1.00
C1090  C     0.53048   0.80969   0.51998   0.00000  Uiso   1.00
C1091  C     0.80976   0.53034   0.48001   0.00000  Uiso   1.00
C1092  C     0.69011   0.97011   0.52064   0.00000  Uiso   1.00
C1093  C     0.52996   0.80986   0.47936   0.00000  Uiso   1.00
C1094  C     0.96953   0.69031   0.51998   0.00000  Uiso   1.00
C1095  C     0.69027   0.96960   0.48002   0.00000  Uiso   1.00
C1096  C     0.80993   0.52983   0.52063   0.00000  Uiso   1.00
C1097  C     0.72054   0.93989   0.97939   0.00000  Uiso   1.00
C1098  C     0.77983   0.56000   0.02002   0.00000  Uiso   1.00
C1099  C     0.56000   0.77983   0.97998   0.00000  Uiso   1.00
C1100  C     0.93988   0.72056   0.02061   0.00000  Uiso   1.00
C1101  C     0.77933   0.56018   0.97940   0.00000  Uiso   1.00
C1102  C     0.72004   0.94006   0.02001   0.00000  Uiso   1.00
C1103  C     0.94005   0.72006   0.97999   0.00000  Uiso   1.00
C1104  C     0.56018   0.77933   0.02061   0.00000  Uiso   1.00
C1105  C     0.75000   0.50000   0.35578   0.00000  Uiso   1.00
C1106  C     0.75000   0.50000   0.64432   0.00000  Uiso   1.00
C1107  C     0.50000   0.75000   0.35569   0.00000  Uiso   1.00
C1108  C     0.50000   0.75000   0.64422   0.00000  Uiso   1.00
C1109  C     0.50000   0.75000   0.85578   0.00000  Uiso   1.00
C1110  C     0.50000   0.75000   0.14432   0.00000  Uiso   1.00
C1111  C     0.75000   0.50000   0.85569   0.00000  Uiso   1.00
C1112  C     0.75000   0.50000   0.14422   0.00000  Uiso   1.00
C1113  C     0.67993   0.57007   0.25000   0.00000  Uiso   1.00
C1114  C     0.82007   0.92993   0.75000   0.00000  Uiso   1.00
C1115  C     0.92994   0.67994   0.25000   0.00000  Uiso   1.00
C1116  C     0.57006   0.82006   0.75000   0.00000  Uiso   1.00
C1117  C     0.82007   0.92993   0.25000   0.00000  Uiso   1.00
C1118  C     0.67993   0.57007   0.75000   0.00000  Uiso   1.00
C1119  C     0.57006   0.82006   0.25000   0.00000  Uiso   1.00
C1120  C     0.92994   0.67994   0.75000   0.00000  Uiso   1.00
C1121  C     0.67994   0.92994   0.75000   0.00000  Uiso   1.00
C1122  C     0.82006   0.57006   0.25000   0.00000  Uiso   1.00
C1123  C     0.92993   0.82007   0.75000   0.00000  Uiso   1.00
C1124  C     0.57007   0.67993   0.25000   0.00000  Uiso   1.00
C1125  C     0.82006   0.57006   0.75000   0.00000  Uiso   1.00
C1126  C     0.67994   0.92994   0.25000   0.00000  Uiso   1.00
C1127  C     0.57007   0.67993   0.75000   0.00000  Uiso   1.00
C1128  C     0.92993   0.82007   0.25000   0.00000  Uiso   1.00
C1129  C     0.62279   0.90395   0.22368   0.00000  Uiso   1.00
C1130  C     0.87722   0.59605   0.77632   0.00000  Uiso   1.00
C1131  C     0.59521   0.62193   0.22487   0.00000  Uiso   1.00
C1132  C     0.90479   0.87807   0.77513   0.00000  Uiso   1.00
C1133  C     0.87721   0.59605   0.22368   0.00000  Uiso   1.00
C1134  C     0.62278   0.90395   0.77632   0.00000  Uiso   1.00
C1135  C     0.90479   0.87807   0.22487   0.00000  Uiso   1.00
C1136  C     0.59521   0.62193   0.77513   0.00000  Uiso   1.00
C1137  C     0.62193   0.59521   0.77514   0.00000  Uiso   1.00
C1138  C     0.87807   0.90479   0.22487   0.00000  Uiso   1.00
C1139  C     0.59605   0.87721   0.77632   0.00000  Uiso   1.00
C1140  C     0.90395   0.62278   0.22368   0.00000  Uiso   1.00
C1141  C     0.87807   0.90479   0.77513   0.00000  Uiso   1.00
C1142  C     0.62193   0.59521   0.22487   0.00000  Uiso   1.00
C1143  C     0.90395   0.62279   0.77632   0.00000  Uiso   1.00
C1144  C     0.59605   0.87722   0.22368   0.00000  Uiso   1.00
C1145  C     0.87279   0.65395   0.72368   0.00000  Uiso   1.00
C1146  C     0.62722   0.84605   0.27632   0.00000  Uiso   1.00
C1147  C     0.84521   0.87193   0.72487   0.00000  Uiso   1.00
C1148  C     0.65479   0.62807   0.27513   0.00000  Uiso   1.00
C1149  C     0.62721   0.84605   0.72368   0.00000  Uiso   1.00
C1150  C     0.87278   0.65395   0.27632   0.00000  Uiso   1.00
C1151  C     0.65479   0.62807   0.72487   0.00000  Uiso   1.00
C1152  C     0.84521   0.87193   0.27513   0.00000  Uiso   1.00
C1153  C     0.87193   0.84521   0.27513   0.00000  Uiso   1.00
C1154  C     0.62807   0.65479   0.72487   0.00000  Uiso   1.00
C1155  C     0.84605   0.62721   0.27632   0.00000  Uiso   1.00
C1156  C     0.65395   0.87278   0.72368   0.00000  Uiso   1.00
C1157  C     0.62807   0.65479   0.27513   0.00000  Uiso   1.00
C1158  C     0.87193   0.84521   0.72487   0.00000  Uiso   1.00
C1159  C     0.65395   0.87279   0.27632   0.00000  Uiso   1.00
C1160  C     0.84605   0.62722   0.72368   0.00000  Uiso   1.00
C1161  C     0.98624   0.71929   0.45863   0.00000  Uiso   1.00
C1162  C     0.51643   0.77947   0.54095   0.00000  Uiso   1.00
C1163  C     0.77950   0.51637   0.45905   0.00000  Uiso   1.00
C1164  C     0.71928   0.98626   0.54137   0.00000  Uiso   1.00
C1165  C     0.51376   0.78071   0.45863   0.00000  Uiso   1.00
C1166  C     0.98357   0.72053   0.54095   0.00000  Uiso   1.00
C1167  C     0.72051   0.98360   0.45905   0.00000  Uiso   1.00
C1168  C     0.78074   0.51371   0.54137   0.00000  Uiso   1.00
C1169  C     0.73644   0.96919   0.95864   0.00000  Uiso   1.00
C1170  C     0.76615   0.52961   0.04096   0.00000  Uiso   1.00
C1171  C     0.52961   0.76615   0.95904   0.00000  Uiso   1.00
C1172  C     0.96918   0.73645   0.04136   0.00000  Uiso   1.00
C1173  C     0.76350   0.53085   0.95864   0.00000  Uiso   1.00
C1174  C     0.73378   0.97042   0.04096   0.00000  Uiso   1.00
C1175  C     0.97042   0.73379   0.95905   0.00000  Uiso   1.00
C1176  C     0.53085   0.76349   0.04136   0.00000  Uiso   1.00
C1177  C     0.59813   0.84813   0.25000   0.00000  Uiso   1.00
C1178  C     0.90187   0.65187   0.75000   0.00000  Uiso   1.00
C1179  C     0.65187   0.59813   0.25000   0.00000  Uiso   1.00
C1180  C     0.84813   0.90187   0.75000   0.00000  Uiso   1.00
C1181  C     0.90187   0.65187   0.25000   0.00000  Uiso   1.00
C1182  C     0.59813   0.84813   0.75000   0.00000  Uiso   1.00
C1183  C     0.84813   0.90187   0.25000   0.00000  Uiso   1.00
C1184  C     0.65187   0.59813   0.75000   0.00000  Uiso   1.00
C1185  C     0.59813   0.65187   0.75000   0.00000  Uiso   1.00
C1186  C     0.90187   0.84813   0.25000   0.00000  Uiso   1.00
C1187  C     0.65187   0.90187   0.75000   0.00000  Uiso   1.00
C1188  C     0.84813   0.59813   0.25000   0.00000  Uiso   1.00
C1189  C     0.90187   0.84813   0.75000   0.00000  Uiso   1.00
C1190  C     0.59813   0.65187   0.25000   0.00000  Uiso   1.00
C1191  C     0.84813   0.59813   0.75000   0.00000  Uiso   1.00
C1192  C     0.65187   0.90187   0.25000   0.00000  Uiso   1.00
C1193  C     0.50000   0.75000   0.47924   0.00000  Uiso   1.00
C1194  C     0.50000   0.75000   0.52038   0.00000  Uiso   1.00
C1195  C     0.75001   0.99998   0.47962   0.00000  Uiso   1.00
C1196  C     0.75001   0.99998   0.52076   0.00000  Uiso   1.00
C1197  C     0.74996   0.50002   0.97924   0.00000  Uiso   1.00
C1198  C     0.74996   0.50002   0.02039   0.00000  Uiso   1.00
C1199  C     0.50002   0.74997   0.97961   0.00000  Uiso   1.00
C1200  C     0.50002   0.74997   0.02076   0.00000  Uiso   1.00
N1201  N     0.95157   0.66105   0.45956   0.00000  Uiso   1.00
O1202  O     0.92051   0.66735   0.44258   0.00000  Uiso   1.00
O1203  O     0.96292   0.62761   0.46322   0.00000  Uiso   1.00
N1204  N     0.54384   0.84162   0.53941   0.00000  Uiso   1.00
O1205  O     0.52080   0.86454   0.55454   0.00000  Uiso   1.00
O1206  O     0.57799   0.85084   0.53626   0.00000  Uiso   1.00
N1207  N     0.84174   0.54358   0.46057   0.00000  Uiso   1.00
O1208  O     0.86452   0.52046   0.44536   0.00000  Uiso   1.00
O1209  O     0.85112   0.57768   0.46376   0.00000  Uiso   1.00
N1210  N     0.66097   0.95170   0.54043   0.00000  Uiso   1.00
O1211  O     0.66719   0.92060   0.55735   0.00000  Uiso   1.00
O1212  O     0.62756   0.96314   0.53680   0.00000  Uiso   1.00
N1213  N     0.54843   0.83895   0.45956   0.00000  Uiso   1.00
O1214  O     0.57949   0.83265   0.44258   0.00000  Uiso   1.00
O1215  O     0.53708   0.87239   0.46321   0.00000  Uiso   1.00
N1216  N     0.95617   0.65837   0.53941   0.00000  Uiso   1.00
O1217  O     0.97921   0.63546   0.55454   0.00000  Uiso   1.00
O1218  O     0.92202   0.64915   0.53626   0.00000  Uiso   1.00
N1219  N     0.65831   0.95632   0.46058   0.00000  Uiso   1.00
O1220  O     0.63547   0.97941   0.44541   0.00000  Uiso   1.00
O1221  O     0.64899   0.92219   0.46375   0.00000  Uiso   1.00
N1222  N     0.83909   0.54820   0.54042   0.00000  Uiso   1.00
O1223  O     0.83293   0.57934   0.55728   0.00000  Uiso   1.00
O1224  O     0.87248   0.53669   0.53682   0.00000  Uiso   1.00
N1225  N     0.70243   0.91055   0.95963   0.00000  Uiso   1.00
O1226  O     0.67115   0.91638   0.94292   0.00000  Uiso   1.00
O1227  O     0.71432   0.87729   0.96316   0.00000  Uiso   1.00
N1228  N     0.79266   0.59214   0.03949   0.00000  Uiso   1.00
O1229  O     0.76926   0.61450   0.05493   0.00000  Uiso   1.00
O1230  O     0.82661   0.60204   0.03620   0.00000  Uiso   1.00
N1231  N     0.59214   0.79266   0.96051   0.00000  Uiso   1.00
O1232  O     0.61450   0.76926   0.94507   0.00000  Uiso   1.00
O1233  O     0.60206   0.82661   0.96380   0.00000  Uiso   1.00
N1234  N     0.91053   0.70247   0.04037   0.00000  Uiso   1.00
O1235  O     0.91635   0.67119   0.05709   0.00000  Uiso   1.00
O1236  O     0.87727   0.71437   0.03684   0.00000  Uiso   1.00
N1237  N     0.79734   0.58958   0.95965   0.00000  Uiso   1.00
O1238  O     0.82872   0.58391   0.94310   0.00000  Uiso   1.00
O1239  O     0.78527   0.62279   0.96311   0.00000  Uiso   1.00
N1240  N     0.70711   0.90796   0.03947   0.00000  Uiso   1.00
O1241  O     0.73045   0.88547   0.05482   0.00000  Uiso   1.00
O1242  O     0.67312   0.89818   0.03622   0.00000  Uiso   1.00
N1243  N     0.90794   0.70715   0.96053   0.00000  Uiso   1.00
O1244  O     0.88547   0.73049   0.94517   0.00000  Uiso   1.00
O1245  O     0.89815   0.67316   0.96378   0.00000  Uiso   1.00
N1246  N     0.58957   0.79736   0.04035   0.00000  Uiso   1.00
O1247  O     0.58387   0.82871   0.05696   0.00000  Uiso   1.00
O1248  O     0.62279   0.78533   0.03687   0.00000  Uiso   1.00
H1249  H     0.62069   0.92615   0.20305   0.00000  Uiso   1.00
H1250  H     0.87932   0.57385   0.79694   0.00000  Uiso   1.00
H1251  H     0.57232   0.61912   0.20520   0.00000  Uiso   1.00
H1252  H     0.92768   0.88088   0.79479   0.00000  Uiso   1.00
H1253  H     0.87931   0.57385   0.20305   0.00000  Uiso   1.00
H1254  H     0.62068   0.92615   0.79694   0.00000  Uiso   1.00
H1255  H     0.92768   0.88088   0.20521   0.00000  Uiso   1.00
H1256  H     0.57232   0.61912   0.79480   0.00000  Uiso   1.00
H1257  H     0.61912   0.57232   0.79480   0.00000  Uiso   1.00
H1258  H     0.88088   0.92768   0.20521   0.00000  Uiso   1.00
H1259  H     0.57385   0.87931   0.79695   0.00000  Uiso   1.00
H1260  H     0.92616   0.62068   0.20306   0.00000  Uiso   1.00
H1261  H     0.88088   0.92768   0.79480   0.00000  Uiso   1.00
H1262  H     0.61912   0.57232   0.20520   0.00000  Uiso   1.00
H1263  H     0.92615   0.62069   0.79695   0.00000  Uiso   1.00
H1264  H     0.57384   0.87932   0.20306   0.00000  Uiso   1.00
H1265  H     0.87069   0.67615   0.70305   0.00000  Uiso   1.00
H1266  H     0.62932   0.82385   0.29694   0.00000  Uiso   1.00
H1267  H     0.82232   0.86912   0.70521   0.00000  Uiso   1.00
H1268  H     0.67768   0.63088   0.29480   0.00000  Uiso   1.00
H1269  H     0.62931   0.82385   0.70305   0.00000  Uiso   1.00
H1270  H     0.87068   0.67616   0.29694   0.00000  Uiso   1.00
H1271  H     0.67768   0.63088   0.70520   0.00000  Uiso   1.00
H1272  H     0.82232   0.86912   0.29479   0.00000  Uiso   1.00
H1273  H     0.86912   0.82232   0.29479   0.00000  Uiso   1.00
H1274  H     0.63088   0.67768   0.70521   0.00000  Uiso   1.00
H1275  H     0.82385   0.62931   0.29695   0.00000  Uiso   1.00
H1276  H     0.67615   0.87068   0.70306   0.00000  Uiso   1.00
H1277  H     0.63088   0.67768   0.29480   0.00000  Uiso   1.00
H1278  H     0.86912   0.82232   0.70521   0.00000  Uiso   1.00
H1279  H     0.67615   0.87069   0.29695   0.00000  Uiso   1.00
H1280  H     0.82385   0.62932   0.70305   0.00000  Uiso   1.00
N1281  N     0.51415   0.81508   0.39642   0.00000  Uiso   1.00
O1282  O     0.53971   0.81890   0.37052   0.00000  Uiso   1.00
O1283  O     0.99007   0.84077   0.40084   0.00000  Uiso   1.00
N1284  N     0.95941   0.69722   0.60374   0.00000  Uiso   1.00
O1285  O     0.97464   0.67523   0.62859   0.00000  Uiso   1.00
O1286  O     0.92405   0.70000   0.60289   0.00000  Uiso   1.00
N1287  N     0.69720   0.95943   0.39627   0.00000  Uiso   1.00
O1288  O     0.67525   0.97465   0.37138   0.00000  Uiso   1.00
O1289  O     0.69993   0.92407   0.39718   0.00000  Uiso   1.00
N1290  N     0.81507   0.51416   0.60361   0.00000  Uiso   1.00
O1291  O     0.81890   0.53980   0.62942   0.00000  Uiso   1.00
O1292  O     0.84071   0.98999   0.59935   0.00000  Uiso   1.00
N1293  N     0.98585   0.68492   0.39642   0.00000  Uiso   1.00
O1294  O     0.96030   0.68110   0.37051   0.00000  Uiso   1.00
O1295  O     0.50993   0.65922   0.40086   0.00000  Uiso   1.00
N1296  N     0.54058   0.80279   0.60374   0.00000  Uiso   1.00
O1297  O     0.52536   0.82477   0.62859   0.00000  Uiso   1.00
O1298  O     0.57594   0.80000   0.60290   0.00000  Uiso   1.00
N1299  N     0.80280   0.54057   0.39628   0.00000  Uiso   1.00
O1300  O     0.82473   0.52538   0.37135   0.00000  Uiso   1.00
O1301  O     0.80009   0.57594   0.39725   0.00000  Uiso   1.00
N1302  N     0.68492   0.98586   0.60359   0.00000  Uiso   1.00
O1303  O     0.68109   0.96027   0.62945   0.00000  Uiso   1.00
O1304  O     0.65926   0.51000   0.59924   0.00000  Uiso   1.00
N1305  N     0.76405   0.56507   0.89632   0.00000  Uiso   1.00
O1306  O     0.78991   0.56894   0.87076   0.00000  Uiso   1.00
O1307  O     0.73959   0.59051   0.90008   0.00000  Uiso   1.00
N1308  N     0.70959   0.94706   0.10371   0.00000  Uiso   1.00
O1309  O     0.72480   0.92527   0.12876   0.00000  Uiso   1.00
O1310  O     0.67421   0.94952   0.10251   0.00000  Uiso   1.00
N1311  N     0.94706   0.70959   0.89629   0.00000  Uiso   1.00
O1312  O     0.92528   0.72479   0.87123   0.00000  Uiso   1.00
O1313  O     0.94951   0.67422   0.89751   0.00000  Uiso   1.00
N1314  N     0.56509   0.76399   0.10367   0.00000  Uiso   1.00
O1315  O     0.56897   0.78980   0.12928   0.00000  Uiso   1.00
O1316  O     0.59053   0.73954   0.09984   0.00000  Uiso   1.00
N1317  N     0.73602   0.93491   0.89636   0.00000  Uiso   1.00
O1318  O     0.71029   0.93101   0.87067   0.00000  Uiso   1.00
O1319  O     0.76040   0.90943   0.90036   0.00000  Uiso   1.00
N1320  N     0.79042   0.55293   0.10369   0.00000  Uiso   1.00
O1321  O     0.77526   0.57469   0.12882   0.00000  Uiso   1.00
O1322  O     0.82579   0.55053   0.10235   0.00000  Uiso   1.00
N1323  N     0.55293   0.79042   0.89631   0.00000  Uiso   1.00
O1324  O     0.57468   0.77527   0.87118   0.00000  Uiso   1.00
O1325  O     0.55053   0.82580   0.89766   0.00000  Uiso   1.00
N1326  N     0.93490   0.73605   0.10364   0.00000  Uiso   1.00
O1327  O     0.93100   0.71032   0.12934   0.00000  Uiso   1.00
O1328  O     0.90943   0.76044   0.09964   0.00000  Uiso   1.00
loop_
_geom_bond_atom_site_label_1
_geom_bond_atom_site_label_2
_geom_bond_distance
_geom_bond_site_symmetry_2
_ccdc_geom_bond_type
Zn1    O87     1.938   .     S
Zn1    O41     1.949   .     S
Zn1    O56     1.950   .     S
Zn1    O748    1.936   1_545 S
Zn2    O83     1.936   .     S
Zn2    O55     1.950   .     S
Zn2    O42     1.949   .     S
Zn2    O752    1.938   1_545 S
Zn3    O78     1.938   .     S
Zn3    O43     1.949   .     S
Zn3    O58     1.950   .     S
Zn3    O417    1.936   1_455 S
Zn4    O409    1.938   1_455 S
Zn4    O44     1.949   .     S
Zn4    O57     1.950   .     S
Zn4    O86     1.936   .     S
Zn5    O80     1.936   .     S
Zn5    O41     1.949   .     S
Zn5    O60     1.950   .     S
Zn5    O755    1.938   1_545 S
Zn6    O42     1.949   .     S
Zn6    O59     1.950   .     S
Zn6    O92     1.938   .     S
Zn6    O743    1.936   1_545 S
Zn7    O89     1.936   .     S
Zn7    O43     1.949   .     S
Zn7    O54     1.950   .     S
Zn7    O414    1.938   1_455 S
Zn8    O53     1.950   .     S
Zn8    O422    1.936   1_455 S
Zn8    O44     1.949   .     S
Zn8    O81     1.938   .     S
Zn9    O48     1.950   .     S
Zn9    O71     1.938   .     S
Zn9    O376    1.949   .     S
Zn9    O68     1.936   .     S
Zn10   O67     1.936   .     S
Zn10   O47     1.950   .     S
Zn10   O72     1.938   .     S
Zn10   O43     1.949   .     S
Zn11   O62     1.938   .     S
Zn11   O69     1.936   .     S
Zn11   O50     1.950   .     S
Zn11   O706    1.949   .     S
Zn12   O49     1.950   .     S
Zn12   O70     1.936   .     S
Zn12   O41     1.949   .     S
Zn12   O61     1.938   .     S
Zn13   O75     1.938   .     S
Zn13   O52     1.950   .     S
Zn13   O64     1.936   .     S
Zn13   O44     1.949   .     S
Zn14   O76     1.938   .     S
Zn14   O375    1.949   .     S
Zn14   O51     1.950   .     S
Zn14   O63     1.936   .     S
Zn15   O42     1.949   .     S
Zn15   O66     1.938   .     S
Zn15   O46     1.950   .     S
Zn15   O73     1.936   .     S
Zn16   O45     1.950   .     S
Zn16   O65     1.938   .     S
Zn16   O74     1.936   .     S
Zn16   O705    1.949   .     S
C17    C33     1.398   .     A
C17    C169    1.414   .     A
C17    N285    1.437   .     S
C18    N288    1.436   .     S
C18    C170    1.415   .     A
C18    C366    1.400   .     S
C19    C699    1.400   .     A
C19    N291    1.436   .     S
C19    C171    1.415   .     A
C20    C172    1.414   .     A
C20    N294    1.437   .     S
C20    C36     1.398   .     S
C21    C165    1.414   .     A
C21    N297    1.437   .     S
C21    C365    1.398   .     S
C22    C166    1.415   .     A
C22    C34     1.400   .     A
C22    N300    1.436   .     S
C23    C167    1.415   .     A
C23    N303    1.436   .     S
C23    C35     1.400   .     S
C24    C700    1.398   .     A
C24    N306    1.437   .     S
C24    C168    1.414   .     A
C25    C177    1.414   .     A
C25    N309    1.437   .     S
C25    C37     1.398   .     A
C26    N312    1.436   .     S
C26    C178    1.415   .     A
C26    C702    1.400   .     S
C27    N315    1.436   .     S
C27    C179    1.415   .     A
C27    C371    1.400   .     S
C28    C40     1.398   .     A
C28    C180    1.414   .     A
C28    N318    1.437   .     S
C29    N321    1.437   .     S
C29    C173    1.414   .     A
C29    C701    1.398   .     S
C30    C38     1.400   .     A
C30    C174    1.415   .     A
C30    N324    1.436   .     S
C31    C175    1.415   .     A
C31    N327    1.436   .     S
C31    C39     1.401   .     A
C32    C176    1.414   .     A
C32    N330    1.437   .     S
C32    C372    1.398   .     S
C33    C111    1.452   .     S
C33    C353    1.398   1_455 S
C34    C350    1.400   1_455 S
C34    C112    1.459   .     S
C35    C109    1.459   .     S
C35    C683    1.400   1_545 A
C36    C688    1.398   1_545 A
C36    C110    1.452   .     S
C37    C693    1.398   1_545 S
C37    C115    1.452   .     S
C38    C116    1.459   .     S
C38    C690    1.400   1_545 S
C39    C113    1.459   .     S
C39    C359    1.400   1_455 S
C40    C364    1.398   1_455 S
C40    C114    1.452   .     S
O41    Zn680   1.949   1_545 S
O42    Zn675   1.949   1_545 S
O43    Zn346   1.949   1_455 S
O44    Zn341   1.949   1_455 S
O45    C773    1.278   .     A
O46    C110    1.277   .     A
O47    C111    1.277   .     A
O48    C444    1.278   .     A
O49    C109    1.278   .     S
O50    C774    1.277   .     S
O51    C443    1.277   .     S
O52    C112    1.278   .     S
O53    C113    1.278   .     S
O54    C114    1.277   .     A
O55    C115    1.277   .     S
O56    C116    1.278   .     S
O57    C113    1.278   .     A
O58    C114    1.277   .     A
O59    C115    1.277   .     S
O60    C116    1.278   .     S
O61    C117    1.282   .     A
O62    C118    1.282   .     A
O63    C119    1.282   .     A
O64    C120    1.282   .     A
O65    C121    1.282   .     A
O66    C122    1.282   .     A
O67    C123    1.282   .     A
O68    C124    1.282   .     A
O69    C125    1.282   .     A
O70    C126    1.282   .     A
O71    C127    1.282   .     A
O72    C128    1.282   .     A
O73    C129    1.282   .     A
O74    C130    1.282   .     A
O75    C131    1.282   .     A
O76    C132    1.282   .     A
O77    Zn336   1.938   .     S
O77    C127    1.282   .     A
O78    C128    1.282   .     A
O79    C125    1.282   .     A
O79    Zn670   1.936   .     S
O80    C126    1.282   .     A
O81    C131    1.282   .     A
O82    C132    1.282   .     A
O82    Zn339   1.938   .     S
O83    C129    1.282   .     A
O84    C130    1.282   .     A
O84    Zn665   1.936   .     S
O85    C119    1.282   .     A
O85    Zn335   1.936   .     S
O86    C120    1.282   .     A
O87    C117    1.282   .     A
O88    C118    1.282   .     A
O88    Zn666   1.938   .     S
O89    C123    1.282   .     A
O90    C124    1.282   .     A
O90    Zn340   1.936   .     S
O91    C121    1.282   .     A
O91    Zn669   1.938   .     S
O92    C122    1.282   .     A
C93    N205    1.435   .     S
C93    C165    1.415   .     A
C93    C98     1.399   .     A
C94    N208    1.434   .     S
C94    C97     1.399   .     A
C94    C166    1.419   .     A
C95    C167    1.419   .     A
C95    N211    1.435   .     S
C95    C100    1.399   .     A
C96    C99     1.399   .     A
C96    N214    1.435   .     S
C96    C168    1.415   .     A
C97    N217    1.435   .     S
C97    C169    1.415   .     A
C98    N220    1.435   .     S
C98    C170    1.419   .     A
C99    N223    1.435   .     S
C99    C171    1.419   .     A
C100   C172    1.415   .     A
C100   N226    1.435   .     S
C101   C173    1.416   .     A
C101   N229    1.435   .     S
C101   C106    1.399   1_556 S
C102   N232    1.435   .     S
C102   C174    1.419   .     A
C102   C105    1.399   1_554 S
C103   N235    1.435   .     S
C103   C175    1.419   .     A
C103   C108    1.399   1_556 S
C104   N238    1.435   .     S
C104   C176    1.416   .     A
C104   C107    1.399   1_554 S
C105   N241    1.435   .     S
C105   C177    1.416   .     A
C105   C102    1.399   1_556 S
C106   N244    1.435   .     S
C106   C178    1.419   .     A
C106   C101    1.399   1_554 S
C107   C179    1.419   .     A
C107   N247    1.435   .     S
C107   C104    1.399   1_556 S
C108   N250    1.435   .     S
C108   C180    1.416   .     A
C108   C103    1.399   1_554 S
C109   O709    1.278   1_545 A
C110   O714    1.277   1_545 S
C111   O383    1.277   1_455 S
C112   O380    1.278   1_455 A
C117   C183    1.456   .     S
C118   C184    1.456   .     S
C119   C185    1.455   .     S
C120   C186    1.455   .     S
C121   C187    1.456   .     S
C122   C188    1.456   .     S
C123   C181    1.455   .     S
C124   C182    1.455   .     S
C125   C191    1.455   .     S
C126   C192    1.455   .     S
C127   C193    1.456   .     S
C128   C194    1.456   .     S
C129   C195    1.455   .     S
C130   C196    1.455   .     S
C131   C189    1.456   .     S
C132   C190    1.456   .     S
C133   H253    1.083   .     S
C133   C196    1.402   .     A
C133   C148    1.386   .     A
C134   C147    1.386   .     A
C134   C195    1.402   .     A
C134   H254    1.083   .     S
C135   C146    1.386   .     A
C135   C194    1.402   .     A
C135   H255    1.083   .     S
C136   C145    1.386   .     A
C136   H256    1.083   .     S
C136   C193    1.402   .     A
C137   C192    1.402   .     A
C137   H257    1.083   .     S
C137   C144    1.386   .     A
C138   C143    1.386   .     A
C138   H258    1.083   .     S
C138   C191    1.402   .     A
C139   C142    1.386   .     A
C139   C190    1.402   .     A
C139   H259    1.083   .     S
C140   C141    1.386   .     A
C140   H260    1.083   .     S
C140   C189    1.402   .     A
C141   H261    1.083   .     S
C141   C188    1.402   .     A
C142   C187    1.402   .     A
C142   H262    1.083   .     S
C143   C186    1.402   .     A
C143   H263    1.083   .     S
C144   C185    1.402   .     A
C144   H264    1.083   .     S
C145   C184    1.402   .     A
C145   H265    1.083   .     S
C146   C183    1.402   .     A
C146   H266    1.083   .     S
C147   C182    1.402   .     A
C147   H267    1.083   .     S
C148   C181    1.402   .     A
C148   H268    1.083   .     S
C149   C182    1.402   .     A
C149   C164    1.386   .     A
C149   H269    1.083   .     S
C150   C163    1.386   .     A
C150   C181    1.402   .     A
C150   H270    1.083   .     S
C151   C184    1.402   .     A
C151   C162    1.386   .     A
C151   H271    1.083   .     S
C152   C161    1.386   .     A
C152   C183    1.402   .     A
C152   H272    1.083   .     S
C153   H273    1.083   .     S
C153   C160    1.386   .     A
C153   C186    1.402   .     A
C154   C159    1.386   .     A
C154   H274    1.083   .     S
C154   C185    1.402   .     A
C155   C158    1.386   .     A
C155   H275    1.083   .     S
C155   C188    1.402   .     A
C156   C187    1.402   .     A
C156   H276    1.083   .     S
C156   C157    1.386   .     A
C157   H277    1.083   .     S
C157   C190    1.402   .     A
C158   H278    1.083   .     S
C158   C189    1.402   .     A
C159   C192    1.402   .     A
C159   H279    1.083   .     S
C160   C191    1.402   .     A
C160   H280    1.083   .     S
C161   H281    1.083   .     S
C161   C194    1.402   .     A
C162   H282    1.083   .     S
C162   C193    1.402   .     A
C163   C196    1.402   .     A
C163   H283    1.083   .     S
C164   C195    1.402   .     A
C164   H284    1.083   .     S
C165   C529    1.423   .     S
C166   C198    1.425   .     A
C167   C863    1.425   1_545 S
C168   C200    1.423   .     A
C169   C197    1.423   .     A
C170   C530    1.425   .     S
C171   C199    1.425   .     A
C172   C864    1.423   1_545 S
C173   C865    1.424   .     S
C174   C202    1.425   .     A
C175   C203    1.425   .     A
C176   C536    1.424   .     S
C177   C201    1.424   .     A
C178   C866    1.425   .     S
C179   C535    1.425   .     S
C180   C204    1.424   .     A
C197   C198    1.417   .     A
C197   C497    1.423   1_455 S
C198   C502    1.425   1_455 S
C199   C200    1.417   .     A
C199   C831    1.425   .     S
C200   C836    1.423   .     S
C201   C837    1.424   1_545 S
C201   C202    1.417   1_556 S
C202   C842    1.425   1_545 S
C202   C201    1.417   1_554 S
C203   C511    1.425   1_455 S
C203   C204    1.417   1_556 S
C204   C508    1.424   1_455 S
C204   C203    1.417   1_554 S
N205   O206    1.301   .     A
N205   O207    1.301   .     A
N208   O209    1.301   .     A
N208   O210    1.301   .     A
N211   O212    1.301   .     A
N211   O213    1.301   .     A
N214   O216    1.301   .     A
N214   O215    1.301   .     A
N217   O218    1.301   .     A
N217   O219    1.301   .     A
N220   O221    1.301   .     A
N220   O222    1.301   .     A
N223   O224    1.301   .     A
N223   O225    1.301   .     A
N226   O227    1.301   .     A
N226   O228    1.301   .     A
N229   O230    1.301   .     A
N229   O231    1.301   .     A
N232   O234    1.301   .     A
N232   O233    1.301   .     A
N235   O236    1.301   .     A
N235   O237    1.301   .     A
N238   O240    1.301   .     A
N238   O239    1.301   .     A
N241   O242    1.301   .     A
N241   O243    1.301   .     A
N244   O245    1.301   .     A
N244   O246    1.301   .     A
N247   O249    1.301   .     A
N247   O248    1.301   .     A
N250   O252    1.301   .     A
N250   O251    1.301   .     A
N285   O286    1.301   .     A
N285   O619    1.301   1_455 S
O287   N617    1.301   .     S
N288   O290    1.301   .     A
N288   O289    1.302   .     A
N291   O292    1.302   .     A
N291   O293    1.301   .     A
N294   O295    1.301   .     A
N294   O960    1.301   1_545 S
O296   N958    1.301   .     S
N297   O298    1.301   .     A
N297   O631    1.301   .     S
O299   N629    1.301   1_455 S
N300   O301    1.302   .     A
N300   O302    1.301   .     A
N303   O305    1.301   .     A
N303   O304    1.302   .     A
N306   O307    1.301   .     A
N306   O972    1.301   .     S
O308   N970    1.301   1_545 S
N309   O311    1.301   .     A
N309   O310    1.301   .     A
N312   O313    1.302   .     A
N312   O314    1.301   .     A
N315   O316    1.302   .     A
N315   O317    1.301   .     A
N318   O320    1.301   .     A
N318   O319    1.301   .     A
N321   O322    1.301   .     A
N321   O323    1.301   .     A
N324   O325    1.302   .     A
N324   O326    1.301   .     A
N327   O329    1.301   .     A
N327   O328    1.302   .     A
N330   O331    1.301   .     A
N330   O332    1.301   .     A
Zn333  O419    1.938   .     S
Zn333  O373    1.949   .     S
Zn333  O388    1.950   .     S
Zn333  O1080   1.936   1_545 S
Zn334  O415    1.936   .     S
Zn334  O387    1.950   .     S
Zn334  O374    1.949   .     S
Zn334  O1084   1.938   1_545 S
Zn335  O410    1.938   .     S
Zn335  O375    1.949   .     S
Zn335  O390    1.950   .     S
Zn336  O376    1.949   .     S
Zn336  O389    1.950   .     S
Zn336  O418    1.936   .     S
Zn337  O412    1.936   .     S
Zn337  O373    1.949   .     S
Zn337  O392    1.950   .     S
Zn337  O1087   1.938   1_545 S
Zn338  O374    1.949   .     S
Zn338  O391    1.950   .     S
Zn338  O424    1.938   .     S
Zn338  O1075   1.936   1_545 S
Zn339  O421    1.936   .     S
Zn339  O375    1.949   .     S
Zn339  O386    1.950   .     S
Zn340  O385    1.950   .     S
Zn340  O376    1.949   .     S
Zn340  O413    1.938   .     S
Zn341  O380    1.950   .     S
Zn341  O403    1.938   .     S
Zn341  O44     1.949   1_655 S
Zn341  O400    1.936   .     S
Zn342  O399    1.936   .     S
Zn342  O379    1.950   .     S
Zn342  O404    1.938   .     S
Zn342  O375    1.949   .     S
Zn343  O394    1.938   .     S
Zn343  O401    1.936   .     S
Zn343  O382    1.950   .     S
Zn343  O1038   1.949   .     S
Zn344  O381    1.950   .     S
Zn344  O402    1.936   .     S
Zn344  O373    1.949   .     S
Zn344  O393    1.938   .     S
Zn345  O407    1.938   .     S
Zn345  O384    1.950   .     S
Zn345  O396    1.936   .     S
Zn345  O376    1.949   .     S
Zn346  O408    1.938   .     S
Zn346  O43     1.949   1_655 S
Zn346  O383    1.950   .     S
Zn346  O395    1.936   .     S
Zn347  O374    1.949   .     S
Zn347  O398    1.938   .     S
Zn347  O378    1.950   .     S
Zn347  O405    1.936   .     S
Zn348  O377    1.950   .     S
Zn348  O397    1.938   .     S
Zn348  O406    1.936   .     S
Zn348  O1037   1.949   .     S
C349   C365    1.398   .     A
C349   C501    1.414   .     A
C349   N617    1.437   .     S
C350   N620    1.436   .     S
C350   C502    1.415   .     A
C350   C34     1.400   1_655 S
C351   C1031   1.400   .     A
C351   N623    1.436   .     S
C351   C503    1.415   .     A
C352   C504    1.414   .     A
C352   N626    1.437   .     S
C352   C368    1.398   .     S
C353   C497    1.414   .     A
C353   N629    1.437   .     S
C353   C33     1.398   1_655 S
C354   C498    1.415   .     A
C354   C366    1.400   .     A
C354   N632    1.436   .     S
C355   C499    1.415   .     A
C355   N635    1.436   .     S
C355   C367    1.400   .     S
C356   C1032   1.398   .     A
C356   N638    1.437   .     S
C356   C500    1.414   .     A
C357   C509    1.414   .     A
C357   N641    1.437   .     S
C357   C369    1.398   .     A
C358   N644    1.436   .     S
C358   C510    1.415   .     A
C358   C1034   1.400   .     S
C359   N647    1.436   .     S
C359   C511    1.415   .     A
C359   C39     1.400   1_655 S
C360   C372    1.398   .     A
C360   C512    1.414   .     A
C360   N650    1.437   .     S
C361   N653    1.437   .     S
C361   C505    1.414   .     A
C361   C1033   1.398   .     S
C362   C370    1.400   .     A
C362   C506    1.415   .     A
C362   N656    1.436   .     S
C363   C507    1.415   .     A
C363   N659    1.436   .     S
C363   C371    1.401   .     A
C364   C508    1.414   .     A
C364   N662    1.437   .     S
C364   C40     1.398   1_655 S
C365   C443    1.452   .     S
C366   C444    1.459   .     S
C367   C441    1.459   .     S
C367   C1015   1.400   1_545 A
C368   C1020   1.398   1_545 A
C368   C442    1.452   .     S
C369   C1025   1.398   1_545 S
C369   C447    1.452   .     S
C370   C448    1.459   .     S
C370   C1022   1.400   1_545 S
C371   C445    1.459   .     S
C372   C446    1.452   .     S
O373   Zn1012  1.949   1_545 S
O374   Zn1007  1.949   1_545 S
O377   C1105   1.278   .     A
O378   C442    1.277   .     A
O379   C443    1.277   .     A
O380   C112    1.278   1_655 A
O381   C441    1.278   .     S
O382   C1106   1.277   .     S
O383   C111    1.277   1_655 S
O384   C444    1.278   .     S
O385   C445    1.278   .     S
O386   C446    1.277   .     A
O387   C447    1.277   .     S
O388   C448    1.278   .     S
O389   C445    1.278   .     A
O390   C446    1.277   .     A
O391   C447    1.277   .     S
O392   C448    1.278   .     S
O393   C449    1.282   .     A
O394   C450    1.282   .     A
O395   C451    1.282   .     A
O396   C452    1.282   .     A
O397   C453    1.282   .     A
O398   C454    1.282   .     A
O399   C455    1.282   .     A
O400   C456    1.282   .     A
O401   C457    1.282   .     A
O402   C458    1.282   .     A
O403   C459    1.282   .     A
O404   C460    1.282   .     A
O405   C461    1.282   .     A
O406   C462    1.282   .     A
O407   C463    1.282   .     A
O408   C464    1.282   .     A
O409   Zn4     1.938   1_655 S
O409   C459    1.282   .     A
O410   C460    1.282   .     A
O411   C457    1.282   .     A
O411   Zn1002  1.936   .     S
O412   C458    1.282   .     A
O413   C463    1.282   .     A
O414   C464    1.282   .     A
O414   Zn7     1.938   1_655 S
O415   C461    1.282   .     A
O416   C462    1.282   .     A
O416   Zn997   1.936   .     S
O417   C451    1.282   .     A
O417   Zn3     1.936   1_655 S
O418   C452    1.282   .     A
O419   C449    1.282   .     A
O420   C450    1.282   .     A
O420   Zn998   1.938   .     S
O421   C455    1.282   .     A
O422   C456    1.282   .     A
O422   Zn8     1.936   1_655 S
O423   C453    1.282   .     A
O423   Zn1001  1.938   .     S
O424   C454    1.282   .     A
C425   N537    1.435   .     S
C425   C497    1.415   .     A
C425   C430    1.399   .     A
C426   N540    1.434   .     S
C426   C429    1.399   .     A
C426   C498    1.419   .     A
C427   C499    1.419   .     A
C427   N543    1.435   .     S
C427   C432    1.399   .     A
C428   C431    1.399   .     A
C428   N546    1.435   .     S
C428   C500    1.415   .     A
C429   N549    1.435   .     S
C429   C501    1.415   .     A
C430   N552    1.435   .     S
C430   C502    1.419   .     A
C431   N555    1.435   .     S
C431   C503    1.419   .     A
C432   C504    1.415   .     A
C432   N558    1.435   .     S
C433   C505    1.416   .     A
C433   N561    1.435   .     S
C433   C438    1.399   1_556 S
C434   N564    1.435   .     S
C434   C506    1.419   .     A
C434   C437    1.399   1_554 S
C435   N567    1.435   .     S
C435   C507    1.419   .     A
C435   C440    1.399   1_556 S
C436   N570    1.435   .     S
C436   C508    1.416   .     A
C436   C439    1.399   1_554 S
C437   N573    1.435   .     S
C437   C509    1.416   .     A
C437   C434    1.399   1_556 S
C438   N576    1.435   .     S
C438   C510    1.419   .     A
C438   C433    1.399   1_554 S
C439   C511    1.419   .     A
C439   N579    1.435   .     S
C439   C436    1.399   1_556 S
C440   N582    1.435   .     S
C440   C512    1.416   .     A
C440   C435    1.399   1_554 S
C441   O1041   1.278   1_545 A
C442   O1046   1.277   1_545 S
C449   C515    1.456   .     S
C450   C516    1.456   .     S
C451   C517    1.455   .     S
C452   C518    1.455   .     S
C453   C519    1.456   .     S
C454   C520    1.456   .     S
C455   C513    1.455   .     S
C456   C514    1.455   .     S
C457   C523    1.455   .     S
C458   C524    1.455   .     S
C459   C525    1.456   .     S
C460   C526    1.456   .     S
C461   C527    1.455   .     S
C462   C528    1.455   .     S
C463   C521    1.456   .     S
C464   C522    1.456   .     S
C465   H585    1.083   .     S
C465   C528    1.402   .     A
C465   C480    1.386   .     A
C466   C479    1.386   .     A
C466   C527    1.402   .     A
C466   H586    1.083   .     S
C467   C478    1.386   .     A
C467   C526    1.402   .     A
C467   H587    1.083   .     S
C468   C477    1.386   .     A
C468   H588    1.083   .     S
C468   C525    1.402   .     A
C469   C524    1.402   .     A
C469   H589    1.083   .     S
C469   C476    1.386   .     A
C470   C475    1.386   .     A
C470   H590    1.083   .     S
C470   C523    1.402   .     A
C471   C474    1.386   .     A
C471   C522    1.402   .     A
C471   H591    1.083   .     S
C472   C473    1.386   .     A
C472   H592    1.083   .     S
C472   C521    1.402   .     A
C473   H593    1.083   .     S
C473   C520    1.402   .     A
C474   C519    1.402   .     A
C474   H594    1.083   .     S
C475   C518    1.402   .     A
C475   H595    1.083   .     S
C476   C517    1.402   .     A
C476   H596    1.083   .     S
C477   C516    1.402   .     A
C477   H597    1.083   .     S
C478   C515    1.402   .     A
C478   H598    1.083   .     S
C479   C514    1.402   .     A
C479   H599    1.083   .     S
C480   C513    1.402   .     A
C480   H600    1.083   .     S
C481   C514    1.402   .     A
C481   C496    1.386   .     A
C481   H601    1.083   .     S
C482   C495    1.386   .     A
C482   C513    1.402   .     A
C482   H602    1.083   .     S
C483   C516    1.402   .     A
C483   C494    1.386   .     A
C483   H603    1.083   .     S
C484   C493    1.386   .     A
C484   C515    1.402   .     A
C484   H604    1.083   .     S
C485   H605    1.083   .     S
C485   C492    1.386   .     A
C485   C518    1.402   .     A
C486   C491    1.386   .     A
C486   H606    1.083   .     S
C486   C517    1.402   .     A
C487   C490    1.386   .     A
C487   H607    1.083   .     S
C487   C520    1.402   .     A
C488   C519    1.402   .     A
C488   H608    1.083   .     S
C488   C489    1.386   .     A
C489   H609    1.083   .     S
C489   C522    1.402   .     A
C490   H610    1.083   .     S
C490   C521    1.402   .     A
C491   C524    1.402   .     A
C491   H611    1.083   .     S
C492   C523    1.402   .     A
C492   H612    1.083   .     S
C493   H613    1.083   .     S
C493   C526    1.402   .     A
C494   H614    1.083   .     S
C494   C525    1.402   .     A
C495   C528    1.402   .     A
C495   H615    1.083   .     S
C496   C527    1.402   .     A
C496   H616    1.083   .     S
C497   C197    1.423   1_655 S
C498   C530    1.425   .     A
C499   C1195   1.425   1_545 S
C500   C532    1.423   .     A
C501   C529    1.423   .     A
C502   C198    1.425   1_655 S
C503   C531    1.425   .     A
C504   C1196   1.423   1_545 S
C505   C1197   1.424   .     S
C506   C534    1.425   .     A
C507   C535    1.425   .     A
C508   C204    1.424   1_655 S
C509   C533    1.424   .     A
C510   C1198   1.425   .     S
C511   C203    1.425   1_655 S
C512   C536    1.424   .     A
C529   C530    1.417   .     A
C531   C532    1.417   .     A
C531   C1163   1.425   .     S
C532   C1168   1.423   .     S
C533   C1169   1.424   1_545 S
C533   C534    1.417   1_556 S
C534   C1174   1.425   1_545 S
C534   C533    1.417   1_554 S
C535   C536    1.417   1_556 S
C536   C535    1.417   1_554 S
N537   O538    1.301   .     A
N537   O539    1.301   .     A
N540   O541    1.301   .     A
N540   O542    1.301   .     A
N543   O544    1.301   .     A
N543   O545    1.301   .     A
N546   O548    1.301   .     A
N546   O547    1.301   .     A
N549   O550    1.301   .     A
N549   O551    1.301   .     A
N552   O553    1.301   .     A
N552   O554    1.301   .     A
N555   O556    1.301   .     A
N555   O557    1.301   .     A
N558   O559    1.301   .     A
N558   O560    1.301   .     A
N561   O562    1.301   .     A
N561   O563    1.301   .     A
N564   O566    1.301   .     A
N564   O565    1.301   .     A
N567   O568    1.301   .     A
N567   O569    1.301   .     A
N570   O572    1.301   .     A
N570   O571    1.301   .     A
N573   O574    1.301   .     A
N573   O575    1.301   .     A
N576   O577    1.301   .     A
N576   O578    1.301   .     A
N579   O581    1.301   .     A
N579   O580    1.301   .     A
N582   O584    1.301   .     A
N582   O583    1.301   .     A
N617   O618    1.301   .     A
O619   N285    1.301   1_655 S
N620   O622    1.301   .     A
N620   O621    1.302   .     A
N623   O624    1.302   .     A
N623   O625    1.301   .     A
N626   O627    1.301   .     A
N626   O1292   1.301   1_545 S
O628   N1290   1.301   .     S
N629   O630    1.301   .     A
N629   O299    1.301   1_655 S
N632   O633    1.302   .     A
N632   O634    1.301   .     A
N635   O637    1.301   .     A
N635   O636    1.302   .     A
N638   O639    1.301   .     A
N638   O1304   1.301   .     S
O640   N1302   1.301   1_545 S
N641   O643    1.301   .     A
N641   O642    1.301   .     A
N644   O645    1.302   .     A
N644   O646    1.301   .     A
N647   O648    1.302   .     A
N647   O649    1.301   .     A
N650   O652    1.301   .     A
N650   O651    1.301   .     A
N653   O654    1.301   .     A
N653   O655    1.301   .     A
N656   O657    1.302   .     A
N656   O658    1.301   .     A
N659   O661    1.301   .     A
N659   O660    1.302   .     A
N662   O663    1.301   .     A
N662   O664    1.301   .     A
Zn665  O751    1.938   .     S
Zn665  O705    1.949   .     S
Zn665  O720    1.950   .     S
Zn666  O747    1.936   .     S
Zn666  O719    1.950   .     S
Zn666  O706    1.949   .     S
Zn667  O742    1.938   .     S
Zn667  O707    1.949   .     S
Zn667  O722    1.950   .     S
Zn667  O1081   1.936   1_455 S
Zn668  O1073   1.938   1_455 S
Zn668  O708    1.949   .     S
Zn668  O721    1.950   .     S
Zn668  O750    1.936   .     S
Zn669  O744    1.936   .     S
Zn669  O705    1.949   .     S
Zn669  O724    1.950   .     S
Zn670  O706    1.949   .     S
Zn670  O723    1.950   .     S
Zn670  O756    1.938   .     S
Zn671  O753    1.936   .     S
Zn671  O707    1.949   .     S
Zn671  O718    1.950   .     S
Zn671  O1078   1.938   1_455 S
Zn672  O717    1.950   .     S
Zn672  O1086   1.936   1_455 S
Zn672  O708    1.949   .     S
Zn672  O745    1.938   .     S
Zn673  O712    1.950   .     S
Zn673  O735    1.938   .     S
Zn673  O1040   1.949   .     S
Zn673  O732    1.936   .     S
Zn674  O731    1.936   .     S
Zn674  O711    1.950   .     S
Zn674  O736    1.938   .     S
Zn674  O707    1.949   .     S
Zn675  O726    1.938   .     S
Zn675  O733    1.936   .     S
Zn675  O714    1.950   .     S
Zn675  O42     1.949   1_565 S
Zn676  O713    1.950   .     S
Zn676  O734    1.936   .     S
Zn676  O705    1.949   .     S
Zn676  O725    1.938   .     S
Zn677  O739    1.938   .     S
Zn677  O716    1.950   .     S
Zn677  O728    1.936   .     S
Zn677  O708    1.949   .     S
Zn678  O740    1.938   .     S
Zn678  O1039   1.949   .     S
Zn678  O715    1.950   .     S
Zn678  O727    1.936   .     S
Zn679  O706    1.949   .     S
Zn679  O730    1.938   .     S
Zn679  O710    1.950   .     S
Zn679  O737    1.936   .     S
Zn680  O709    1.950   .     S
Zn680  O729    1.938   .     S
Zn680  O738    1.936   .     S
Zn680  O41     1.949   1_565 S
C681   C697    1.398   .     A
C681   C833    1.414   .     A
C681   N949    1.437   .     S
C682   N952    1.436   .     S
C682   C834    1.415   .     A
C682   C1030   1.400   .     S
C683   C35     1.400   1_565 A
C683   N955    1.436   .     S
C683   C835    1.415   .     A
C684   C836    1.414   .     A
C684   N958    1.437   .     S
C684   C700    1.398   .     S
C685   C829    1.414   .     A
C685   N961    1.437   .     S
C685   C1029   1.398   .     S
C686   C830    1.415   .     A
C686   C698    1.400   .     A
C686   N964    1.436   .     S
C687   C831    1.415   .     A
C687   N967    1.436   .     S
C687   C699    1.400   .     S
C688   C36     1.398   1_565 A
C688   N970    1.437   .     S
C688   C832    1.414   .     A
C689   C841    1.414   .     A
C689   N973    1.437   .     S
C689   C701    1.398   .     A
C690   N976    1.436   .     S
C690   C842    1.415   .     A
C690   C38     1.400   1_565 S
C691   N979    1.436   .     S
C691   C843    1.415   .     A
C691   C1035   1.400   .     S
C692   C704    1.398   .     A
C692   C844    1.414   .     A
C692   N982    1.437   .     S
C693   N985    1.437   .     S
C693   C837    1.414   .     A
C693   C37     1.398   1_565 S
C694   C702    1.400   .     A
C694   C838    1.415   .     A
C694   N988    1.436   .     S
C695   C839    1.415   .     A
C695   N991    1.436   .     S
C695   C703    1.401   .     A
C696   C840    1.414   .     A
C696   N994    1.437   .     S
C696   C1036   1.398   .     S
C697   C775    1.452   .     S
C697   C1017   1.398   1_455 S
C698   C1014   1.400   1_455 S
C698   C776    1.459   .     S
C699   C773    1.459   .     S
C700   C774    1.452   .     S
C701   C779    1.452   .     S
C702   C780    1.459   .     S
C703   C777    1.459   .     S
C703   C1023   1.400   1_455 S
C704   C1028   1.398   1_455 S
C704   C778    1.452   .     S
O707   Zn1010  1.949   1_455 S
O708   Zn1005  1.949   1_455 S
O709   C109    1.278   1_565 A
O710   C774    1.277   .     A
O711   C775    1.277   .     A
O712   C1108   1.278   .     A
O713   C773    1.278   .     S
O714   C110    1.277   1_565 S
O715   C1107   1.277   .     S
O716   C776    1.278   .     S
O717   C777    1.278   .     S
O718   C778    1.277   .     A
O719   C779    1.277   .     S
O720   C780    1.278   .     S
O721   C777    1.278   .     A
O722   C778    1.277   .     A
O723   C779    1.277   .     S
O724   C780    1.278   .     S
O725   C781    1.282   .     A
O726   C782    1.282   .     A
O727   C783    1.282   .     A
O728   C784    1.282   .     A
O729   C785    1.282   .     A
O730   C786    1.282   .     A
O731   C787    1.282   .     A
O732   C788    1.282   .     A
O733   C789    1.282   .     A
O734   C790    1.282   .     A
O735   C791    1.282   .     A
O736   C792    1.282   .     A
O737   C793    1.282   .     A
O738   C794    1.282   .     A
O739   C795    1.282   .     A
O740   C796    1.282   .     A
O741   Zn1000  1.938   .     S
O741   C791    1.282   .     A
O742   C792    1.282   .     A
O743   C789    1.282   .     A
O743   Zn6     1.936   1_565 S
O744   C790    1.282   .     A
O745   C795    1.282   .     A
O746   C796    1.282   .     A
O746   Zn1003  1.938   .     S
O747   C793    1.282   .     A
O748   C794    1.282   .     A
O748   Zn1     1.936   1_565 S
O749   C783    1.282   .     A
O749   Zn999   1.936   .     S
O750   C784    1.282   .     A
O751   C781    1.282   .     A
O752   C782    1.282   .     A
O752   Zn2     1.938   1_565 S
O753   C787    1.282   .     A
O754   C788    1.282   .     A
O754   Zn1004  1.936   .     S
O755   C785    1.282   .     A
O755   Zn5     1.938   1_565 S
O756   C786    1.282   .     A
C757   N869    1.435   .     S
C757   C829    1.415   .     A
C757   C762    1.399   .     A
C758   N872    1.434   .     S
C758   C761    1.399   .     A
C758   C830    1.419   .     A
C759   C831    1.419   .     A
C759   N875    1.435   .     S
C759   C764    1.399   .     A
C760   C763    1.399   .     A
C760   N878    1.435   .     S
C760   C832    1.415   .     A
C761   N881    1.435   .     S
C761   C833    1.415   .     A
C762   N884    1.435   .     S
C762   C834    1.419   .     A
C763   N887    1.435   .     S
C763   C835    1.419   .     A
C764   C836    1.415   .     A
C764   N890    1.435   .     S
C765   C837    1.416   .     A
C765   N893    1.435   .     S
C765   C770    1.399   1_556 S
C766   N896    1.435   .     S
C766   C838    1.419   .     A
C766   C769    1.399   1_554 S
C767   N899    1.435   .     S
C767   C839    1.419   .     A
C767   C772    1.399   1_556 S
C768   N902    1.435   .     S
C768   C840    1.416   .     A
C768   C771    1.399   1_554 S
C769   N905    1.435   .     S
C769   C841    1.416   .     A
C769   C766    1.399   1_556 S
C770   N908    1.435   .     S
C770   C842    1.419   .     A
C770   C765    1.399   1_554 S
C771   C843    1.419   .     A
C771   N911    1.435   .     S
C771   C768    1.399   1_556 S
C772   N914    1.435   .     S
C772   C844    1.416   .     A
C772   C767    1.399   1_554 S
C775   O1047   1.277   1_455 S
C776   O1044   1.278   1_455 A
C781   C847    1.456   .     S
C782   C848    1.456   .     S
C783   C849    1.455   .     S
C784   C850    1.455   .     S
C785   C851    1.456   .     S
C786   C852    1.456   .     S
C787   C845    1.455   .     S
C788   C846    1.455   .     S
C789   C855    1.455   .     S
C790   C856    1.455   .     S
C791   C857    1.456   .     S
C792   C858    1.456   .     S
C793   C859    1.455   .     S
C794   C860    1.455   .     S
C795   C853    1.456   .     S
C796   C854    1.456   .     S
C797   H917    1.083   .     S
C797   C860    1.402   .     A
C797   C812    1.386   .     A
C798   C811    1.386   .     A
C798   C859    1.402   .     A
C798   H918    1.083   .     S
C799   C810    1.386   .     A
C799   C858    1.402   .     A
C799   H919    1.083   .     S
C800   C809    1.386   .     A
C800   H920    1.083   .     S
C800   C857    1.402   .     A
C801   C856    1.402   .     A
C801   H921    1.083   .     S
C801   C808    1.386   .     A
C802   C807    1.386   .     A
C802   H922    1.083   .     S
C802   C855    1.402   .     A
C803   C806    1.386   .     A
C803   C854    1.402   .     A
C803   H923    1.083   .     S
C804   C805    1.386   .     A
C804   H924    1.083   .     S
C804   C853    1.402   .     A
C805   H925    1.083   .     S
C805   C852    1.402   .     A
C806   C851    1.402   .     A
C806   H926    1.083   .     S
C807   C850    1.402   .     A
C807   H927    1.083   .     S
C808   C849    1.402   .     A
C808   H928    1.083   .     S
C809   C848    1.402   .     A
C809   H929    1.083   .     S
C810   C847    1.402   .     A
C810   H930    1.083   .     S
C811   C846    1.402   .     A
C811   H931    1.083   .     S
C812   C845    1.402   .     A
C812   H932    1.083   .     S
C813   C846    1.402   .     A
C813   C828    1.386   .     A
C813   H933    1.083   .     S
C814   C827    1.386   .     A
C814   C845    1.402   .     A
C814   H934    1.083   .     S
C815   C848    1.402   .     A
C815   C826    1.386   .     A
C815   H935    1.083   .     S
C816   C825    1.386   .     A
C816   C847    1.402   .     A
C816   H936    1.083   .     S
C817   H937    1.083   .     S
C817   C824    1.386   .     A
C817   C850    1.402   .     A
C818   C823    1.386   .     A
C818   H938    1.083   .     S
C818   C849    1.402   .     A
C819   C822    1.386   .     A
C819   H939    1.083   .     S
C819   C852    1.402   .     A
C820   C851    1.402   .     A
C820   H940    1.083   .     S
C820   C821    1.386   .     A
C821   H941    1.083   .     S
C821   C854    1.402   .     A
C822   H942    1.083   .     S
C822   C853    1.402   .     A
C823   C856    1.402   .     A
C823   H943    1.083   .     S
C824   C855    1.402   .     A
C824   H944    1.083   .     S
C825   H945    1.083   .     S
C825   C858    1.402   .     A
C826   H946    1.083   .     S
C826   C857    1.402   .     A
C827   C860    1.402   .     A
C827   H947    1.083   .     S
C828   C859    1.402   .     A
C828   H948    1.083   .     S
C829   C1193   1.423   .     S
C830   C862    1.425   .     A
C832   C864    1.423   .     A
C833   C861    1.423   .     A
C834   C1194   1.425   .     S
C835   C863    1.425   .     A
C837   C201    1.424   1_565 S
C838   C866    1.425   .     A
C839   C867    1.425   .     A
C840   C1200   1.424   .     S
C841   C865    1.424   .     A
C842   C202    1.425   1_565 S
C843   C1199   1.425   .     S
C844   C868    1.424   .     A
C861   C862    1.417   .     A
C861   C1161   1.423   1_455 S
C862   C1166   1.425   1_455 S
C863   C864    1.417   .     A
C863   C167    1.425   1_565 S
C864   C172    1.423   1_565 S
C865   C866    1.417   1_556 S
C866   C865    1.417   1_554 S
C867   C1175   1.425   1_455 S
C867   C868    1.417   1_556 S
C868   C1172   1.424   1_455 S
C868   C867    1.417   1_554 S
N869   O870    1.301   .     A
N869   O871    1.301   .     A
N872   O873    1.301   .     A
N872   O874    1.301   .     A
N875   O876    1.301   .     A
N875   O877    1.301   .     A
N878   O880    1.301   .     A
N878   O879    1.301   .     A
N881   O882    1.301   .     A
N881   O883    1.301   .     A
N884   O885    1.301   .     A
N884   O886    1.301   .     A
N887   O888    1.301   .     A
N887   O889    1.301   .     A
N890   O891    1.301   .     A
N890   O892    1.301   .     A
N893   O894    1.301   .     A
N893   O895    1.301   .     A
N896   O898    1.301   .     A
N896   O897    1.301   .     A
N899   O900    1.301   .     A
N899   O901    1.301   .     A
N902   O904    1.301   .     A
N902   O903    1.301   .     A
N905   O906    1.301   .     A
N905   O907    1.301   .     A
N908   O909    1.301   .     A
N908   O910    1.301   .     A
N911   O913    1.301   .     A
N911   O912    1.301   .     A
N914   O916    1.301   .     A
N914   O915    1.301   .     A
N949   O950    1.301   .     A
N949   O1283   1.301   1_455 S
O951   N1281   1.301   .     S
N952   O954    1.301   .     A
N952   O953    1.302   .     A
N955   O956    1.302   .     A
N955   O957    1.301   .     A
N958   O959    1.301   .     A
O960   N294    1.301   1_565 S
N961   O962    1.301   .     A
N961   O1295   1.301   .     S
O963   N1293   1.301   1_455 S
N964   O965    1.302   .     A
N964   O966    1.301   .     A
N967   O969    1.301   .     A
N967   O968    1.302   .     A
N970   O971    1.301   .     A
N970   O308    1.301   1_565 S
N973   O975    1.301   .     A
N973   O974    1.301   .     A
N976   O977    1.302   .     A
N976   O978    1.301   .     A
N979   O980    1.302   .     A
N979   O981    1.301   .     A
N982   O984    1.301   .     A
N982   O983    1.301   .     A
N985   O986    1.301   .     A
N985   O987    1.301   .     A
N988   O989    1.302   .     A
N988   O990    1.301   .     A
N991   O993    1.301   .     A
N991   O992    1.302   .     A
N994   O995    1.301   .     A
N994   O996    1.301   .     A
Zn997  O1083   1.938   .     S
Zn997  O1037   1.949   .     S
Zn997  O1052   1.950   .     S
Zn998  O1079   1.936   .     S
Zn998  O1051   1.950   .     S
Zn998  O1038   1.949   .     S
Zn999  O1074   1.938   .     S
Zn999  O1039   1.949   .     S
Zn999  O1054   1.950   .     S
Zn1000 O1040   1.949   .     S
Zn1000 O1053   1.950   .     S
Zn1000 O1082   1.936   .     S
Zn1001 O1076   1.936   .     S
Zn1001 O1037   1.949   .     S
Zn1001 O1056   1.950   .     S
Zn1002 O1038   1.949   .     S
Zn1002 O1055   1.950   .     S
Zn1002 O1088   1.938   .     S
Zn1003 O1085   1.936   .     S
Zn1003 O1039   1.949   .     S
Zn1003 O1050   1.950   .     S
Zn1004 O1049   1.950   .     S
Zn1004 O1040   1.949   .     S
Zn1004 O1077   1.938   .     S
Zn1005 O1044   1.950   .     S
Zn1005 O1067   1.938   .     S
Zn1005 O708    1.949   1_655 S
Zn1005 O1064   1.936   .     S
Zn1006 O1063   1.936   .     S
Zn1006 O1043   1.950   .     S
Zn1006 O1068   1.938   .     S
Zn1006 O1039   1.949   .     S
Zn1007 O1058   1.938   .     S
Zn1007 O1065   1.936   .     S
Zn1007 O1046   1.950   .     S
Zn1007 O374    1.949   1_565 S
Zn1008 O1045   1.950   .     S
Zn1008 O1066   1.936   .     S
Zn1008 O1037   1.949   .     S
Zn1008 O1057   1.938   .     S
Zn1009 O1071   1.938   .     S
Zn1009 O1048   1.950   .     S
Zn1009 O1060   1.936   .     S
Zn1009 O1040   1.949   .     S
Zn1010 O1072   1.938   .     S
Zn1010 O707    1.949   1_655 S
Zn1010 O1047   1.950   .     S
Zn1010 O1059   1.936   .     S
Zn1011 O1038   1.949   .     S
Zn1011 O1062   1.938   .     S
Zn1011 O1042   1.950   .     S
Zn1011 O1069   1.936   .     S
Zn1012 O1041   1.950   .     S
Zn1012 O1061   1.938   .     S
Zn1012 O1070   1.936   .     S
Zn1012 O373    1.949   1_565 S
C1013  C1029   1.398   .     A
C1013  C1165   1.414   .     A
C1013  N1281   1.437   .     S
C1014  N1284   1.436   .     S
C1014  C1166   1.415   .     A
C1014  C698    1.400   1_655 S
C1015  C367    1.400   1_565 A
C1015  N1287   1.436   .     S
C1015  C1167   1.415   .     A
C1016  C1168   1.414   .     A
C1016  N1290   1.437   .     S
C1016  C1032   1.398   .     S
C1017  C1161   1.414   .     A
C1017  N1293   1.437   .     S
C1017  C697    1.398   1_655 S
C1018  C1162   1.415   .     A
C1018  C1030   1.400   .     A
C1018  N1296   1.436   .     S
C1019  C1163   1.415   .     A
C1019  N1299   1.436   .     S
C1019  C1031   1.400   .     S
C1020  C368    1.398   1_565 A
C1020  N1302   1.437   .     S
C1020  C1164   1.414   .     A
C1021  C1173   1.414   .     A
C1021  N1305   1.437   .     S
C1021  C1033   1.398   .     A
C1022  N1308   1.436   .     S
C1022  C1174   1.415   .     A
C1022  C370    1.400   1_565 S
C1023  N1311   1.436   .     S
C1023  C1175   1.415   .     A
C1023  C703    1.400   1_655 S
C1024  C1036   1.398   .     A
C1024  C1176   1.414   .     A
C1024  N1314   1.437   .     S
C1025  N1317   1.437   .     S
C1025  C1169   1.414   .     A
C1025  C369    1.398   1_565 S
C1026  C1034   1.400   .     A
C1026  C1170   1.415   .     A
C1026  N1320   1.436   .     S
C1027  C1171   1.415   .     A
C1027  N1323   1.436   .     S
C1027  C1035   1.401   .     A
C1028  C1172   1.414   .     A
C1028  N1326   1.437   .     S
C1028  C704    1.398   1_655 S
C1029  C1107   1.452   .     S
C1030  C1108   1.459   .     S
C1031  C1105   1.459   .     S
C1032  C1106   1.452   .     S
C1033  C1111   1.452   .     S
C1034  C1112   1.459   .     S
C1035  C1109   1.459   .     S
C1036  C1110   1.452   .     S
O1041  C441    1.278   1_565 A
O1042  C1106   1.277   .     A
O1043  C1107   1.277   .     A
O1044  C776    1.278   1_655 A
O1045  C1105   1.278   .     S
O1046  C442    1.277   1_565 S
O1047  C775    1.277   1_655 S
O1048  C1108   1.278   .     S
O1049  C1109   1.278   .     S
O1050  C1110   1.277   .     A
O1051  C1111   1.277   .     S
O1052  C1112   1.278   .     S
O1053  C1109   1.278   .     A
O1054  C1110   1.277   .     A
O1055  C1111   1.277   .     S
O1056  C1112   1.278   .     S
O1057  C1113   1.282   .     A
O1058  C1114   1.282   .     A
O1059  C1115   1.282   .     A
O1060  C1116   1.282   .     A
O1061  C1117   1.282   .     A
O1062  C1118   1.282   .     A
O1063  C1119   1.282   .     A
O1064  C1120   1.282   .     A
O1065  C1121   1.282   .     A
O1066  C1122   1.282   .     A
O1067  C1123   1.282   .     A
O1068  C1124   1.282   .     A
O1069  C1125   1.282   .     A
O1070  C1126   1.282   .     A
O1071  C1127   1.282   .     A
O1072  C1128   1.282   .     A
O1073  Zn668   1.938   1_655 S
O1073  C1123   1.282   .     A
O1074  C1124   1.282   .     A
O1075  C1121   1.282   .     A
O1075  Zn338   1.936   1_565 S
O1076  C1122   1.282   .     A
O1077  C1127   1.282   .     A
O1078  C1128   1.282   .     A
O1078  Zn671   1.938   1_655 S
O1079  C1125   1.282   .     A
O1080  C1126   1.282   .     A
O1080  Zn333   1.936   1_565 S
O1081  C1115   1.282   .     A
O1081  Zn667   1.936   1_655 S
O1082  C1116   1.282   .     A
O1083  C1113   1.282   .     A
O1084  C1114   1.282   .     A
O1084  Zn334   1.938   1_565 S
O1085  C1119   1.282   .     A
O1086  C1120   1.282   .     A
O1086  Zn672   1.936   1_655 S
O1087  C1117   1.282   .     A
O1087  Zn337   1.938   1_565 S
O1088  C1118   1.282   .     A
C1089  N1201   1.435   .     S
C1089  C1161   1.415   .     A
C1089  C1094   1.399   .     A
C1090  N1204   1.434   .     S
C1090  C1093   1.399   .     A
C1090  C1162   1.419   .     A
C1091  C1163   1.419   .     A
C1091  N1207   1.435   .     S
C1091  C1096   1.399   .     A
C1092  C1095   1.399   .     A
C1092  N1210   1.435   .     S
C1092  C1164   1.415   .     A
C1093  N1213   1.435   .     S
C1093  C1165   1.415   .     A
C1094  N1216   1.435   .     S
C1094  C1166   1.419   .     A
C1095  N1219   1.435   .     S
C1095  C1167   1.419   .     A
C1096  C1168   1.415   .     A
C1096  N1222   1.435   .     S
C1097  C1169   1.416   .     A
C1097  N1225   1.435   .     S
C1097  C1102   1.399   1_556 S
C1098  N1228   1.435   .     S
C1098  C1170   1.419   .     A
C1098  C1101   1.399   1_554 S
C1099  N1231   1.435   .     S
C1099  C1171   1.419   .     A
C1099  C1104   1.399   1_556 S
C1100  N1234   1.435   .     S
C1100  C1172   1.416   .     A
C1100  C1103   1.399   1_554 S
C1101  N1237   1.435   .     S
C1101  C1173   1.416   .     A
C1101  C1098   1.399   1_556 S
C1102  N1240   1.435   .     S
C1102  C1174   1.419   .     A
C1102  C1097   1.399   1_554 S
C1103  C1175   1.419   .     A
C1103  N1243   1.435   .     S
C1103  C1100   1.399   1_556 S
C1104  N1246   1.435   .     S
C1104  C1176   1.416   .     A
C1104  C1099   1.399   1_554 S
C1113  C1179   1.456   .     S
C1114  C1180   1.456   .     S
C1115  C1181   1.455   .     S
C1116  C1182   1.455   .     S
C1117  C1183   1.456   .     S
C1118  C1184   1.456   .     S
C1119  C1177   1.455   .     S
C1120  C1178   1.455   .     S
C1121  C1187   1.455   .     S
C1122  C1188   1.455   .     S
C1123  C1189   1.456   .     S
C1124  C1190   1.456   .     S
C1125  C1191   1.455   .     S
C1126  C1192   1.455   .     S
C1127  C1185   1.456   .     S
C1128  C1186   1.456   .     S
C1129  H1249   1.083   .     S
C1129  C1192   1.402   .     A
C1129  C1144   1.386   .     A
C1130  C1143   1.386   .     A
C1130  C1191   1.402   .     A
C1130  H1250   1.083   .     S
C1131  C1142   1.386   .     A
C1131  C1190   1.402   .     A
C1131  H1251   1.083   .     S
C1132  C1141   1.386   .     A
C1132  H1252   1.083   .     S
C1132  C1189   1.402   .     A
C1133  C1188   1.402   .     A
C1133  H1253   1.083   .     S
C1133  C1140   1.386   .     A
C1134  C1139   1.386   .     A
C1134  H1254   1.083   .     S
C1134  C1187   1.402   .     A
C1135  C1138   1.386   .     A
C1135  C1186   1.402   .     A
C1135  H1255   1.083   .     S
C1136  C1137   1.386   .     A
C1136  H1256   1.083   .     S
C1136  C1185   1.402   .     A
C1137  H1257   1.083   .     S
C1137  C1184   1.402   .     A
C1138  C1183   1.402   .     A
C1138  H1258   1.083   .     S
C1139  C1182   1.402   .     A
C1139  H1259   1.083   .     S
C1140  C1181   1.402   .     A
C1140  H1260   1.083   .     S
C1141  C1180   1.402   .     A
C1141  H1261   1.083   .     S
C1142  C1179   1.402   .     A
C1142  H1262   1.083   .     S
C1143  C1178   1.402   .     A
C1143  H1263   1.083   .     S
C1144  C1177   1.402   .     A
C1144  H1264   1.083   .     S
C1145  C1178   1.402   .     A
C1145  C1160   1.386   .     A
C1145  H1265   1.083   .     S
C1146  C1159   1.386   .     A
C1146  C1177   1.402   .     A
C1146  H1266   1.083   .     S
C1147  C1180   1.402   .     A
C1147  C1158   1.386   .     A
C1147  H1267   1.083   .     S
C1148  C1157   1.386   .     A
C1148  C1179   1.402   .     A
C1148  H1268   1.083   .     S
C1149  H1269   1.083   .     S
C1149  C1156   1.386   .     A
C1149  C1182   1.402   .     A
C1150  C1155   1.386   .     A
C1150  H1270   1.083   .     S
C1150  C1181   1.402   .     A
C1151  C1154   1.386   .     A
C1151  H1271   1.083   .     S
C1151  C1184   1.402   .     A
C1152  C1183   1.402   .     A
C1152  H1272   1.083   .     S
C1152  C1153   1.386   .     A
C1153  H1273   1.083   .     S
C1153  C1186   1.402   .     A
C1154  H1274   1.083   .     S
C1154  C1185   1.402   .     A
C1155  C1188   1.402   .     A
C1155  H1275   1.083   .     S
C1156  C1187   1.402   .     A
C1156  H1276   1.083   .     S
C1157  H1277   1.083   .     S
C1157  C1190   1.402   .     A
C1158  H1278   1.083   .     S
C1158  C1189   1.402   .     A
C1159  C1192   1.402   .     A
C1159  H1279   1.083   .     S
C1160  C1191   1.402   .     A
C1160  H1280   1.083   .     S
C1161  C861    1.423   1_655 S
C1162  C1194   1.425   .     A
C1164  C1196   1.423   .     A
C1165  C1193   1.423   .     A
C1166  C862    1.425   1_655 S
C1167  C1195   1.425   .     A
C1169  C533    1.424   1_565 S
C1170  C1198   1.425   .     A
C1171  C1199   1.425   .     A
C1172  C868    1.424   1_655 S
C1173  C1197   1.424   .     A
C1174  C534    1.425   1_565 S
C1175  C867    1.425   1_655 S
C1176  C1200   1.424   .     A
C1193  C1194   1.417   .     A
C1195  C1196   1.417   .     A
C1195  C499    1.425   1_565 S
C1196  C504    1.423   1_565 S
C1197  C1198   1.417   1_556 S
C1198  C1197   1.417   1_554 S
C1199  C1200   1.417   1_556 S
C1200  C1199   1.417   1_554 S
N1201  O1202   1.301   .     A
N1201  O1203   1.301   .     A
N1204  O1205   1.301   .     A
N1204  O1206   1.301   .     A
N1207  O1208   1.301   .     A
N1207  O1209   1.301   .     A
N1210  O1212   1.301   .     A
N1210  O1211   1.301   .     A
N1213  O1214   1.301   .     A
N1213  O1215   1.301   .     A
N1216  O1217   1.301   .     A
N1216  O1218   1.301   .     A
N1219  O1220   1.301   .     A
N1219  O1221   1.301   .     A
N1222  O1223   1.301   .     A
N1222  O1224   1.301   .     A
N1225  O1226   1.301   .     A
N1225  O1227   1.301   .     A
N1228  O1230   1.301   .     A
N1228  O1229   1.301   .     A
N1231  O1232   1.301   .     A
N1231  O1233   1.301   .     A
N1234  O1236   1.301   .     A
N1234  O1235   1.301   .     A
N1237  O1238   1.301   .     A
N1237  O1239   1.301   .     A
N1240  O1241   1.301   .     A
N1240  O1242   1.301   .     A
N1243  O1245   1.301   .     A
N1243  O1244   1.301   .     A
N1246  O1248   1.301   .     A
N1246  O1247   1.301   .     A
N1281  O1282   1.301   .     A
O1283  N949    1.301   1_655 S
N1284  O1286   1.301   .     A
N1284  O1285   1.302   .     A
N1287  O1288   1.302   .     A
N1287  O1289   1.301   .     A
N1290  O1291   1.301   .     A
O1292  N626    1.301   1_565 S
N1293  O1294   1.301   .     A
N1293  O963    1.301   1_655 S
N1296  O1297   1.302   .     A
N1296  O1298   1.301   .     A
N1299  O1301   1.301   .     A
N1299  O1300   1.302   .     A
N1302  O1303   1.301   .     A
N1302  O640    1.301   1_565 S
N1305  O1307   1.301   .     A
N1305  O1306   1.301   .     A
N1308  O1309   1.302   .     A
N1308  O1310   1.301   .     A
N1311  O1312   1.302   .     A
N1311  O1313   1.301   .     A
N1314  O1316   1.301   .     A
N1314  O1315   1.301   .     A
N1317  O1318   1.301   .     A
N1317  O1319   1.301   .     A
N1320  O1321   1.302   .     A
N1320  O1322   1.301   .     A
N1323  O1325   1.301   .     A
N1323  O1324   1.302   .     A
N1326  O1327   1.301   .     A
N1326  O1328   1.301   .     A
